@<TRIPOS>MOLECULE
101m_HEM_A_1.pdb
 43 50 0 0 0
SMALL
GASTEIGER

@<TRIPOS>ATOM
      1 FE         35.5020    4.2040    9.9800 Fe    155  HEM155      0.0000
      2  CHA       38.0560    2.2930   11.0780 C.2   155  HEM155      0.0000
      3  CHB       37.3060    5.2120    7.3840 C.2   155  HEM155      0.0000
      4  CHC       32.9640    6.2050    9.0510 C.2   155  HEM155      0.0000
      5  CHD       33.5980    3.2000   12.6670 C.2   155  HEM155      0.0000
      6  NA        37.3120    3.7800    9.3250 N.ar  155  HEM155      0.0000
      7  C1A       38.2860    2.9950    9.9250 C.ar  155  HEM155      0.0000
      8  C2A       39.5570    3.0370    9.2140 C.ar  155  HEM155      0.0000
      9  C3A       39.3020    3.8710    8.1510 C.ar  155  HEM155      0.0000
     10  C4A       37.9190    4.3230    8.2390 C.ar  155  HEM155      0.0000
     11  CMA       40.3140    4.2210    7.0550 C.3   155  HEM155      0.0000
     12  CAA       40.8770    2.2160    9.2990 C.3   155  HEM155      0.0000
     13  CBA       41.0150    0.7420    8.9510 C.3   155  HEM155      0.0000
     14  CGA       39.6780    0.0330    8.8610 C.2   155  HEM155      0.0000
     15  O1A       39.2510   -0.5660    9.8810 O.co2 155  HEM155      0.0000
     16  O2A       39.0480    0.0910    7.7780 O.co2 155  HEM155      0.0000
     17  NB        35.1320    5.3850    8.5000 N.2   155  HEM155      0.0000
     18  C1B       36.0200    5.7160    7.4780 C.2   155  HEM155      0.0000
     19  C2B       35.4560    6.6940    6.5560 C.2   155  HEM155      0.0000
     20  C3B       34.2240    6.9800    7.0140 C.2   155  HEM155      0.0000
     21  C4B       34.0550    6.1560    8.2310 C.2   155  HEM155      0.0000
     22  CMB       36.0900    7.2460    5.2630 C.3   155  HEM155      0.0000
     23  CAB       33.3350    8.0050    6.6580 C.3   155  HEM155      0.0000
     24  CBB       33.4910    9.1220    5.7940 C.3   155  HEM155      0.0000
     25  NC        33.5910    4.5650   10.6570 N.ar  155  HEM155      0.0000
     26  C1C       32.7400    5.5070   10.2000 C.ar  155  HEM155      0.0000
     27  C2C       31.6150    5.7070   11.0800 C.ar  155  HEM155      0.0000
     28  C3C       31.7850    4.8290   12.1310 C.ar  155  HEM155      0.0000
     29  C4C       33.0280    4.1260   11.8340 C.ar  155  HEM155      0.0000
     30  CMC       30.4840    6.7040   10.8370 C.3   155  HEM155      0.0000
     31  CAC       31.0810    4.6300   13.3570 C.3   155  HEM155      0.0000
     32  CBC       29.9690    5.3380   13.8970 C.3   155  HEM155      0.0000
     33  ND        35.7280    2.8870   11.4510 N.2   155  HEM155      0.0000
     34  C1D       34.8520    2.6150   12.5000 C.2   155  HEM155      0.0000
     35  C2D       35.4660    1.7570   13.4900 C.2   155  HEM155      0.0000
     36  C3D       36.7290    1.5400   13.0830 C.2   155  HEM155      0.0000
     37  C4D       36.8720    2.2430   11.8030 C.2   155  HEM155      0.0000
     38  CMD       34.7830    1.1470   14.6980 C.3   155  HEM155      0.0000
     39  CAD       37.9410    1.0000   13.8410 C.3   155  HEM155      0.0000
     40  CBD       38.4630    1.8430   15.0190 C.3   155  HEM155      0.0000
     41  CGD       39.5860    1.1450   15.7860 C.2   155  HEM155      0.0000
     42  O1D       39.3260    0.6970   16.9300 O.co2 155  HEM155      0.0000
     43  O2D       40.7140    1.0270   15.2450 O.co2 155  HEM155      0.0000
@<TRIPOS>BOND
     1    22    19    1
     2    24    23    1
     3    19    20    2
     4    19    18    1
     5    23    20    1
     6    20    21    1
     7    11     9    1
     8     3    18    1
     9     3    10    2
    10    18    17    2
    11    16    14   ar
    12     9    10   ar
    13     9     8   ar
    14    21    17    1
    15    21     4    2
    16    10     6   ar
    17    17     1    1
    18    14    13    1
    19    14    15   ar
    20    13    12    1
    21     4    26    1
    22     8    12    1
    23     8     7   ar
    24     6     7   ar
    25     6     1    1
    26     7     2    2
    27     1    25    1
    28     1    33    1
    29    26    25   ar
    30    26    27   ar
    31    25    29   ar
    32    30    27    1
    33     2    37    1
    34    27    28   ar
    35    33    37    2
    36    33    34    1
    37    37    36    1
    38    29    28   ar
    39    29     5    1
    40    28    31    1
    41    34     5    2
    42    34    35    1
    43    36    35    2
    44    36    39    1
    45    31    32    1
    46    35    38    1
    47    39    40    1
    48    40    41    1
    49    43    41   ar
    50    41    42   ar
