@<TRIPOS>MOLECULE
102m_HEM_A_1.pdb
 43 50 0 0 0
SMALL
GASTEIGER

@<TRIPOS>ATOM
      1 FE         35.4780    4.2220   10.1300 Fe    155  HEM155      0.0000
      2  CHA       38.0840    2.4530   11.2030 C.2   155  HEM155      0.0000
      3  CHB       37.3490    5.3390    7.4880 C.2   155  HEM155      0.0000
      4  CHC       32.9040    6.1700    9.1720 C.2   155  HEM155      0.0000
      5  CHD       33.7100    3.3380   12.9320 C.2   155  HEM155      0.0000
      6  NA        37.2980    3.9400    9.4880 N.ar  155  HEM155      0.0000
      7  C1A       38.2530    3.1450   10.0420 C.ar  155  HEM155      0.0000
      8  C2A       39.4980    3.1630    9.3010 C.ar  155  HEM155      0.0000
      9  C3A       39.2520    3.9840    8.2530 C.ar  155  HEM155      0.0000
     10  C4A       37.9230    4.4670    8.3770 C.ar  155  HEM155      0.0000
     11  CMA       40.2190    4.2390    7.0780 C.3   155  HEM155      0.0000
     12  CAA       40.7810    2.3030    9.3050 C.3   155  HEM155      0.0000
     13  CBA       40.8560    0.8500    8.8600 C.3   155  HEM155      0.0000
     14  CGA       39.5060    0.1690    8.7980 C.2   155  HEM155      0.0000
     15  O1A       39.1020   -0.4250    9.8190 O.co2 155  HEM155      0.0000
     16  O2A       38.8520    0.2250    7.7330 O.co2 155  HEM155      0.0000
     17  NB        35.1780    5.4400    8.6210 N.2   155  HEM155      0.0000
     18  C1B       36.0470    5.8090    7.5930 C.2   155  HEM155      0.0000
     19  C2B       35.4360    6.7640    6.6810 C.2   155  HEM155      0.0000
     20  C3B       34.1780    7.0070    7.1670 C.2   155  HEM155      0.0000
     21  C4B       34.0350    6.1720    8.3590 C.2   155  HEM155      0.0000
     22  CMB       36.0310    7.3340    5.3710 C.3   155  HEM155      0.0000
     23  CAB       33.2160    7.9910    6.8230 C.3   155  HEM155      0.0000
     24  CBB       33.2390    9.0890    5.9370 C.3   155  HEM155      0.0000
     25  NC        33.6370    4.6080   10.8600 N.ar  155  HEM155      0.0000
     26  C1C       32.7270    5.4630   10.3520 C.ar  155  HEM155      0.0000
     27  C2C       31.5880    5.6160   11.2400 C.ar  155  HEM155      0.0000
     28  C3C       31.8360    4.8150   12.3090 C.ar  155  HEM155      0.0000
     29  C4C       33.0940    4.2000   12.0590 C.ar  155  HEM155      0.0000
     30  CMC       30.3940    6.5670   11.0170 C.3   155  HEM155      0.0000
     31  CAC       31.1460    4.6320   13.5440 C.3   155  HEM155      0.0000
     32  CBC       29.9770    5.2690   14.0510 C.3   155  HEM155      0.0000
     33  ND        35.8020    3.0570   11.6700 N.2   155  HEM155      0.0000
     34  C1D       34.9730    2.7970   12.7540 C.2   155  HEM155      0.0000
     35  C2D       35.6250    1.9610   13.7410 C.2   155  HEM155      0.0000
     36  C3D       36.8440    1.7640   13.2420 C.2   155  HEM155      0.0000
     37  C4D       36.9450    2.4290   11.9720 C.2   155  HEM155      0.0000
     38  CMD       35.0210    1.3580   14.9980 C.3   155  HEM155      0.0000
     39  CAD       38.0570    1.1520   13.8640 C.3   155  HEM155      0.0000
     40  CBD       38.5710    1.9210   15.0600 C.3   155  HEM155      0.0000
     41  CGD       39.9190    1.4140   15.4910 C.2   155  HEM155      0.0000
     42  O1D       40.0220    0.8690   16.6120 O.co2 155  HEM155      0.0000
     43  O2D       40.8750    1.5470   14.6920 O.co2 155  HEM155      0.0000
@<TRIPOS>BOND
     1    22    19    1
     2    24    23    1
     3    19    20    2
     4    19    18    1
     5    23    20    1
     6    11     9    1
     7    20    21    1
     8     3    18    1
     9     3    10    2
    10    18    17    2
    11    16    14   ar
    12     9    10   ar
    13     9     8   ar
    14    21    17    1
    15    21     4    2
    16    10     6   ar
    17    17     1    1
    18    14    13    1
    19    14    15   ar
    20    13    12    1
    21     4    26    1
    22     8    12    1
    23     8     7   ar
    24     6     7   ar
    25     6     1    1
    26     7     2    2
    27     1    25    1
    28     1    33    1
    29    26    25   ar
    30    26    27   ar
    31    25    29   ar
    32    30    27    1
    33     2    37    1
    34    27    28   ar
    35    33    37    2
    36    33    34    1
    37    37    36    1
    38    29    28   ar
    39    29     5    1
    40    28    31    1
    41    34     5    2
    42    34    35    1
    43    36    35    2
    44    36    39    1
    45    31    32    1
    46    35    38    1
    47    39    40    1
    48    43    41   ar
    49    40    41    1
    50    41    42   ar
