@<TRIPOS>MOLECULE
103m_HEM_A_1.pdb
 43 50 0 0 0
SMALL
GASTEIGER

@<TRIPOS>ATOM
      1 FE         35.4850    4.1620   10.2600 Fe    155  HEM155      0.0000
      2  CHA       38.0210    2.1820   11.3010 C.2   155  HEM155      0.0000
      3  CHB       37.3520    5.2090    7.6030 C.2   155  HEM155      0.0000
      4  CHC       32.9270    6.1060    9.1380 C.2   155  HEM155      0.0000
      5  CHD       33.5690    3.1530   12.8320 C.2   155  HEM155      0.0000
      6  NA        37.2730    3.7850    9.5990 N.ar  155  HEM155      0.0000
      7  C1A       38.2370    2.9470   10.1720 C.ar  155  HEM155      0.0000
      8  C2A       39.5160    3.0000    9.4250 C.ar  155  HEM155      0.0000
      9  C3A       39.2940    3.8680    8.3890 C.ar  155  HEM155      0.0000
     10  C4A       37.9230    4.3470    8.4950 C.ar  155  HEM155      0.0000
     11  CMA       40.2460    4.2220    7.2720 C.3   155  HEM155      0.0000
     12  CAA       40.7940    2.1600    9.5240 C.3   155  HEM155      0.0000
     13  CBA       40.8950    0.6590    9.2190 C.3   155  HEM155      0.0000
     14  CGA       39.5460   -0.0170    8.9220 C.2   155  HEM155      0.0000
     15  O1A       38.9430   -0.5810    9.8660 O.co2 155  HEM155      0.0000
     16  O2A       39.0960   -0.0020    7.7470 O.co2 155  HEM155      0.0000
     17  NB        35.1640    5.3290    8.6560 N.2   155  HEM155      0.0000
     18  C1B       36.0560    5.6710    7.6600 C.2   155  HEM155      0.0000
     19  C2B       35.4610    6.6410    6.7080 C.2   155  HEM155      0.0000
     20  C3B       34.2300    6.9090    7.1440 C.2   155  HEM155      0.0000
     21  C4B       34.0530    6.0850    8.3520 C.2   155  HEM155      0.0000
     22  CMB       36.1010    7.1760    5.4220 C.3   155  HEM155      0.0000
     23  CAB       33.3440    7.9340    6.7610 C.3   155  HEM155      0.0000
     24  CBB       33.4710    9.0800    5.8740 C.3   155  HEM155      0.0000
     25  NC        33.5820    4.5470   10.8310 N.ar  155  HEM155      0.0000
     26  C1C       32.7000    5.4170   10.3090 C.ar  155  HEM155      0.0000
     27  C2C       31.5170    5.5670   11.1580 C.ar  155  HEM155      0.0000
     28  C3C       31.7330    4.7190   12.2320 C.ar  155  HEM155      0.0000
     29  C4C       33.0050    4.0940   11.9910 C.ar  155  HEM155      0.0000
     30  CMC       30.3140    6.5070   10.8820 C.3   155  HEM155      0.0000
     31  CAC       31.0200    4.4890   13.4350 C.3   155  HEM155      0.0000
     32  CBC       29.8460    5.0900   13.9270 C.3   155  HEM155      0.0000
     33  ND        35.7300    2.8060   11.6550 N.2   155  HEM155      0.0000
     34  C1D       34.8140    2.5470   12.6920 C.2   155  HEM155      0.0000
     35  C2D       35.3670    1.6490   13.6920 C.2   155  HEM155      0.0000
     36  C3D       36.6450    1.4170   13.2740 C.2   155  HEM155      0.0000
     37  C4D       36.8450    2.1270   12.0120 C.2   155  HEM155      0.0000
     38  CMD       34.6060    1.0250   14.8720 C.3   155  HEM155      0.0000
     39  CAD       37.8120    0.8070   14.0070 C.3   155  HEM155      0.0000
     40  CBD       38.2950    1.5720   15.2300 C.3   155  HEM155      0.0000
     41  CGD       39.5730    0.9760   15.8090 C.2   155  HEM155      0.0000
     42  O1D       39.5240   -0.1200   16.4200 O.co2 155  HEM155      0.0000
     43  O2D       40.6440    1.5830   15.6370 O.co2 155  HEM155      0.0000
@<TRIPOS>BOND
     1    22    19    1
     2    24    23    1
     3    19    20    2
     4    19    18    1
     5    23    20    1
     6    20    21    1
     7    11     9    1
     8     3    18    1
     9     3    10    2
    10    18    17    2
    11    16    14   ar
    12    21    17    1
    13    21     4    2
    14     9    10   ar
    15     9     8   ar
    16    10     6   ar
    17    17     1    1
    18    14    13    1
    19    14    15   ar
    20     4    26    1
    21    13    12    1
    22     8    12    1
    23     8     7   ar
    24     6     7   ar
    25     6     1    1
    26     7     2    2
    27     1    25    1
    28     1    33    1
    29    26    25   ar
    30    26    27   ar
    31    25    29   ar
    32    30    27    1
    33    27    28   ar
    34     2    37    1
    35    33    37    2
    36    33    34    1
    37    29    28   ar
    38    29     5    1
    39    37    36    1
    40    28    31    1
    41    34     5    2
    42    34    35    1
    43    36    35    2
    44    36    39    1
    45    31    32    1
    46    35    38    1
    47    39    40    1
    48    40    41    1
    49    43    41   ar
    50    41    42   ar
