@<TRIPOS>MOLECULE
104m_HEM_A_1.pdb
 43 50 0 0 0
SMALL
GASTEIGER

@<TRIPOS>ATOM
      1 FE         14.7300   28.0390    4.7960 Fe    155  HEM155      0.0000
      2  CHA       15.9940   31.2440    5.0990 C.2   155  HEM155      0.0000
      3  CHB       13.9710   28.1190    8.1530 C.2   155  HEM155      0.0000
      4  CHC       13.5660   24.9250    4.5790 C.2   155  HEM155      0.0000
      5  CHD       15.5400   27.9950    1.5320 C.2   155  HEM155      0.0000
      6  NA        14.9000   29.4310    6.3240 N.2   155  HEM155      0.0000
      7  C1A       15.4670   30.7080    6.2480 C.2   155  HEM155      0.0000
      8  C2A       15.4840   31.3530    7.5470 C.2   155  HEM155      0.0000
      9  C3A       14.9140   30.4360    8.3730 C.2   155  HEM155      0.0000
     10  C4A       14.5670   29.2660    7.6360 C.2   155  HEM155      0.0000
     11  CMA       14.5880   30.6550    9.8320 C.3   155  HEM155      0.0000
     12  CAA       15.6950   32.7750    8.0520 C.3   155  HEM155      0.0000
     13  CBA       14.8120   33.9890    7.8450 C.3   155  HEM155      0.0000
     14  CGA       13.9570   33.9140    6.6010 C.2   155  HEM155      0.0000
     15  O1A       14.4790   34.1710    5.5060 O.co2 155  HEM155      0.0000
     16  O2A       12.7530   33.6030    6.7280 O.co2 155  HEM155      0.0000
     17  NB        13.8640   26.8380    6.0980 N.ar  155  HEM155      0.0000
     18  C1B       13.6340   26.9810    7.4390 C.ar  155  HEM155      0.0000
     19  C2B       13.0530   25.8050    8.0100 C.ar  155  HEM155      0.0000
     20  C3B       12.9310   24.8950    7.0020 C.ar  155  HEM155      0.0000
     21  C4B       13.4490   25.5570    5.8240 C.ar  155  HEM155      0.0000
     22  CMB       12.6180   25.6780    9.4710 C.3   155  HEM155      0.0000
     23  CAB       12.6010   23.5280    6.9940 C.3   155  HEM155      0.0000
     24  CBB       12.3850   22.5980    8.0600 C.3   155  HEM155      0.0000
     25  NC        14.5150   26.7360    3.3030 N.2   155  HEM155      0.0000
     26  C1C       14.0770   25.4390    3.4230 C.2   155  HEM155      0.0000
     27  C2C       14.2570   24.6950    2.2210 C.2   155  HEM155      0.0000
     28  C3C       14.8330   25.5750    1.3350 C.2   155  HEM155      0.0000
     29  C4C       14.9680   26.8470    2.0400 C.2   155  HEM155      0.0000
     30  CMC       13.8530   23.2450    2.0000 C.3   155  HEM155      0.0000
     31  CAC       15.2830   25.3620    0.0220 C.3   155  HEM155      0.0000
     32  CBC       15.2460   24.1500   -0.7320 C.3   155  HEM155      0.0000
     33  ND        15.5330   29.4070    3.5770 N.ar  155  HEM155      0.0000
     34  C1D       15.8090   29.1820    2.2210 C.ar  155  HEM155      0.0000
     35  C2D       16.5240   30.3340    1.6180 C.ar  155  HEM155      0.0000
     36  C3D       16.6930   31.2500    2.6270 C.ar  155  HEM155      0.0000
     37  C4D       16.0550   30.6570    3.8340 C.ar  155  HEM155      0.0000
     38  CMD       16.9010   30.4490    0.1410 C.3   155  HEM155      0.0000
     39  CAD       17.5510   32.5310    2.6650 C.3   155  HEM155      0.0000
     40  CBD       19.0580   32.3120    2.5280 C.3   155  HEM155      0.0000
     41  CGD       19.8570   33.5930    2.6570 C.2   155  HEM155      0.0000
     42  O1D       20.8090   33.7770    1.8830 O.co2 155  HEM155      0.0000
     43  O2D       19.5330   34.4310    3.5280 O.co2 155  HEM155      0.0000
@<TRIPOS>BOND
     1    32    31    1
     2    31    28    1
     3    38    35    1
     4    28    29    1
     5    28    27    2
     6     5    29    1
     7     5    34    2
     8    35    34   ar
     9    35    36   ar
    10    42    41   ar
    11    30    27    1
    12    29    25    2
    13    27    26    1
    14    34    33   ar
    15    40    41    1
    16    40    39    1
    17    36    39    1
    18    36    37   ar
    19    41    43   ar
    20    25    26    1
    21    25     1    1
    22    26     4    2
    23    33    37   ar
    24    33     1    1
    25    37     2    2
    26     4    21    1
    27     1    17    1
    28     1     6    1
    29     2     7    1
    30    15    14   ar
    31    21    17   ar
    32    21    20   ar
    33    17    18   ar
    34     7     6    2
    35     7     8    1
    36     6    10    1
    37    14    16   ar
    38    14    13    1
    39    23    20    1
    40    23    24    1
    41    20    19   ar
    42    18    19   ar
    43    18     3    1
    44     8    12    1
    45     8     9    2
    46    10     3    2
    47    10     9    1
    48    13    12    1
    49    19    22    1
    50     9    11    1
