@<TRIPOS>MOLECULE
105m_HEM_A_1.pdb
 43 50 0 0 0
SMALL
GASTEIGER

@<TRIPOS>ATOM
      1 FE         14.8030   28.2010    4.9800 Fe    155  HEM155      0.0000
      2  CHA       16.0590   31.2510    5.1910 C.2   155  HEM155      0.0000
      3  CHB       14.0260   28.1390    8.2570 C.2   155  HEM155      0.0000
      4  CHC       13.4570   24.9470    4.6860 C.2   155  HEM155      0.0000
      5  CHD       15.6440   28.0020    1.6600 C.2   155  HEM155      0.0000
      6  NA        14.9920   29.4690    6.4410 N.2   155  HEM155      0.0000
      7  C1A       15.5610   30.7050    6.3740 C.2   155  HEM155      0.0000
      8  C2A       15.6150   31.3300    7.6970 C.2   155  HEM155      0.0000
      9  C3A       15.0650   30.4310    8.5500 C.2   155  HEM155      0.0000
     10  C4A       14.6650   29.2750    7.7660 C.2   155  HEM155      0.0000
     11  CMA       14.8650   30.6490   10.0380 C.3   155  HEM155      0.0000
     12  CAA       15.9310   32.7490    8.1460 C.3   155  HEM155      0.0000
     13  CBA       15.1130   33.9890    7.7980 C.3   155  HEM155      0.0000
     14  CGA       14.0000   33.7300    6.7930 C.2   155  HEM155      0.0000
     15  O1A       14.1910   34.0580    5.6040 O.co2 155  HEM155      0.0000
     16  O2A       12.9300   33.2140    7.1900 O.co2 155  HEM155      0.0000
     17  NB        13.8360   26.8510    6.1780 N.ar  155  HEM155      0.0000
     18  C1B       13.6340   27.0160    7.5340 C.ar  155  HEM155      0.0000
     19  C2B       13.0170   25.8150    8.1040 C.ar  155  HEM155      0.0000
     20  C3B       12.8840   24.8910    7.1060 C.ar  155  HEM155      0.0000
     21  C4B       13.3810   25.5600    5.9180 C.ar  155  HEM155      0.0000
     22  CMB       12.5470   25.6740    9.5500 C.3   155  HEM155      0.0000
     23  CAB       12.6060   23.5180    7.1400 C.3   155  HEM155      0.0000
     24  CBB       12.4120   22.5770    8.2500 C.3   155  HEM155      0.0000
     25  NC        14.5370   26.7450    3.4490 N.2   155  HEM155      0.0000
     26  C1C       14.0000   25.4810    3.5390 C.2   155  HEM155      0.0000
     27  C2C       14.1270   24.7530    2.2790 C.2   155  HEM155      0.0000
     28  C3C       14.7890   25.6140    1.4110 C.2   155  HEM155      0.0000
     29  C4C       15.0150   26.8570    2.1550 C.2   155  HEM155      0.0000
     30  CMC       13.5900   23.3320    2.0660 C.3   155  HEM155      0.0000
     31  CAC       15.2850   25.3690    0.1410 C.3   155  HEM155      0.0000
     32  CBC       15.2110   24.1190   -0.5730 C.3   155  HEM155      0.0000
     33  ND        15.5890   29.4170    3.6700 N.ar  155  HEM155      0.0000
     34  C1D       15.9220   29.1820    2.3490 C.ar  155  HEM155      0.0000
     35  C2D       16.6370   30.2960    1.7970 C.ar  155  HEM155      0.0000
     36  C3D       16.7660   31.2080    2.7880 C.ar  155  HEM155      0.0000
     37  C4D       16.0870   30.6460    3.9390 C.ar  155  HEM155      0.0000
     38  CMD       17.1340   30.4530    0.3660 C.3   155  HEM155      0.0000
     39  CAD       17.7240   32.3980    2.8950 C.3   155  HEM155      0.0000
     40  CBD       19.1960   32.0330    2.9390 C.3   155  HEM155      0.0000
     41  CGD       20.0910   33.2570    2.9650 C.2   155  HEM155      0.0000
     42  O1D       20.4090   33.7750    1.8820 O.co2 155  HEM155      0.0000
     43  O2D       20.4670   33.7150    4.0630 O.co2 155  HEM155      0.0000
@<TRIPOS>BOND
     1    32    31    1
     2    31    28    1
     3    38    35    1
     4    28    29    1
     5    28    27    2
     6     5    29    1
     7     5    34    2
     8    35    34   ar
     9    35    36   ar
    10    42    41   ar
    11    30    27    1
    12    29    25    2
    13    27    26    1
    14    34    33   ar
    15    36    39    1
    16    36    37   ar
    17    39    40    1
    18    40    41    1
    19    41    43   ar
    20    25    26    1
    21    25     1    1
    22    26     4    2
    23    33    37   ar
    24    33     1    1
    25    37     2    2
    26     4    21    1
    27     1    17    1
    28     1     6    1
    29     2     7    1
    30    15    14   ar
    31    21    17   ar
    32    21    20   ar
    33    17    18   ar
    34     7     6    2
    35     7     8    1
    36     6    10    1
    37    14    16   ar
    38    14    13    1
    39    20    23    1
    40    20    19   ar
    41    23    24    1
    42    18    19   ar
    43    18     3    1
    44     8    12    1
    45     8     9    2
    46    10     3    2
    47    10     9    1
    48    13    12    1
    49    19    22    1
    50     9    11    1
