@<TRIPOS>MOLECULE
106m_HEM_A_1.pdb
 43 50 0 0 0
SMALL
GASTEIGER

@<TRIPOS>ATOM
      1 FE         35.3700    4.3720    9.9910 Fe    155  HEM155      0.0000
      2  CHA       37.8730    2.4960   11.2450 C.2   155  HEM155      0.0000
      3  CHB       37.2920    5.4100    7.4490 C.2   155  HEM155      0.0000
      4  CHC       32.7570    6.1180    8.8130 C.2   155  HEM155      0.0000
      5  CHD       33.4250    3.4690   12.7800 C.2   155  HEM155      0.0000
      6  NA        37.1800    4.0500    9.4540 N.ar  155  HEM155      0.0000
      7  C1A       38.1110    3.2460   10.0700 C.ar  155  HEM155      0.0000
      8  C2A       39.4400    3.3040    9.3890 C.ar  155  HEM155      0.0000
      9  C3A       39.2380    4.1280    8.3290 C.ar  155  HEM155      0.0000
     10  C4A       37.8480    4.5800    8.3840 C.ar  155  HEM155      0.0000
     11  CMA       40.2090    4.4400    7.1940 C.3   155  HEM155      0.0000
     12  CAA       40.7180    2.4590    9.4430 C.3   155  HEM155      0.0000
     13  CBA       40.8620    1.0250    8.9340 C.3   155  HEM155      0.0000
     14  CGA       39.5650    0.2350    8.8740 C.2   155  HEM155      0.0000
     15  O1A       39.1520   -0.3210    9.9080 O.co2 155  HEM155      0.0000
     16  O2A       38.9850    0.1260    7.7780 O.co2 155  HEM155      0.0000
     17  NB        35.0470    5.4900    8.4250 N.2   155  HEM155      0.0000
     18  C1B       35.9570    5.8420    7.4510 C.2   155  HEM155      0.0000
     19  C2B       35.3640    6.7310    6.4250 C.2   155  HEM155      0.0000
     20  C3B       34.0780    6.9050    6.8200 C.2   155  HEM155      0.0000
     21  C4B       33.9030    6.1330    8.0690 C.2   155  HEM155      0.0000
     22  CMB       36.0630    7.3040    5.1770 C.3   155  HEM155      0.0000
     23  CAB       33.0730    7.7740    6.3210 C.3   155  HEM155      0.0000
     24  CBB       33.1690    8.7860    5.3150 C.3   155  HEM155      0.0000
     25  NC        33.4070    4.6700   10.6130 N.ar  155  HEM155      0.0000
     26  C1C       32.5260    5.4680   10.0190 C.ar  155  HEM155      0.0000
     27  C2C       31.3400    5.6450   10.8350 C.ar  155  HEM155      0.0000
     28  C3C       31.5120    4.9120   11.9960 C.ar  155  HEM155      0.0000
     29  C4C       32.8300    4.2940   11.8240 C.ar  155  HEM155      0.0000
     30  CMC       30.1570    6.5240   10.4430 C.3   155  HEM155      0.0000
     31  CAC       30.7800    4.7840   13.2010 C.3   155  HEM155      0.0000
     32  CBC       29.5910    5.4750   13.5570 C.3   155  HEM155      0.0000
     33  ND        35.6100    3.1580   11.6900 N.2   155  HEM155      0.0000
     34  C1D       34.7140    2.9170   12.7210 C.2   155  HEM155      0.0000
     35  C2D       35.3060    2.0150   13.6970 C.2   155  HEM155      0.0000
     36  C3D       36.5750    1.7630   13.2510 C.2   155  HEM155      0.0000
     37  C4D       36.7290    2.4590   12.0000 C.2   155  HEM155      0.0000
     38  CMD       34.5900    1.3250   14.8670 C.3   155  HEM155      0.0000
     39  CAD       37.7450    1.1300   13.9520 C.3   155  HEM155      0.0000
     40  CBD       38.3080    1.8370   15.1820 C.3   155  HEM155      0.0000
     41  CGD       39.4970    1.0840   15.7760 C.2   155  HEM155      0.0000
     42  O1D       39.3380    0.4190   16.8170 O.co2 155  HEM155      0.0000
     43  O2D       40.5870    1.1220   15.1900 O.co2 155  HEM155      0.0000
@<TRIPOS>BOND
     1    22    19    1
     2    24    23    1
     3    23    20    1
     4    19    20    2
     5    19    18    1
     6    20    21    1
     7    11     9    1
     8     3    18    1
     9     3    10    2
    10    18    17    2
    11    16    14   ar
    12    21    17    1
    13    21     4    2
    14     9    10   ar
    15     9     8   ar
    16    10     6   ar
    17    17     1    1
    18     4    26    1
    19    14    13    1
    20    14    15   ar
    21    13    12    1
    22     8    12    1
    23     8     7   ar
    24     6     1    1
    25     6     7   ar
    26     1    25    1
    27     1    33    1
    28    26    25   ar
    29    26    27   ar
    30     7     2    2
    31    30    27    1
    32    25    29   ar
    33    27    28   ar
    34     2    37    1
    35    33    37    2
    36    33    34    1
    37    29    28   ar
    38    29     5    1
    39    28    31    1
    40    37    36    1
    41    34     5    2
    42    34    35    1
    43    31    32    1
    44    36    35    2
    45    36    39    1
    46    35    38    1
    47    39    40    1
    48    40    41    1
    49    43    41   ar
    50    41    42   ar
