@<TRIPOS>MOLECULE
107m_HEM_A_1.pdb
 43 50 0 0 0
SMALL
GASTEIGER

@<TRIPOS>ATOM
      1 FE         35.5130    4.3360   10.0000 Fe    155  HEM155      0.0000
      2  CHA       38.0820    2.4470   11.2700 C.2   155  HEM155      0.0000
      3  CHB       37.3770    5.3190    7.4380 C.2   155  HEM155      0.0000
      4  CHC       32.9310    6.0850    8.8150 C.2   155  HEM155      0.0000
      5  CHD       33.6520    3.3350   12.7030 C.2   155  HEM155      0.0000
      6  NA        37.3190    4.0000    9.5170 N.ar  155  HEM155      0.0000
      7  C1A       38.3020    3.1960   10.1130 C.ar  155  HEM155      0.0000
      8  C2A       39.5880    3.2350    9.3720 C.ar  155  HEM155      0.0000
      9  C3A       39.3570    4.0720    8.3480 C.ar  155  HEM155      0.0000
     10  C4A       37.9720    4.5270    8.4050 C.ar  155  HEM155      0.0000
     11  CMA       40.4030    4.4300    7.3250 C.3   155  HEM155      0.0000
     12  CAA       40.8700    2.3840    9.4330 C.3   155  HEM155      0.0000
     13  CBA       40.9770    0.8850    9.0990 C.3   155  HEM155      0.0000
     14  CGA       39.6210    0.1820    8.9540 C.2   155  HEM155      0.0000
     15  O1A       39.2040   -0.5360    9.8900 O.co2 155  HEM155      0.0000
     16  O2A       38.9700    0.3380    7.8970 O.co2 155  HEM155      0.0000
     17  NB        35.1570    5.4020    8.3500 N.2   155  HEM155      0.0000
     18  C1B       36.0560    5.7380    7.3950 C.2   155  HEM155      0.0000
     19  C2B       35.4790    6.6420    6.4070 C.2   155  HEM155      0.0000
     20  C3B       34.2090    6.8560    6.8070 C.2   155  HEM155      0.0000
     21  C4B       34.0490    6.0760    8.0230 C.2   155  HEM155      0.0000
     22  CMB       36.2160    7.2750    5.1980 C.3   155  HEM155      0.0000
     23  CAB       33.2050    7.7390    6.3560 C.3   155  HEM155      0.0000
     24  CBB       33.1530    8.7720    5.3530 C.3   155  HEM155      0.0000
     25  NC        33.6840    4.6370   10.6110 N.ar  155  HEM155      0.0000
     26  C1C       32.7510    5.4410   10.0190 C.ar  155  HEM155      0.0000
     27  C2C       31.5630    5.5410   10.8080 C.ar  155  HEM155      0.0000
     28  C3C       31.7540    4.7810   11.9310 C.ar  155  HEM155      0.0000
     29  C4C       33.0730    4.2020   11.7780 C.ar  155  HEM155      0.0000
     30  CMC       30.3380    6.3480   10.4240 C.3   155  HEM155      0.0000
     31  CAC       31.0240    4.6970   13.1410 C.3   155  HEM155      0.0000
     32  CBC       29.8750    5.4370   13.6010 C.3   155  HEM155      0.0000
     33  ND        35.8230    3.0830   11.6910 N.2   155  HEM155      0.0000
     34  C1D       34.9140    2.7970   12.6750 C.2   155  HEM155      0.0000
     35  C2D       35.4580    1.8840   13.6380 C.2   155  HEM155      0.0000
     36  C3D       36.7330    1.6420   13.2250 C.2   155  HEM155      0.0000
     37  C4D       36.9260    2.3980   11.9990 C.2   155  HEM155      0.0000
     38  CMD       34.7460    1.2220   14.8310 C.3   155  HEM155      0.0000
     39  CAD       37.9290    1.0140   13.9240 C.3   155  HEM155      0.0000
     40  CBD       38.5010    1.7260   15.1340 C.3   155  HEM155      0.0000
     41  CGD       39.6810    0.9810   15.7280 C.2   155  HEM155      0.0000
     42  O1D       39.4430    0.0220   16.4870 O.co2 155  HEM155      0.0000
     43  O2D       40.8420    1.3360   15.4330 O.co2 155  HEM155      0.0000
@<TRIPOS>BOND
     1    22    19    1
     2    24    23    1
     3    23    20    1
     4    19    20    2
     5    19    18    1
     6    20    21    1
     7    11     9    1
     8    18     3    1
     9    18    17    2
    10     3    10    2
    11    16    14   ar
    12    21    17    1
    13    21     4    2
    14     9    10   ar
    15     9     8   ar
    16    17     1    1
    17    10     6   ar
    18     4    26    1
    19    14    13    1
    20    14    15   ar
    21    13    12    1
    22     8    12    1
    23     8     7   ar
    24     6     1    1
    25     6     7   ar
    26     1    25    1
    27     1    33    1
    28    26    25   ar
    29    26    27   ar
    30     7     2    2
    31    30    27    1
    32    25    29   ar
    33    27    28   ar
    34     2    37    1
    35    33    37    2
    36    33    34    1
    37    29    28   ar
    38    29     5    1
    39    28    31    1
    40    37    36    1
    41    34     5    2
    42    34    35    1
    43    31    32    1
    44    36    35    2
    45    36    39    1
    46    35    38    1
    47    39    40    1
    48    40    41    1
    49    43    41   ar
    50    41    42   ar
