@<TRIPOS>MOLECULE
108m_HEM_A_1.pdb
 43 50 0 0 0
SMALL
GASTEIGER

@<TRIPOS>ATOM
      1 FE         35.5190    4.3780   10.0310 Fe    155  HEM155      0.0000
      2  CHA       37.9820    2.6190   11.1870 C.2   155  HEM155      0.0000
      3  CHB       37.3540    5.4710    7.3420 C.2   155  HEM155      0.0000
      4  CHC       32.9380    6.1400    8.8610 C.2   155  HEM155      0.0000
      5  CHD       33.5890    3.3350   12.7340 C.2   155  HEM155      0.0000
      6  NA        37.2530    4.1040    9.4790 N.ar  155  HEM155      0.0000
      7  C1A       38.1990    3.3010   10.0530 C.ar  155  HEM155      0.0000
      8  C2A       39.4390    3.2480    9.2890 C.ar  155  HEM155      0.0000
      9  C3A       39.2040    4.0530    8.2530 C.ar  155  HEM155      0.0000
     10  C4A       37.8830    4.6000    8.3310 C.ar  155  HEM155      0.0000
     11  CMA       40.1740    4.2910    7.1490 C.3   155  HEM155      0.0000
     12  CAA       40.7420    2.4130    9.3580 C.3   155  HEM155      0.0000
     13  CBA       40.7890    0.8950    9.2270 C.3   155  HEM155      0.0000
     14  CGA       39.4810    0.3160    8.6890 C.2   155  HEM155      0.0000
     15  O1A       38.6460   -0.1960    9.4840 O.co2 155  HEM155      0.0000
     16  O2A       39.2780    0.3870    7.4560 O.co2 155  HEM155      0.0000
     17  NB        35.1390    5.5750    8.3410 N.2   155  HEM155      0.0000
     18  C1B       36.0550    5.9460    7.3510 C.2   155  HEM155      0.0000
     19  C2B       35.4550    6.8750    6.4010 C.2   155  HEM155      0.0000
     20  C3B       34.1830    7.0650    6.8650 C.2   155  HEM155      0.0000
     21  C4B       34.0280    6.2290    8.0610 C.2   155  HEM155      0.0000
     22  CMB       36.1230    7.4540    5.1660 C.3   155  HEM155      0.0000
     23  CAB       33.1990    7.9590    6.4400 C.3   155  HEM155      0.0000
     24  CBB       33.2220    8.9400    5.4230 C.3   155  HEM155      0.0000
     25  NC        33.6780    4.6020   10.5900 N.ar  155  HEM155      0.0000
     26  C1C       32.7660    5.4260   10.0400 C.ar  155  HEM155      0.0000
     27  C2C       31.5410    5.5600   10.9430 C.ar  155  HEM155      0.0000
     28  C3C       31.7420    4.7850   12.0420 C.ar  155  HEM155      0.0000
     29  C4C       33.0610    4.1910   11.7830 C.ar  155  HEM155      0.0000
     30  CMC       30.3330    6.4510   10.7470 C.3   155  HEM155      0.0000
     31  CAC       31.0710    4.6060   13.2990 C.3   155  HEM155      0.0000
     32  CBC       29.9440    5.1640   13.9610 C.3   155  HEM155      0.0000
     33  ND        35.6980    3.1640   11.6370 N.2   155  HEM155      0.0000
     34  C1D       34.8270    2.8360   12.6710 C.2   155  HEM155      0.0000
     35  C2D       35.3880    1.9860   13.6840 C.2   155  HEM155      0.0000
     36  C3D       36.6690    1.8390   13.2390 C.2   155  HEM155      0.0000
     37  C4D       36.8350    2.5500   11.9610 C.2   155  HEM155      0.0000
     38  CMD       34.6470    1.3230   14.8700 C.3   155  HEM155      0.0000
     39  CAD       37.8560    1.2450   13.9470 C.3   155  HEM155      0.0000
     40  CBD       38.3020    1.9330   15.2130 C.3   155  HEM155      0.0000
     41  CGD       39.7270    1.5570   15.5840 C.2   155  HEM155      0.0000
     42  O1D       39.9740    0.3990   16.0150 O.co2 155  HEM155      0.0000
     43  O2D       40.6110    2.4230   15.4240 O.co2 155  HEM155      0.0000
@<TRIPOS>BOND
     1    22    19    1
     2    24    23    1
     3    19    20    2
     4    19    18    1
     5    23    20    1
     6    20    21    1
     7    11     9    1
     8     3    18    1
     9     3    10    2
    10    18    17    2
    11    16    14   ar
    12    21    17    1
    13    21     4    2
    14     9    10   ar
    15     9     8   ar
    16    10     6   ar
    17    17     1    1
    18    14    13    1
    19    14    15   ar
    20     4    26    1
    21    13    12    1
    22     8    12    1
    23     8     7   ar
    24     6     1    1
    25     6     7   ar
    26     1    25    1
    27     1    33    1
    28    26    25   ar
    29    26    27   ar
    30     7     2    2
    31    25    29   ar
    32    30    27    1
    33    27    28   ar
    34     2    37    1
    35    33    37    2
    36    33    34    1
    37    29    28   ar
    38    29     5    1
    39    37    36    1
    40    28    31    1
    41    34     5    2
    42    34    35    1
    43    36    35    2
    44    36    39    1
    45    31    32    1
    46    35    38    1
    47    39    40    1
    48    40    41    1
    49    43    41   ar
    50    41    42   ar
