@<TRIPOS>MOLECULE
109m_HEM_A_1.pdb
 43 50 0 0 0
SMALL
GASTEIGER

@<TRIPOS>ATOM
      1 FE         35.2130    4.2820   10.1720 Fe    155  HEM155      0.0000
      2  CHA       37.8010    2.4100   11.4310 C.2   155  HEM155      0.0000
      3  CHB       37.1490    5.3870    7.7900 C.2   155  HEM155      0.0000
      4  CHC       32.6490    6.1540    9.1660 C.2   155  HEM155      0.0000
      5  CHD       33.2810    3.1680   12.8430 C.2   155  HEM155      0.0000
      6  NA        37.0670    4.0040    9.7260 N.ar  155  HEM155      0.0000
      7  C1A       38.0170    3.1910   10.2980 C.ar  155  HEM155      0.0000
      8  C2A       39.3030    3.2440    9.5850 C.ar  155  HEM155      0.0000
      9  C3A       39.0700    4.0730    8.5860 C.ar  155  HEM155      0.0000
     10  C4A       37.7150    4.5460    8.6690 C.ar  155  HEM155      0.0000
     11  CMA       40.0360    4.3690    7.4630 C.3   155  HEM155      0.0000
     12  CAA       40.5720    2.3730    9.5720 C.3   155  HEM155      0.0000
     13  CBA       40.6760    0.9410    9.0430 C.3   155  HEM155      0.0000
     14  CGA       39.3720    0.1580    9.0880 C.2   155  HEM155      0.0000
     15  O1A       39.0470   -0.4560   10.1230 O.co2 155  HEM155      0.0000
     16  O2A       38.6740    0.1470    8.0620 O.co2 155  HEM155      0.0000
     17  NB        34.8990    5.4620    8.7150 N.2   155  HEM155      0.0000
     18  C1B       35.8250    5.8280    7.7960 C.2   155  HEM155      0.0000
     19  C2B       35.2760    6.7950    6.8180 C.2   155  HEM155      0.0000
     20  C3B       33.9940    7.0150    7.2130 C.2   155  HEM155      0.0000
     21  C4B       33.8010    6.1800    8.3880 C.2   155  HEM155      0.0000
     22  CMB       36.0020    7.2710    5.5310 C.3   155  HEM155      0.0000
     23  CAB       33.0480    7.9890    6.8100 C.3   155  HEM155      0.0000
     24  CBB       33.2130    9.1460    5.9330 C.3   155  HEM155      0.0000
     25  NC        33.2560    4.5280   10.8280 N.ar  155  HEM155      0.0000
     26  C1C       32.4160    5.4130   10.3170 C.ar  155  HEM155      0.0000
     27  C2C       31.2110    5.5560   11.1690 C.ar  155  HEM155      0.0000
     28  C3C       31.3680    4.6700   12.2370 C.ar  155  HEM155      0.0000
     29  C4C       32.6700    4.0500   11.9750 C.ar  155  HEM155      0.0000
     30  CMC       30.0370    6.5050   10.8900 C.3   155  HEM155      0.0000
     31  CAC       30.6390    4.5210   13.4430 C.3   155  HEM155      0.0000
     32  CBC       29.5510    5.3400   13.9320 C.3   155  HEM155      0.0000
     33  ND        35.5360    2.9690   11.8110 N.2   155  HEM155      0.0000
     34  C1D       34.6050    2.6600   12.7680 C.2   155  HEM155      0.0000
     35  C2D       35.1760    1.7540   13.7440 C.2   155  HEM155      0.0000
     36  C3D       36.4790    1.5180   13.3600 C.2   155  HEM155      0.0000
     37  C4D       36.6360    2.3110   12.1470 C.2   155  HEM155      0.0000
     38  CMD       34.4330    1.1460   14.9380 C.3   155  HEM155      0.0000
     39  CAD       37.6790    0.9640   14.0860 C.3   155  HEM155      0.0000
     40  CBD       38.1680    1.8460   15.2360 C.3   155  HEM155      0.0000
     41  CGD       39.4080    1.2710   15.9260 C.2   155  HEM155      0.0000
     42  O1D       39.3520    1.0290   17.1500 O.co2 155  HEM155      0.0000
     43  O2D       40.4390    1.0670   15.2540 O.co2 155  HEM155      0.0000
@<TRIPOS>BOND
     1    22    19    1
     2    24    23    1
     3    23    20    1
     4    19    20    2
     5    19    18    1
     6    20    21    1
     7    11     9    1
     8     3    18    1
     9     3    10    2
    10    18    17    2
    11    16    14   ar
    12    21    17    1
    13    21     4    2
    14     9    10   ar
    15     9     8   ar
    16    10     6   ar
    17    17     1    1
    18    13    14    1
    19    13    12    1
    20    14    15   ar
    21     4    26    1
    22    12     8    1
    23     8     7   ar
    24     6     1    1
    25     6     7   ar
    26     1    25    1
    27     1    33    1
    28     7     2    2
    29    26    25   ar
    30    26    27   ar
    31    25    29   ar
    32    30    27    1
    33    27    28   ar
    34     2    37    1
    35    33    37    2
    36    33    34    1
    37    29    28   ar
    38    29     5    1
    39    37    36    1
    40    28    31    1
    41    34     5    2
    42    34    35    1
    43    36    35    2
    44    36    39    1
    45    31    32    1
    46    35    38    1
    47    39    40    1
    48    40    41    1
    49    43    41   ar
    50    41    42   ar
