@<TRIPOS>MOLECULE
10gs_VWW_A_1.pdb
 33 34 0 0 0
SMALL
GASTEIGER

@<TRIPOS>ATOM
      1  N         15.0880   10.7980   23.5470 N.3   210  VWW210     -0.1208
      2  CA        15.0100    9.9870   24.7920 C.3   210  VWW210      0.1948
      3  C         16.1150    8.9240   24.8300 C.2   210  VWW210      0.3819
      4  O         16.5200    8.5150   25.9400 O.co2 210  VWW210     -0.2441
      5  CB        13.6350    9.3270   24.9080 C.3   210  VWW210      0.0402
      6  CG        13.3940    8.7080   26.2710 C.3   210  VWW210      0.0889
      7  CD        12.0450    8.0460   26.4020 C.2   210  VWW210      0.2418
      8  OE1       11.2930    7.9360   25.4350 O.2   210  VWW210     -0.2733
      9  OXT       16.5780    8.5240   23.7440 O.co2 210  VWW210     -0.2441
     10  N1        11.7260    7.6420   27.6280 N.am  210  VWW210     -0.1969
     11  CA1       10.4720    6.9670   27.9340 C.3   210  VWW210      0.1834
     12  CB1       10.7260    5.4840   28.2060 C.3   210  VWW210      0.0889
     13  SG        11.2910    4.5240   26.8100 S.3   210  VWW210     -0.1331
     14  CD1        9.7290    3.8040   26.2620 C.3   210  VWW210      0.0838
     15  CE         8.9300    3.1710   27.3700 C.ar  210  VWW210     -0.0113
     16  CZ1        7.6400    3.6140   27.6500 C.ar  210  VWW210     -0.0034
     17  CZ2        9.4640    2.1350   28.1330 C.ar  210  VWW210     -0.0034
     18  CT1        6.8930    3.0370   28.6730 C.ar  210  VWW210     -0.0003
     19  CT2        8.7230    1.5500   29.1610 C.ar  210  VWW210     -0.0003
     20  CH         7.4370    2.0010   29.4300 C.ar  210  VWW210     -0.0000
     21  C1         9.8340    7.5500   29.1800 C.2   210  VWW210      0.2629
     22  O1        10.5220    8.0230   30.0840 O.2   210  VWW210     -0.2714
     23  N2         8.5120    7.4680   29.2290 N.am  210  VWW210     -0.1895
     24  CA2        7.7400    7.9330   30.3660 C.3   210  VWW210      0.2200
     25  CB2        6.5550    7.0620   30.6330 C.ar  210  VWW210      0.0083
     26  CG1        5.3300    7.3150   30.0270 C.ar  210  VWW210     -0.0021
     27 CD11        4.2500    6.4590   30.2200 C.ar  210  VWW210     -0.0003
     28  CE1        4.3920    5.3390   31.0270 C.ar  210  VWW210     -0.0000
     29  CD2        5.6110    5.0810   31.6400 C.ar  210  VWW210     -0.0003
     30  CG2        6.6830    5.9410   31.4410 C.ar  210  VWW210     -0.0021
     31  C2         7.4520    9.4330   30.3540 C.2   210  VWW210      0.3884
     32  O2         7.1160    9.9570   31.4330 O.co2 210  VWW210     -0.2434
     33 OXT1        7.5690   10.0680   29.2840 O.co2 210  VWW210     -0.2434
@<TRIPOS>BOND
     1     1     2    1
     2     9     3   ar
     3     2     3    1
     4     2     5    1
     5     3     4   ar
     6     5     6    1
     7     8     7    2
     8    14    13    1
     9    14    15    1
    10     6     7    1
    11     7    10   am
    12    13    12    1
    13    15    16   ar
    14    15    17   ar
    15    10    11    1
    16    16    18   ar
    17    11    12    1
    18    11    21    1
    19    17    19   ar
    20    18    20   ar
    21    19    20   ar
    22    21    23   am
    23    21    22    2
    24    23    24    1
    25    33    31   ar
    26    26    27   ar
    27    26    25   ar
    28    27    28   ar
    29    31    24    1
    30    31    32   ar
    31    24    25    1
    32    25    30   ar
    33    28    29   ar
    34    30    29   ar
