@<TRIPOS>MOLECULE
10mh_SAH_A_1.pdb
 26 28 0 0 0
SMALL
GASTEIGER

@<TRIPOS>ATOM
      1  N        -18.1870   32.4170   82.3710 N.3   328  SAH328     -0.1208
      2  CA       -18.8440   31.5450   83.3080 C.3   328  SAH328      0.1952
      3  CB       -18.8230   32.1670   84.7070 C.3   328  SAH328      0.0422
      4  CG       -17.5020   31.9720   85.4500 C.3   328  SAH328      0.0597
      5  SD       -17.0890   33.2350   86.6900 S.3   328  SAH328     -0.1375
      6  C        -20.2740   31.3600   82.8550 C.2   328  SAH328      0.3819
      7  O        -20.6300   31.2850   81.6090 O.co2 328  SAH328     -0.2441
      8  OXT      -20.9860   30.7500   83.7250 O.co2 328  SAH328     -0.2441
      9  C5'      -15.5980   32.4610   87.3790 C.3   328  SAH328      0.0899
     10  C4'      -15.6540   31.0200   88.0780 C.3   328  SAH328      0.1630
     11  O4'      -14.3850   30.6720   88.6220 O.3   328  SAH328     -0.3153
     12  C3'      -16.5190   30.8740   89.3680 C.3   328  SAH328      0.2168
     13  O3'      -17.6100   30.0520   89.0670 O.3   328  SAH328     -0.2175
     14  C2'      -15.6030   30.1810   90.3950 C.3   328  SAH328      0.2569
     15  O2'      -16.4250   29.2710   91.0820 O.3   328  SAH328     -0.2130
     16  C1'      -14.6310   29.5390   89.4400 C.3   328  SAH328      0.3185
     17  N9       -13.3030   29.2520   89.9390 N.pl3 328  SAH328     -0.1439
     18  C8       -12.5480   30.1690   90.6450 C.3   328  SAH328      0.3377
     19  N7       -11.3630   29.7020   90.9750 N.2   328  SAH328     -0.2095
     20  C5       -11.3390   28.4140   90.4580 C.2   328  SAH328      0.2526
     21  C6       -10.3590   27.4470   90.5040 C.2   328  SAH328      0.4393
     22  N6        -9.2860   27.6820   91.2240 N.pl3 328  SAH328      0.2180
     23  N1       -10.5440   26.2610   89.9160 N.2   328  SAH328      0.0021
     24  C2       -11.7140   26.0490   89.3090 C.3   328  SAH328      0.5254
     25  N3       -12.7480   26.8860   89.2150 N.2   328  SAH328     -0.0055
     26  C4       -12.5010   28.0980   89.8180 C.2   328  SAH328      0.3518
@<TRIPOS>BOND
     1     7     6   ar
     2     1     2    1
     3     6     2    1
     4     6     8   ar
     5     2     3    1
     6     3     4    1
     7     4     5    1
     8     5     9    1
     9     9    10    1
    10    10    11    1
    11    10    12    1
    12    11    16    1
    13    13    12    1
    14    25    24    1
    15    25    26    2
    16    24    23    1
    17    12    14    1
    18    16    17    1
    19    16    14    1
    20    26    17    1
    21    26    20    1
    22    23    21    2
    23    17    18    1
    24    14    15    1
    25    20    21    1
    26    20    19    2
    27    21    22    1
    28    18    19    1
