@<TRIPOS>MOLECULE
110m_HEM_A_1.pdb
 43 50 0 0 0
SMALL
GASTEIGER

@<TRIPOS>ATOM
      1 FE         35.1610    4.2820   10.2210 Fe    155  HEM155      0.0000
      2  CHA       37.8020    2.4430   11.4490 C.2   155  HEM155      0.0000
      3  CHB       37.0600    5.3880    7.7110 C.2   155  HEM155      0.0000
      4  CHC       32.5810    6.1630    9.1360 C.2   155  HEM155      0.0000
      5  CHD       33.2260    3.2040   12.8350 C.2   155  HEM155      0.0000
      6  NA        37.0230    4.0120    9.7200 N.ar  155  HEM155      0.0000
      7  C1A       37.9970    3.2300   10.3060 C.ar  155  HEM155      0.0000
      8  C2A       39.2710    3.2960    9.5900 C.ar  155  HEM155      0.0000
      9  C3A       39.0050    4.1090    8.5330 C.ar  155  HEM155      0.0000
     10  C4A       37.6360    4.5460    8.6280 C.ar  155  HEM155      0.0000
     11  CMA       39.9340    4.3930    7.3560 C.3   155  HEM155      0.0000
     12  CAA       40.5400    2.4430    9.5920 C.3   155  HEM155      0.0000
     13  CBA       40.6720    0.9940    9.0760 C.3   155  HEM155      0.0000
     14  CGA       39.3560    0.2250    9.0150 C.2   155  HEM155      0.0000
     15  O1A       38.9170   -0.3150   10.0440 O.co2 155  HEM155      0.0000
     16  O2A       38.7710    0.1460    7.9230 O.co2 155  HEM155      0.0000
     17  NB        34.8480    5.4970    8.6940 N.2   155  HEM155      0.0000
     18  C1B       35.7670    5.8490    7.7260 C.2   155  HEM155      0.0000
     19  C2B       35.2160    6.7840    6.7710 C.2   155  HEM155      0.0000
     20  C3B       33.9130    7.0080    7.1730 C.2   155  HEM155      0.0000
     21  C4B       33.7210    6.1980    8.3760 C.2   155  HEM155      0.0000
     22  CMB       35.9420    7.3570    5.5290 C.3   155  HEM155      0.0000
     23  CAB       32.9760    7.9650    6.7580 C.3   155  HEM155      0.0000
     24  CBB       33.1190    9.0920    5.8790 C.3   155  HEM155      0.0000
     25  NC        33.1810    4.5190   10.8110 N.ar  155  HEM155      0.0000
     26  C1C       32.3320    5.4210   10.2840 C.ar  155  HEM155      0.0000
     27  C2C       31.1510    5.5460   11.1130 C.ar  155  HEM155      0.0000
     28  C3C       31.2830    4.6910   12.1930 C.ar  155  HEM155      0.0000
     29  C4C       32.5970    4.0660   11.9510 C.ar  155  HEM155      0.0000
     30  CMC       30.0140    6.4940   10.8010 C.3   155  HEM155      0.0000
     31  CAC       30.5730    4.5260   13.4180 C.3   155  HEM155      0.0000
     32  CBC       29.4750    5.2540   13.9970 C.3   155  HEM155      0.0000
     33  ND        35.4620    2.9920   11.7550 N.2   155  HEM155      0.0000
     34  C1D       34.5270    2.7000   12.7550 C.2   155  HEM155      0.0000
     35  C2D       35.1190    1.8120   13.7520 C.2   155  HEM155      0.0000
     36  C3D       36.4090    1.5970   13.3700 C.2   155  HEM155      0.0000
     37  C4D       36.5980    2.3380   12.1350 C.2   155  HEM155      0.0000
     38  CMD       34.3850    1.1420   14.9200 C.3   155  HEM155      0.0000
     39  CAD       37.6220    1.0680   14.1160 C.3   155  HEM155      0.0000
     40  CBD       38.1080    1.9640   15.2500 C.3   155  HEM155      0.0000
     41  CGD       39.3000    1.3700   15.9770 C.2   155  HEM155      0.0000
     42  O1D       39.1990    1.1440   17.2010 O.co2 155  HEM155      0.0000
     43  O2D       40.3330    1.1000   15.3370 O.co2 155  HEM155      0.0000
@<TRIPOS>BOND
     1    22    19    1
     2    24    23    1
     3    23    20    1
     4    19    20    2
     5    19    18    1
     6    20    21    1
     7    11     9    1
     8     3    18    1
     9     3    10    2
    10    18    17    2
    11    16    14   ar
    12    21    17    1
    13    21     4    2
    14     9    10   ar
    15     9     8   ar
    16    10     6   ar
    17    17     1    1
    18    14    13    1
    19    14    15   ar
    20    13    12    1
    21     4    26    1
    22     8    12    1
    23     8     7   ar
    24     6     1    1
    25     6     7   ar
    26     1    25    1
    27     1    33    1
    28    26    25   ar
    29    26    27   ar
    30     7     2    2
    31    30    27    1
    32    25    29   ar
    33    27    28   ar
    34     2    37    1
    35    33    37    2
    36    33    34    1
    37    29    28   ar
    38    29     5    1
    39    37    36    1
    40    28    31    1
    41    34     5    2
    42    34    35    1
    43    36    35    2
    44    36    39    1
    45    31    32    1
    46    35    38    1
    47    39    40    1
    48    40    41    1
    49    43    41   ar
    50    41    42   ar
