@<TRIPOS>MOLECULE
111m_HEM_A_1.pdb
 43 50 0 0 0
SMALL
GASTEIGER

@<TRIPOS>ATOM
      1 FE         35.3450    4.2050   10.0490 Fe    155  HEM155      0.0000
      2  CHA       37.9400    2.3090   11.3190 C.2   155  HEM155      0.0000
      3  CHB       37.1610    5.3050    7.6470 C.2   155  HEM155      0.0000
      4  CHC       32.7400    6.0510    9.0220 C.2   155  HEM155      0.0000
      5  CHD       33.4570    3.1880   12.8370 C.2   155  HEM155      0.0000
      6  NA        37.1570    3.8820    9.6210 N.ar  155  HEM155      0.0000
      7  C1A       38.1510    3.0700   10.1680 C.ar  155  HEM155      0.0000
      8  C2A       39.4220    3.1580    9.3920 C.ar  155  HEM155      0.0000
      9  C3A       39.1480    4.0030    8.3680 C.ar  155  HEM155      0.0000
     10  C4A       37.7660    4.4480    8.5200 C.ar  155  HEM155      0.0000
     11  CMA       40.0880    4.3280    7.2290 C.3   155  HEM155      0.0000
     12  CAA       40.7590    2.4060    9.4010 C.3   155  HEM155      0.0000
     13  CBA       40.9660    0.9530    9.0490 C.3   155  HEM155      0.0000
     14  CGA       39.6660    0.1990    8.8660 C.2   155  HEM155      0.0000
     15  O1A       39.1810   -0.4220    9.8400 O.co2 155  HEM155      0.0000
     16  O2A       39.1220    0.2210    7.7460 O.co2 155  HEM155      0.0000
     17  NB        34.9550    5.3980    8.5870 N.2   155  HEM155      0.0000
     18  C1B       35.8780    5.7560    7.6620 C.2   155  HEM155      0.0000
     19  C2B       35.3390    6.6950    6.7060 C.2   155  HEM155      0.0000
     20  C3B       34.0530    6.9210    7.0760 C.2   155  HEM155      0.0000
     21  C4B       33.8580    6.0880    8.2550 C.2   155  HEM155      0.0000
     22  CMB       36.1250    7.2540    5.4950 C.3   155  HEM155      0.0000
     23  CAB       33.1640    7.9320    6.7150 C.3   155  HEM155      0.0000
     24  CBB       33.3940    9.1080    5.9230 C.3   155  HEM155      0.0000
     25  NC        33.4540    4.4950   10.7290 N.ar  155  HEM155      0.0000
     26  C1C       32.5490    5.3410   10.1930 C.ar  155  HEM155      0.0000
     27  C2C       31.3700    5.4630   11.0550 C.ar  155  HEM155      0.0000
     28  C3C       31.5750    4.6530   12.1660 C.ar  155  HEM155      0.0000
     29  C4C       32.8700    4.0520   11.9340 C.ar  155  HEM155      0.0000
     30  CMC       30.1810    6.3620   10.7160 C.3   155  HEM155      0.0000
     31  CAC       30.8910    4.5040   13.3860 C.3   155  HEM155      0.0000
     32  CBC       29.7430    5.2520   13.8440 C.3   155  HEM155      0.0000
     33  ND        35.6260    2.8930   11.7270 N.2   155  HEM155      0.0000
     34  C1D       34.7260    2.6370   12.7600 C.2   155  HEM155      0.0000
     35  C2D       35.2940    1.7930   13.7540 C.2   155  HEM155      0.0000
     36  C3D       36.5720    1.5640   13.3180 C.2   155  HEM155      0.0000
     37  C4D       36.7520    2.2480   12.0590 C.2   155  HEM155      0.0000
     38  CMD       34.5720    1.1890   14.9660 C.3   155  HEM155      0.0000
     39  CAD       37.7720    1.0000   14.0190 C.3   155  HEM155      0.0000
     40  CBD       38.2890    1.8320   15.1840 C.3   155  HEM155      0.0000
     41  CGD       39.4810    1.1810   15.8470 C.2   155  HEM155      0.0000
     42  O1D       39.2730    0.3430   16.7490 O.co2 155  HEM155      0.0000
     43  O2D       40.6260    1.4620   15.4430 O.co2 155  HEM155      0.0000
@<TRIPOS>BOND
     1    22    19    1
     2    24    23    1
     3    19    20    2
     4    19    18    1
     5    23    20    1
     6    20    21    1
     7    11     9    1
     8     3    18    1
     9     3    10    2
    10    18    17    2
    11    16    14   ar
    12    21    17    1
    13    21     4    2
    14     9    10   ar
    15     9     8   ar
    16    10     6   ar
    17    17     1    1
    18    14    13    1
    19    14    15   ar
    20     4    26    1
    21    13    12    1
    22     8    12    1
    23     8     7   ar
    24     6     1    1
    25     6     7   ar
    26     1    25    1
    27     1    33    1
    28     7     2    2
    29    26    25   ar
    30    26    27   ar
    31    30    27    1
    32    25    29   ar
    33    27    28   ar
    34     2    37    1
    35    33    37    2
    36    33    34    1
    37    29    28   ar
    38    29     5    1
    39    37    36    1
    40    28    31    1
    41    34     5    2
    42    34    35    1
    43    36    35    2
    44    36    39    1
    45    31    32    1
    46    35    38    1
    47    39    40    1
    48    40    41    1
    49    43    41   ar
    50    41    42   ar
