@<TRIPOS>MOLECULE
112m_HEM_A_1.pdb
 43 50 0 0 0
SMALL
GASTEIGER

@<TRIPOS>ATOM
      1 FE         35.3300    4.2110   10.1930 Fe    155  HEM155      0.0000
      2  CHA       37.9300    2.3390   11.3050 C.2   155  HEM155      0.0000
      3  CHB       37.2140    5.2970    7.6310 C.2   155  HEM155      0.0000
      4  CHC       32.7210    6.1620    9.0480 C.2   155  HEM155      0.0000
      5  CHD       33.4380    3.0930   12.7480 C.2   155  HEM155      0.0000
      6  NA        37.2040    3.9280    9.6280 N.ar  155  HEM155      0.0000
      7  C1A       38.1590    3.1080   10.1820 C.ar  155  HEM155      0.0000
      8  C2A       39.4170    3.1310    9.4150 C.ar  155  HEM155      0.0000
      9  C3A       39.1800    3.9720    8.3960 C.ar  155  HEM155      0.0000
     10  C4A       37.8160    4.4540    8.5310 C.ar  155  HEM155      0.0000
     11  CMA       40.1700    4.3100    7.2940 C.3   155  HEM155      0.0000
     12  CAA       40.7120    2.3060    9.5060 C.3   155  HEM155      0.0000
     13  CBA       40.7590    0.7920    9.2560 C.3   155  HEM155      0.0000
     14  CGA       39.3860    0.1580    9.1190 C.2   155  HEM155      0.0000
     15  O1A       38.8750   -0.3780   10.1210 O.co2 155  HEM155      0.0000
     16  O2A       38.8180    0.1930    8.0080 O.co2 155  HEM155      0.0000
     17  NB        34.9820    5.4480    8.6020 N.2   155  HEM155      0.0000
     18  C1B       35.9200    5.7610    7.6450 C.2   155  HEM155      0.0000
     19  C2B       35.4060    6.7100    6.6710 C.2   155  HEM155      0.0000
     20  C3B       34.1690    7.0340    7.0580 C.2   155  HEM155      0.0000
     21  C4B       33.8780    6.2110    8.2780 C.2   155  HEM155      0.0000
     22  CMB       36.0600    7.2370    5.3910 C.3   155  HEM155      0.0000
     23  CAB       33.5980    8.1010    6.3720 C.3   155  HEM155      0.0000
     24  CBB       32.3700    8.7860    6.4560 C.3   155  HEM155      0.0000
     25  NC        33.4090    4.4770   10.7050 N.ar  155  HEM155      0.0000
     26  C1C       32.4970    5.3810   10.1880 C.ar  155  HEM155      0.0000
     27  C2C       31.3070    5.4580   11.0630 C.ar  155  HEM155      0.0000
     28  C3C       31.5270    4.5980   12.1290 C.ar  155  HEM155      0.0000
     29  C4C       32.8330    3.9940   11.8690 C.ar  155  HEM155      0.0000
     30  CMC       30.0720    6.3230   10.8080 C.3   155  HEM155      0.0000
     31  CAC       30.8650    4.4320   13.3650 C.3   155  HEM155      0.0000
     32  CBC       29.7430    5.1640   13.9450 C.3   155  HEM155      0.0000
     33  ND        35.6080    2.8820   11.6730 N.2   155  HEM155      0.0000
     34  C1D       34.7130    2.5620   12.6700 C.2   155  HEM155      0.0000
     35  C2D       35.2980    1.6720   13.6380 C.2   155  HEM155      0.0000
     36  C3D       36.5750    1.4960   13.2310 C.2   155  HEM155      0.0000
     37  C4D       36.7470    2.2360   12.0150 C.2   155  HEM155      0.0000
     38  CMD       34.5940    1.0300   14.8350 C.3   155  HEM155      0.0000
     39  CAD       37.7410    0.8690   13.9620 C.3   155  HEM155      0.0000
     40  CBD       38.1780    1.5520   15.2430 C.3   155  HEM155      0.0000
     41  CGD       39.3740    0.8680   15.8790 C.2   155  HEM155      0.0000
     42  O1D       39.1810    0.1380   16.8770 O.co2 155  HEM155      0.0000
     43  O2D       40.5050    1.0520   15.3760 O.co2 155  HEM155      0.0000
@<TRIPOS>BOND
     1    22    19    1
     2    23    24    1
     3    23    20    1
     4    19    20    2
     5    19    18    1
     6    20    21    1
     7    11     9    1
     8     3    18    1
     9     3    10    2
    10    18    17    2
    11    16    14   ar
    12    21    17    1
    13    21     4    2
    14     9    10   ar
    15     9     8   ar
    16    10     6   ar
    17    17     1    1
    18     4    26    1
    19    14    13    1
    20    14    15   ar
    21    13    12    1
    22     8    12    1
    23     8     7   ar
    24     6     7   ar
    25     6     1    1
    26     7     2    2
    27    26    25   ar
    28    26    27   ar
    29     1    25    1
    30     1    33    1
    31    25    29   ar
    32    30    27    1
    33    27    28   ar
    34     2    37    1
    35    33    37    2
    36    33    34    1
    37    29    28   ar
    38    29     5    1
    39    37    36    1
    40    28    31    1
    41    34     5    2
    42    34    35    1
    43    36    35    2
    44    36    39    1
    45    31    32    1
    46    35    38    1
    47    39    40    1
    48    40    41    1
    49    43    41   ar
    50    41    42   ar
