@<TRIPOS>MOLECULE
11ba_UPA_A_1.pdb
 39 43 0 0 0
SMALL
GASTEIGER

@<TRIPOS>ATOM
      1  N1U      -14.0540   14.9860    5.1290 N.am  125  UPA125     -0.1767
      2  C2U      -14.5000   14.0150    5.9840 C.1   125  UPA125      0.2845
      3  O2U      -14.2770   12.8110    5.8450 O.2   125  UPA125     -0.1918
      4  N3U      -15.2480   14.4670    7.0310 N.2   125  UPA125     -0.2452
      5  O4U      -16.3590   16.0080    8.2640 O.2   125  UPA125     -0.2085
      6  C4U      -15.6720   15.7470    7.2650 C.1   125  UPA125      0.2182
      7  C5U      -15.1510   16.6860    6.3240 C.2   125  UPA125      0.1242
      8  C6U      -14.4060   16.2880    5.3000 C.2   125  UPA125      0.0929
      9  C5D      -11.9020   17.7130    2.4170 C.3   125  UPA125      0.2142
     10  O5D      -12.6950   18.4870    3.3490 O.3   125  UPA125     -0.2176
     11  C4D      -12.1840   16.2290    2.5370 C.3   125  UPA125      0.1828
     12  O4D      -12.2320   15.7350    3.8930 O.3   125  UPA125     -0.3319
     13  C3D      -13.5310   15.8770    1.9990 C.3   125  UPA125      0.2131
     14  O3D      -13.4430   15.7580    0.5810 O.3   125  UPA125     -0.2176
     15  C2D      -13.7030   14.5080    2.6210 C.3   125  UPA125      0.2019
     16  O2D      -13.0030   13.5570    1.9120 O.3   125  UPA125     -0.3095
     17  C1D      -13.1350   14.5860    4.0120 C.3   125  UPA125      0.2372
     18  P        -13.5380   12.4740    0.9450 P.3   125  UPA125      0.2142
     19  O1P      -13.0160   11.1410    1.3810 O.3   125  UPA125     -0.4373
     20  O2P      -15.0260   12.6710    0.9800 O.2   125  UPA125     -0.5172
     21  O5B      -13.0940   12.9820   -0.4450 O.3   125  UPA125     -0.3114
     22  C5B      -13.0840   12.2060   -1.6110 C.3   125  UPA125      0.1813
     23  C4B      -13.2370   13.0690   -2.7780 C.3   125  UPA125      0.1821
     24  O4B      -14.6000   13.5510   -2.8850 O.3   125  UPA125     -0.3135
     25  C3B      -12.3390   14.3440   -2.7070 C.3   125  UPA125      0.2184
     26  O3B      -11.4550   14.2160   -3.8450 O.3   125  UPA125     -0.2174
     27  C2B      -13.3140   15.4690   -3.2000 C.3   125  UPA125      0.2570
     28  O2B      -12.7520   16.0660   -4.4120 O.3   125  UPA125     -0.2130
     29  C1B      -14.5240   14.6480   -3.7330 C.3   125  UPA125      0.3186
     30  N9A      -15.7700   15.4300   -3.7000 N.pl3 125  UPA125     -0.1439
     31  C8A      -16.0890   16.5730   -2.9730 C.3   125  UPA125      0.3377
     32  N7A      -17.2620   17.0430   -3.1980 N.2   125  UPA125     -0.2095
     33  C6A      -19.0590   16.0420   -4.7720 C.2   125  UPA125      0.4393
     34  N6A      -20.0280   16.9270   -4.5180 N.pl3 125  UPA125      0.2180
     35  C5A      -17.7910   16.1290   -4.1400 C.2   125  UPA125      0.2526
     36  C4A      -16.8800   15.1320   -4.4570 C.2   125  UPA125      0.3518
     37  N3A      -17.0500   14.0870   -5.3170 N.2   125  UPA125     -0.0055
     38  C2A      -18.2340   14.1350   -5.8630 C.3   125  UPA125      0.5254
     39  N1A      -19.2050   15.0420   -5.6590 N.2   125  UPA125      0.0021
@<TRIPOS>BOND
     1    38    39    1
     2    38    37    1
     3    39    33    2
     4    37    36    2
     5    33    34    1
     6    33    35    1
     7    36    35    1
     8    36    30    1
     9    28    27    1
    10    35    32    2
    11    26    25    1
    12    29    30    1
    13    29    27    1
    14    29    24    1
    15    30    31    1
    16    27    25    1
    17    32    31    1
    18    24    23    1
    19    23    25    1
    20    23    22    1
    21    22    21    1
    22    21    18    1
    23    14    13    1
    24    18    20    2
    25    18    19    1
    26    18    16    1
    27    16    15    1
    28    13    11    1
    29    13    15    1
    30     9    11    1
    31     9    10    1
    32    11    12    1
    33    15    17    1
    34    12    17    1
    35    17     1    1
    36     1     8    1
    37     1     2   am
    38     8     7    2
    39     3     2    2
    40     2     4    2
    41     7     6    1
    42     4     6    2
    43     6     5    2
