@<TRIPOS>MOLECULE
11bg_U2G_A_1.pdb
 33 36 0 0 0
SMALL
GASTEIGER

@<TRIPOS>ATOM
      1  N1G        7.8740   52.8980   71.6960 N.2   130  U2G130     -0.2485
      2  C2G        6.9930   53.8560   72.0880 C.1   130  U2G130      0.2531
      3  N2G        6.9790   54.1730   73.3820 N.pl3 130  U2G130     -0.0226
      4  N3G        6.1800   54.4600   71.2670 N.2   130  U2G130     -0.3074
      5  C4G        6.3320   54.0260   69.9950 C.2   130  U2G130      0.2300
      6  C5G        7.1840   53.0680   69.5090 C.2   130  U2G130      0.2182
      7  C6G        8.0190   52.4200   70.3890 C.1   130  U2G130      0.2372
      8  O6G        8.8000   51.5130   70.1430 O.2   130  U2G130     -0.2069
      9  N7G        7.0310   52.9080   68.1460 N.2   130  U2G130     -0.2322
     10  C8G        6.0900   53.7530   67.8320 C.3   130  U2G130      0.2246
     11  N9G        5.6170   54.4600   68.9110 N.pl3 130  U2G130     -0.2354
     12  C1B        4.5520   55.4710   68.9520 C.3   130  U2G130      0.2293
     13  C2B        5.0360   56.9280   68.9490 C.3   130  U2G130      0.2310
     14  O2B        4.1980   57.6930   69.8130 O.3   130  U2G130     -0.2158
     15  C3B        4.8610   57.2960   67.4800 C.3   130  U2G130      0.2158
     16  O3B        4.6600   58.6830   67.2710 O.3   130  U2G130     -0.2175
     17  C4B        3.5910   56.5560   67.1060 C.3   130  U2G130      0.1799
     18  O4B        3.6770   55.3040   67.8450 O.3   130  U2G130     -0.3326
     19  C5B        3.4740   56.2930   65.6200 C.3   130  U2G130      0.1813
     20  O5B        4.6510   55.5950   65.1440 O.3   130  U2G130     -0.3114
     21  P          5.8330   56.3450   64.3580 P.3   130  U2G130      0.2142
     22  O1P        6.9130   55.3250   64.1310 O.2   130  U2G130     -0.5172
     23  O2P        6.1530   57.6470   65.0430 O.3   130  U2G130     -0.4373
     24  O5D        3.3340   53.8300   57.9000 O.3   130  U2G130     -0.2176
     25  C5D        4.0350   53.6070   59.1670 C.3   130  U2G130      0.2142
     26  C4D        4.2720   54.9210   59.9270 C.3   130  U2G130      0.1825
     27  O4D        3.0140   55.5720   60.3040 O.3   130  U2G130     -0.3335
     28  C3D        5.0150   54.6880   61.2360 C.3   130  U2G130      0.2128
     29  O3D        6.4330   54.8020   61.0590 O.3   130  U2G130     -0.2177
     30  C2D        4.4220   55.6920   62.2470 C.3   130  U2G130      0.1997
     31  O2D        5.2440   56.6610   62.8760 O.3   130  U2G130     -0.3097
     32  C1D        3.1660   56.2410   61.5520 C.3   130  U2G130      0.2368
     33  N1U        1.9230   56.0960   62.3320 N.3   130  U2G130     -0.0974
@<TRIPOS>BOND
     1    24    25    1
     2    25    26    1
     3    26    27    1
     4    26    28    1
     5    27    32    1
     6    29    28    1
     7    28    30    1
     8    32    30    1
     9    32    33    1
    10    30    31    1
    11    31    21    1
    12    22    21    2
    13    21    23    1
    14    21    20    1
    15    20    19    1
    16    19    17    1
    17    17    15    1
    18    17    18    1
    19    16    15    1
    20    15    13    1
    21    10     9    1
    22    10    11    1
    23    18    12    1
    24     9     6    2
    25    11    12    1
    26    11     5    1
    27    13    12    1
    28    13    14    1
    29     6     5    1
    30     6     7    1
    31     5     4    2
    32     8     7    2
    33     7     1    2
    34     4     2    2
    35     1     2    2
    36     2     3    1
