@<TRIPOS>MOLECULE
11gs_GSH_A_1.pdb
 20 19 0 0 0
SMALL
GASTEIGER

@<TRIPOS>ATOM
      1  N1        14.7090   10.7820   23.2520 N.3   210  GSH210     -0.1208
      2  CA1       14.6200    9.9440   24.4710 C.3   210  GSH210      0.1948
      3  C1        15.7480    8.9120   24.4560 C.2   210  GSH210      0.3819
      4  O11       16.0850    8.4010   25.5410 O.co2 210  GSH210     -0.2441
      5  O12       16.3130    8.6420   23.3670 O.co2 210  GSH210     -0.2441
      6  CB1       13.2690    9.2400   24.5300 C.3   210  GSH210      0.0402
      7  CG1       12.9530    8.6610   25.9060 C.3   210  GSH210      0.0889
      8  CD1       11.5780    8.0220   25.9870 C.2   210  GSH210      0.2418
      9  OE1       10.7970    8.0380   25.0250 O.2   210  GSH210     -0.2733
     10  N2        11.2470    7.5340   27.1750 N.am  210  GSH210     -0.1968
     11  CA2        9.9720    6.8700   27.4160 C.3   210  GSH210      0.1843
     12  C2         9.3670    7.3930   28.7190 C.2   210  GSH210      0.2627
     13  O2        10.0850    7.8880   29.5910 O.2   210  GSH210     -0.2714
     14  CB2       10.2030    5.3550   27.5530 C.3   210  GSH210      0.0997
     15  SG2       11.4450    4.7020   26.3760 S.3   210  GSH210     -0.0797
     16  N3         8.0510    7.2770   28.8380 N.am  210  GSH210     -0.1917
     17  CA3        7.3820    7.6900   30.0580 C.3   210  GSH210      0.2285
     18  C3         6.9000    9.1180   30.0690 C.2   210  GSH210      0.3865
     19  O31        6.0060    9.4220   30.8870 O.co2 210  GSH210     -0.2437
     20  O32        7.3950    9.9270   29.2540 O.co2 210  GSH210     -0.2437
@<TRIPOS>BOND
     1     1     2    1
     2     5     3   ar
     3     3     2    1
     4     3     4   ar
     5     2     6    1
     6     6     7    1
     7     9     8    2
     8     7     8    1
     9     8    10   am
    10    15    14    1
    11    10    11    1
    12    11    14    1
    13    11    12    1
    14    12    16   am
    15    12    13    2
    16    16    17    1
    17    20    18   ar
    18    17    18    1
    19    18    19   ar
