@<TRIPOS>MOLECULE
11gs_EAA_A_1.pdb
 19 19 0 0 0
SMALL
GASTEIGER

@<TRIPOS>ATOM
      1  C1         5.7920    2.7370   28.0810 C.ar  211  EAA211      0.1506
      2  O2         5.1050    2.1790   29.1650 O.3   211  EAA211     -0.4628
      3  C2         7.1260    2.3100   27.8760 C.ar  211  EAA211      0.1021
      4 CL1         7.8760    1.1450   28.9840 Cl    211  EAA211     -0.0782
      5  C3         7.8880    2.8040   26.8050 C.ar  211  EAA211      0.0739
      6 CL2         9.5230    2.1350   26.6450 Cl    211  EAA211     -0.0812
      7  C4         7.3230    3.7760   25.8990 C.ar  211  EAA211      0.0463
      8  C5         5.9880    4.1980   26.1300 C.ar  211  EAA211      0.0069
      9  C6         5.2430    3.6890   27.1990 C.ar  211  EAA211      0.0379
     10  C7         8.0950    4.3720   24.7030 C.2   211  EAA211      0.1735
     11  O1         7.5850    5.1970   23.9310 O.2   211  EAA211     -0.2913
     12  C8         9.6100    3.9850   24.4110 C.3   211  EAA211      0.0620
     13  C9         9.8770    3.3130   23.0520 C.3   211  EAA211      0.0077
     14  C10       11.1860    2.5160   22.9220 C.3   211  EAA211      0.0005
     15  C11       10.6730    5.0250   24.7730 C.3   211  EAA211      0.0081
     16  C12        4.0210    1.1970   29.0350 C.3   211  EAA211      0.3186
     17  C13        3.8530    0.2730   30.2430 C.2   211  EAA211      0.4084
     18  O          4.7490   -0.5720   30.4860 O.co2 211  EAA211     -0.2415
     19  OXT        2.8040    0.3540   30.9250 O.co2 211  EAA211     -0.2415
@<TRIPOS>BOND
     1    14    13    1
     2    13    12    1
     3    11    10    2
     4    12    10    1
     5    12    15    1
     6    10     7    1
     7     7     8   ar
     8     7     5   ar
     9     8     9   ar
    10     6     5    1
    11     5     3   ar
    12     9     1   ar
    13     3     1   ar
    14     3     4    1
    15     1     2    1
    16    16     2    1
    17    16    17    1
    18    17    18   ar
    19    17    19   ar
