@<TRIPOS>MOLECULE
12gs_0HH_A_1.pdb
 29 28 0 0 0
SMALL
GASTEIGER

@<TRIPOS>ATOM
      1  N         14.5300   10.8070   23.4930 N.3   210  0HH210     -0.1208
      2  CA        14.5140    9.8280   24.6000 C.3   210  0HH210      0.1948
      3  C         15.7090    8.8890   24.5040 C.2   210  0HH210      0.3819
      4  O         16.1540    8.4110   25.5700 O.co2 210  0HH210     -0.2441
      5  CB        13.2190    9.0270   24.5620 C.3   210  0HH210      0.0402
      6  CG        12.9250    8.2460   25.8420 C.3   210  0HH210      0.0889
      7  CD        11.4560    7.9320   25.9840 C.2   210  0HH210      0.2418
      8  OE1       10.6970    8.0250   25.0170 O.2   210  0HH210     -0.2733
      9  OXT       16.1870    8.6480   23.3670 O.co2 210  0HH210     -0.2441
     10  N1        11.0420    7.5440   27.1820 N.am  210  0HH210     -0.1969
     11  CA1        9.6390    7.2420   27.4230 C.3   210  0HH210      0.1834
     12  CB1        9.3400    5.7610   27.1230 C.3   210  0HH210      0.0886
     13  SG        10.2930    4.6050   28.0960 S.3   210  0HH210     -0.1379
     14  C1         9.2640    7.5970   28.8620 C.2   210  0HH210      0.2626
     15  O1        10.1270    7.8500   29.7010 O.2   210  0HH210     -0.2714
     16  C11        9.9110    3.0300   27.2890 C.3   210  0HH210      0.0576
     17  C2         8.4800    2.5410   27.4470 C.3   210  0HH210      0.0116
     18  C3         8.1680    2.0860   28.8670 C.3   210  0HH210      0.0009
     19  C4         6.7350    1.5480   28.9640 C.3   210  0HH210      0.0000
     20  C5         6.1620    1.6260   30.3840 C.3   210  0HH210      0.0000
     21  C6         6.9220    0.7390   31.3830 C.3   210  0HH210      0.0000
     22  C7         6.9880   -0.7270   30.9520 C.3   210  0HH210      0.0000
     23  C8         6.2560   -1.6440   31.9270 C.3   210  0HH210      0.0000
     24  C9         6.3960   -3.1050   31.5260 C.3   210  0HH210      0.0000
     25  N2         7.9680    7.6200   29.1380 N.am  210  0HH210     -0.1917
     26  CA2        7.5020    7.9670   30.4650 C.3   210  0HH210      0.2285
     27  CC         6.8880    9.3530   30.4410 C.2   210  0HH210      0.3865
     28  O2         6.1280    9.6730   31.3730 O.co2 210  0HH210     -0.2437
     29 OXT1        7.1610   10.1210   29.4830 O.co2 210  0HH210     -0.2437
@<TRIPOS>BOND
     1     9     3   ar
     2     1     2    1
     3     3     2    1
     4     3     4   ar
     5     5     2    1
     6     5     6    1
     7     8     7    2
     8     6     7    1
     9     7    10   am
    10    12    11    1
    11    12    13    1
    12    10    11    1
    13    16    17    1
    14    16    13    1
    15    11    14    1
    16    17    18    1
    17    14    25   am
    18    14    15    2
    19    18    19    1
    20    19    20    1
    21    25    26    1
    22    29    27   ar
    23    20    21    1
    24    27    26    1
    25    27    28   ar
    26    22    21    1
    27    22    23    1
    28    24    23    1
