@<TRIPOS>MOLECULE
13gs_GSH_A_1.pdb
 20 19 0 0 0
SMALL
GASTEIGER

@<TRIPOS>ATOM
      1  N1        14.6840   10.9610   23.5360 N.3   210  GSH210     -0.1208
      2  CA1       14.6890   10.0760   24.7320 C.3   210  GSH210      0.1948
      3  C1        15.7630    8.9850   24.5920 C.2   210  GSH210      0.3819
      4  O11       16.2080    8.7440   23.4460 O.co2 210  GSH210     -0.2441
      5  O12       16.1510    8.3860   25.6220 O.co2 210  GSH210     -0.2441
      6  CB1       13.3030    9.4480   24.9020 C.3   210  GSH210      0.0402
      7  CG1       13.1360    8.6610   26.1790 C.3   210  GSH210      0.0889
      8  CD1       11.7400    8.1090   26.3190 C.2   210  GSH210      0.2418
      9  OE1       10.9480    8.1380   25.3750 O.2   210  GSH210     -0.2733
     10  N2        11.4320    7.6220   27.5130 N.am  210  GSH210     -0.1968
     11  CA2       10.1360    7.0320   27.8060 C.3   210  GSH210      0.1843
     12  C2         9.6230    7.6440   29.0910 C.2   210  GSH210      0.2627
     13  O2        10.4060    8.0580   29.9460 O.2   210  GSH210     -0.2714
     14  CB2       10.2580    5.5210   28.0140 C.3   210  GSH210      0.0997
     15  SG2       11.4140    4.6710   26.9150 S.3   210  GSH210     -0.0797
     16  N3         8.3040    7.6850   29.2300 N.am  210  GSH210     -0.1917
     17  CA3        7.7090    8.2420   30.4270 C.3   210  GSH210      0.2285
     18  C3         7.0720    9.5970   30.1880 C.2   210  GSH210      0.3865
     19  O31        7.5360   10.3270   29.2850 O.co2 210  GSH210     -0.2437
     20  O32        6.1080    9.9330   30.9080 O.co2 210  GSH210     -0.2437
@<TRIPOS>BOND
     1     4     3   ar
     2     1     2    1
     3     3     2    1
     4     3     5   ar
     5     2     6    1
     6     6     7    1
     7     9     8    2
     8     7     8    1
     9     8    10   am
    10    15    14    1
    11    10    11    1
    12    11    14    1
    13    11    12    1
    14    12    16   am
    15    12    13    2
    16    16    17    1
    17    19    18   ar
    18    18    17    1
    19    18    20   ar
