@<TRIPOS>MOLECULE
13gs_SAS_A_1.pdb
 28 30 0 0 0
SMALL
GASTEIGER

@<TRIPOS>ATOM
      1  C1         5.8670   -2.5540   31.8180 C.ar  211  SAS211      0.1716
      2  C2         7.1800   -2.7850   32.3140 C.ar  211  SAS211      0.0376
      3  C3         7.8020   -3.9490   31.8790 C.ar  211  SAS211      0.0046
      4  C4         7.1330   -4.8190   30.9940 C.ar  211  SAS211      0.0208
      5  C5         5.8130   -4.5360   30.5330 C.ar  211  SAS211      0.1004
      6  N1         5.2380   -3.4050   30.9670 N.ar  211  SAS211     -0.2259
      7  N2         5.2110   -1.4210   32.1920 N.pl3 211  SAS211     -0.0772
      8  S1         5.8290    0.1150   32.4160 S.O2  211  SAS211      0.0942
      9  O1         7.0230   -0.0030   33.4960 O.2   211  SAS211     -0.1483
     10  O2         4.5660    0.8990   32.9650 O.2   211  SAS211     -0.1483
     11  C6         6.2720    0.8680   30.9180 C.ar  211  SAS211      0.1272
     12  C7         7.5860    0.7200   30.4370 C.ar  211  SAS211      0.0219
     13  C8         7.9780    1.3990   29.2670 C.ar  211  SAS211      0.0223
     14  C9         7.0420    2.2260   28.5850 C.ar  211  SAS211      0.1030
     15  C10        5.6770    2.3740   29.0760 C.ar  211  SAS211      0.0223
     16  C11        5.2940    1.6840   30.2540 C.ar  211  SAS211      0.0219
     17  N3         7.5330    2.8070   27.5840 N.2   211  SAS211     -0.1480
     18  N4         6.8870    3.6750   26.7290 N.2   211  SAS211     -0.1480
     19  C12        7.2760    4.3130   25.7040 C.ar  211  SAS211      0.1033
     20  C13        8.6210    4.2950   25.2270 C.ar  211  SAS211      0.0307
     21  C14        9.0530    5.0660   24.0980 C.ar  211  SAS211      0.1201
     22  C15        8.0250    5.9100   23.4420 C.ar  211  SAS211      0.2021
     23  C16        6.6870    5.9210   23.9130 C.ar  211  SAS211      0.0439
     24  C17        6.3150    5.1350   25.0330 C.ar  211  SAS211      0.0242
     25  C18       10.5100    4.9270   23.6970 C.2   211  SAS211      0.3909
     26  O3         8.1980    6.7580   22.3650 O.3   211  SAS211     -0.2863
     27  O4        11.3020    4.1720   24.3260 O.co2 211  SAS211     -0.2404
     28  O5        10.9540    5.5790   22.7260 O.co2 211  SAS211     -0.2404
@<TRIPOS>BOND
     1    26    22    1
     2    28    25   ar
     3    22    23   ar
     4    22    21   ar
     5    25    21    1
     6    25    27   ar
     7    23    24   ar
     8    21    20   ar
     9    24    19   ar
    10    20    19   ar
    11    19    18    1
    12    18    17    2
    13    17    14    1
    14    14    15   ar
    15    14    13   ar
    16    15    16   ar
    17    13    12   ar
    18    16    11   ar
    19    12    11   ar
    20     5     6   ar
    21     5     4   ar
    22    11     8    1
    23     6     1   ar
    24     4     3   ar
    25     1     7    1
    26     1     2   ar
    27     3     2   ar
    28     7     8    1
    29     8    10    2
    30     8     9    2
