@<TRIPOS>MOLECULE
13pk_ADP_A_1.pdb
 27 29 0 0 0
SMALL
GASTEIGER

@<TRIPOS>ATOM
      1  PB        -9.7010   70.7240   85.1530 P.3   421  ADP421      0.5373
      2  O1B       -8.3240   70.8880   85.7090 O.3   421  ADP421     -0.1143
      3  O2B      -10.9070   70.8790   86.2330 O.3   421  ADP421     -0.1143
      4  O3B       -9.9000   71.6640   84.0390 O.2   421  ADP421     -0.2221
      5  PA       -11.0270   68.4220   83.8970 P.3   421  ADP421      0.2231
      6  O1A      -12.1970   68.4180   84.7550 O.3   421  ADP421     -0.4370
      7  O2A      -11.3590   68.8120   82.5280 O.2   421  ADP421     -0.5169
      8  O3A       -9.8970   69.2870   84.5680 O.3   421  ADP421     -0.2261
      9  O5'      -10.3970   67.0060   84.0200 O.3   421  ADP421     -0.3111
     10  C5'       -9.9940   66.4880   85.2870 C.3   421  ADP421      0.1813
     11  C4'      -10.8730   65.2780   85.3830 C.3   421  ADP421      0.1821
     12  O4'      -10.8020   64.3660   84.2570 O.3   421  ADP421     -0.3135
     13  C3'      -10.4990   64.5400   86.6220 C.3   421  ADP421      0.2184
     14  O3'      -11.6050   64.2340   87.4730 O.3   421  ADP421     -0.2174
     15  C2'       -9.7460   63.3580   86.0750 C.3   421  ADP421      0.2570
     16  O2'       -9.7570   62.1840   86.8990 O.3   421  ADP421     -0.2130
     17  C1'      -10.4720   63.0880   84.7850 C.3   421  ADP421      0.3186
     18  N9        -9.5980   62.1740   83.9780 N.pl3 421  ADP421     -0.1439
     19  C8        -8.3080   62.3340   83.6580 C.3   421  ADP421      0.3377
     20  N7        -7.9000   61.2820   82.9510 N.2   421  ADP421     -0.2095
     21  C5        -8.9130   60.4540   82.8070 C.2   421  ADP421      0.2526
     22  C6        -9.1050   59.2100   82.1970 C.2   421  ADP421      0.4393
     23  N6        -8.0770   58.6390   81.5610 N.pl3 421  ADP421      0.2180
     24  N1       -10.3210   58.5970   82.2340 N.2   421  ADP421      0.0021
     25  C2       -11.3490   59.1690   82.8740 C.3   421  ADP421      0.5254
     26  N3       -11.1770   60.3640   83.4740 N.2   421  ADP421     -0.0055
     27  C4       -10.0090   61.0330   83.4700 C.2   421  ADP421      0.3518
@<TRIPOS>BOND
     1    23    22    1
     2    22    24    2
     3    22    21    1
     4    24    25    1
     5     7     5    2
     6    21    20    2
     7    21    27    1
     8    25    26    1
     9    20    19    1
    10    27    26    2
    11    27    18    1
    12    19    18    1
    13     5     9    1
    14     5     8    1
    15     5     6    1
    16    18    17    1
    17     9    10    1
    18     4     1    2
    19    12    17    1
    20    12    11    1
    21     8     1    1
    22    17    15    1
    23     1     2    1
    24     1     3    1
    25    10    11    1
    26    11    13    1
    27    15    13    1
    28    15    16    1
    29    13    14    1
