@<TRIPOS>MOLECULE
13pk_3PG_A_1.pdb
 11 10 0 0 0
SMALL
GASTEIGER

@<TRIPOS>ATOM
      1  C1       -14.4450   75.2160   85.3630 C.2   423  3PG423      0.3972
      2  O1       -14.3680   74.5310   86.3640 O.co2 423  3PG423     -0.2427
      3  O2       -13.8410   74.7390   84.4230 O.co2 423  3PG423     -0.2427
      4  C2       -15.2050   76.5320   85.3460 C.3   423  3PG423      0.2838
      5  O3       -15.5910   76.9570   86.6970 O.3   423  3PG423     -0.2081
      6  C3       -16.4930   76.5500   84.6100 C.3   423  3PG423      0.1983
      7  O1P      -17.6250   75.7590   84.2740 O.3   423  3PG423     -0.2669
      8  P        -17.9950   74.5210   83.1890 P.3   423  3PG423      0.5327
      9  O2P      -18.6540   73.4400   84.0240 O.3   423  3PG423     -0.1145
     10  O3P      -18.9090   75.2360   82.1910 O.2   423  3PG423     -0.2224
     11  O4P      -16.7060   74.0620   82.5030 O.3   423  3PG423     -0.1145
@<TRIPOS>BOND
     1    10     8    2
     2    11     8    1
     3     8     9    1
     4     8     7    1
     5     7     6    1
     6     3     1   ar
     7     6     4    1
     8     4     1    1
     9     4     5    1
    10     1     2   ar
