@<TRIPOS>MOLECULE
148l_MUB_S_1.pdb
 18 18 0 0 0
SMALL
GASTEIGER

@<TRIPOS>ATOM
      1  C1         9.7490   50.4490   39.5690 C.3   165  MUB165      0.1664
      2  C2        10.1900   51.2960   38.3660 C.3   165  MUB165      0.1544
      3  C3         8.8480   51.7630   37.7890 C.3   165  MUB165      0.1707
      4  C4         8.1050   50.5330   37.3440 C.3   165  MUB165      0.2102
      5  C5         7.6920   49.7000   38.5630 C.3   165  MUB165      0.1808
      6  C6         7.0630   48.4120   38.0770 C.3   165  MUB165      0.2141
      7  C7        12.6050   51.4590   38.1710 C.2   165  MUB165      0.2420
      8  C8        13.7480   52.3740   38.2500 C.3   165  MUB165      0.0964
      9  C9        10.1310   53.3990   36.4930 C.3   165  MUB165      0.1795
     10  C10       11.2420   53.4660   35.5140 C.2   165  MUB165      0.2366
     11  C11        9.0400   54.4430   36.2330 C.3   165  MUB165      0.0406
     12  O3         9.4980   52.1230   36.5570 O.3   165  MUB165     -0.3463
     13  O4         6.8270   51.2060   37.1190 O.3   165  MUB165     -0.2178
     14  O5         8.6870   49.5030   39.6120 O.3   165  MUB165     -0.3490
     15  O6         8.3300   47.8930   37.7240 O.3   165  MUB165     -0.2176
     16  O7        12.6840   50.3000   37.6440 O.2   165  MUB165     -0.2733
     17  O10       11.8320   54.5570   35.4140 O.2   165  MUB165     -0.2856
     18  N2        11.4810   51.7700   38.8080 N.am  165  MUB165     -0.2020
@<TRIPOS>BOND
     1    17    10    2
     2    10     9    1
     3    11     9    1
     4     9    12    1
     5    12     3    1
     6    13     4    1
     7     4     3    1
     8     4     5    1
     9    16     7    2
    10    15     6    1
    11     3     2    1
    12     6     5    1
    13     7     8    1
    14     7    18   am
    15     2    18    1
    16     2     1    1
    17     5    14    1
    18     1    14    1
