@<TRIPOS>MOLECULE
148l_III_S_1.pdb
 32 31 0 0 0
SMALL
GASTEIGER

@<TRIPOS>ATOM
      1  N         11.6070   52.3830   34.7940 N.3   166  ALA166     -0.1231
      2  CA        12.7020   52.4090   33.8290 C.3   166  ALA166      0.1694
      3  C         12.2290   52.8490   32.4250 C.2   166  ALA166      0.2593
      4  O         11.0190   53.0210   32.1320 O.2   166  ALA166     -0.2718
      5  CB        13.4980   51.0830   33.7630 C.3   166  ALA166      0.0304
      6  N         13.2440   52.9850   31.5560 N.am  167  FGA167     -0.1944
      7  CA        13.0880   53.3440   30.1230 C.3   167  FGA167      0.1983
      8  C         13.1260   54.8560   29.9250 C.2   167  FGA167      0.3842
      9  O         12.6100   55.3760   28.9310 O.co2 167  FGA167     -0.2437
     10  CB        14.2130   52.7220   29.2690 C.3   167  FGA167      0.0429
     11  CG        13.7830   52.7030   27.8120 C.3   167  FGA167      0.0892
     12  CD        14.8990   52.0940   27.0180 C.2   167  FGA167      0.2418
     13  OE1       15.8950   51.7450   27.5770 O.2   167  FGA167     -0.2733
     14  OXT       13.7140   55.5420   30.7710 O.co2 167  FGA167     -0.2437
     15  C1        16.6500   52.7250   24.5870 C.2   169  LYS169      0.2617
     16  C2        15.7050   51.5350   24.7870 C.3   169  LYS169      0.1727
     17  C3        15.0860   51.1180   23.4670 C.3   169  LYS169      0.0312
     18  C4        16.0650   50.8460   22.3420 C.3   169  LYS169      0.0043
     19  C5        16.9650   49.7080   22.6810 C.3   169  LYS169      0.0307
     20  C6        17.7380   49.1680   21.4640 C.3   169  LYS169      0.1943
     21  C7        16.8850   48.2330   20.6330 C.2   169  LYS169      0.3819
     22  O2        17.8380   52.5870   24.6660 O.2   169  LYS169     -0.2715
     23  O3        16.4060   48.7370   19.5300 O.co2 169  LYS169     -0.2441
     24  O4        16.6610   47.0760   20.9330 O.co2 169  LYS169     -0.2441
     25  N2        14.7060   51.9860   25.7370 N.am  169  LYS169     -0.1978
     26  N6        18.8350   48.2410   21.9320 N.3   169  LYS169     -0.1208
     27  N         16.1300   53.9150   24.4170 N.am  170  DAL170     -0.1942
     28  CA        16.9580   55.0830   24.2350 C.3   170  DAL170      0.1979
     29  CB        16.3210   56.3940   24.7330 C.3   170  DAL170      0.0356
     30  C         17.3350   55.2180   22.7900 C.2   170  DAL170      0.3842
     31  O         16.6930   54.5520   21.9460 O.co2 170  DAL170     -0.2437
     32  OXT       18.2860   55.9600   22.5460 O.co2 170  DAL170     -0.2437
@<TRIPOS>BOND
     1    23    21   ar
     2    21    24   ar
     3    21    20    1
     4    20    26    1
     5    20    19    1
     6    31    30   ar
     7    18    19    1
     8    18    17    1
     9    32    30   ar
    10    30    28    1
    11    17    16    1
    12    28    27    1
    13    28    29    1
    14    27    15   am
    15    15    22    2
    16    15    16    1
    17    16    25    1
    18    25    12   am
    19    12    13    2
    20    12    11    1
    21    11    10    1
    22     9     8   ar
    23    10     7    1
    24     8     7    1
    25     8    14   ar
    26     7     6    1
    27     6     3   am
    28     4     3    2
    29     3     2    1
    30     5     2    1
    31     2     1    1
