@<TRIPOS>MOLECULE
154l_NAG_A_1.pdb
 14 14 0 0 0
SMALL
GASTEIGER

@<TRIPOS>ATOM
      1  C1        14.5360   32.7100   24.9690 C.3   187  NAG187      0.1665
      2  C2        15.3360   32.7290   26.2730 C.3   187  NAG187      0.1576
      3  C3        15.8860   34.1330   26.6430 C.3   187  NAG187      0.2069
      4  C4        16.4210   34.9120   25.4440 C.3   187  NAG187      0.2134
      5  C5        15.3780   34.8810   24.3450 C.3   187  NAG187      0.1809
      6  C6        15.7930   35.6390   23.0800 C.3   187  NAG187      0.2141
      7  C7        15.0140   30.8880   27.8240 C.2   187  NAG187      0.2420
      8  C8        14.1200   30.3020   28.8720 C.3   187  NAG187      0.0964
      9  N2        14.5940   32.0780   27.3910 N.am  187  NAG187     -0.2019
     10  O3        16.9230   33.9560   27.6090 O.3   187  NAG187     -0.2184
     11  O4        16.6450   36.3050   25.7490 O.3   187  NAG187     -0.2176
     12  O5        15.1830   33.5000   23.9710 O.3   187  NAG187     -0.3489
     13  O6        17.0150   34.8160   22.8870 O.3   187  NAG187     -0.2176
     14  O7        16.1370   30.4180   27.4860 O.2   187  NAG187     -0.2733
@<TRIPOS>BOND
     1    13     6    1
     2     6     5    1
     3    12     5    1
     4    12     1    1
     5     5     4    1
     6     1     2    1
     7     4    11    1
     8     4     3    1
     9     2     3    1
    10     2     9    1
    11     3    10    1
    12     9     7   am
    13    14     7    2
    14     7     8    1
