@<TRIPOS>MOLECULE
155c_HEM_A_1.pdb
 43 50 0 0 0
SMALL
GASTEIGER

@<TRIPOS>ATOM
      1  CHA       16.1240   33.4610   10.4050 C.2   135  HEM135      0.0000
      2  CHB       11.3500   32.5800   12.0460 C.2   135  HEM135      0.0000
      3  CHC        9.3260   34.7090    7.8870 C.2   135  HEM135      0.0000
      4  CHD       14.1380   35.3790    6.1190 C.2   135  HEM135      0.0000
      5  C1A       15.0180   33.0980   11.1660 C.2   135  HEM135      0.0000
      6  C2A       15.1410   32.4200   12.4470 C.2   135  HEM135      0.0000
      7  C3A       13.8010   32.0910   12.9490 C.2   135  HEM135      0.0000
      8  C4A       12.8870   32.6950   11.9360 C.2   135  HEM135      0.0000
      9  CMA       13.3690   31.4460   14.2300 C.3   135  HEM135      0.0000
     10  CAA       16.5250   32.0350   13.1130 C.3   135  HEM135      0.0000
     11  CBA       16.8790   30.6440   12.8070 C.3   135  HEM135      0.0000
     12  CGA       18.3400   30.2230   13.0470 C.2   135  HEM135      0.0000
     13  O1A       18.7710   29.6540   12.3530 O.co2 135  HEM135      0.0000
     14  O2A       18.7750   30.7260   14.1330 O.co2 135  HEM135      0.0000
     15  C1B       10.4360   33.1790   11.0740 C.ar  135  HEM135      0.0000
     16  C2B        9.0180   33.1360   11.1470 C.ar  135  HEM135      0.0000
     17  C3B        8.5400   33.4900   10.0580 C.ar  135  HEM135      0.0000
     18  C4B        9.6030   34.0680    9.2470 C.ar  135  HEM135      0.0000
     19  CMB        8.2280   32.4520   12.3460 C.3   135  HEM135      0.0000
     20  CAB        7.0800   33.7310    9.8210 C.3   135  HEM135      0.0000
     21  CBB        6.5670   34.3720   11.0590 C.3   135  HEM135      0.0000
     22  C1C       10.5080   35.0040    7.0380 C.2   135  HEM135      0.0000
     23  C2C       10.3850   35.5370    5.7570 C.2   135  HEM135      0.0000
     24  C3C       11.6870   35.7230    5.2200 C.2   135  HEM135      0.0000
     25  C4C       12.6350   35.2990    6.1920 C.2   135  HEM135      0.0000
     26  CMC        8.9630   35.8860    5.0940 C.3   135  HEM135      0.0000
     27  CAC       11.9990   36.1180    3.7840 C.3   135  HEM135      0.0000
     28  CBC       11.0890   37.3270    3.3140 C.3   135  HEM135      0.0000
     29  C1D       15.0470   34.9200    7.1700 C.ar  135  HEM135      0.0000
     30  C2D       16.4690   34.9640    6.9810 C.ar  135  HEM135      0.0000
     31  C3D       16.9860   34.5020    8.1870 C.ar  135  HEM135      0.0000
     32  C4D       15.9230   34.1420    8.9980 C.ar  135  HEM135      0.0000
     33  CMD       17.2940   35.4330    5.8260 C.3   135  HEM135      0.0000
     34  CAD       18.4460   34.3320    8.3850 C.3   135  HEM135      0.0000
     35  CBD       18.8440   35.3700    9.3170 C.3   135  HEM135      0.0000
     36  CGD       20.4660   35.3790    9.4360 C.2   135  HEM135      0.0000
     37  O1D       21.0980   36.2760    9.9410 O.co2 135  HEM135      0.0000
     38  O2D       21.0940   34.4900    9.0920 O.co2 135  HEM135      0.0000
     39  NA        13.6340   33.2330   10.9290 N.2   135  HEM135      0.0000
     40  NB        10.8290   33.7530    9.9100 N.ar  135  HEM135      0.0000
     41  NC        11.8880   34.9030    7.2780 N.2   135  HEM135      0.0000
     42  ND        14.6970   34.4540    8.3730 N.ar  135  HEM135      0.0000
     43 FE         12.7630   34.1570    9.1020 Fe    135  HEM135      0.0000
@<TRIPOS>BOND
     1    28    27    1
     2    27    24    1
     3    26    23    1
     4    24    23    2
     5    24    25    1
     6    23    22    1
     7    33    30    1
     8     4    25    1
     9     4    29    2
    10    25    41    2
    11    30    29   ar
    12    30    31   ar
    13    22    41    1
    14    22     3    2
    15    29    42   ar
    16    41    43    1
    17     3    18    1
    18    31    34    1
    19    31    32   ar
    20    42    32   ar
    21    42    43    1
    22    34    35    1
    23    32     1    2
    24    38    36   ar
    25    43    40    1
    26    43    39    1
    27    18    40   ar
    28    18    17   ar
    29    35    36    1
    30    36    37   ar
    31    20    17    1
    32    20    21    1
    33    40    15   ar
    34    17    16   ar
    35     1     5    1
    36    39     5    2
    37    39     8    1
    38    15    16   ar
    39    15     2    1
    40    16    19    1
    41     5     6    1
    42     8     2    2
    43     8     7    1
    44    13    12   ar
    45     6     7    2
    46     6    10    1
    47    11    12    1
    48    11    10    1
    49     7     9    1
    50    12    14   ar
