@<TRIPOS>MOLECULE
16pk_BIS_A_1.pdb
 39 41 0 0 0
SMALL
GASTEIGER

@<TRIPOS>ATOM
      1  PB       -10.9500   43.3720    1.3240 P.3   499  BIS499      0.4335
      2  O2B      -10.7050   44.1560    2.7080 O.3   499  BIS499     -0.1354
      3  O3B      -12.3570   42.9850    1.0240 O.2   499  BIS499     -0.2496
      4  PA       -10.5430   44.7100   -1.2360 P.3   499  BIS499      0.2210
      5  O1A       -9.2280   44.3240   -1.7890 O.3   499  BIS499     -0.4371
      6  O2A      -11.6620   44.1010   -1.9750 O.2   499  BIS499     -0.5170
      7  O3A      -10.5050   44.4330    0.3040 O.3   499  BIS499     -0.2451
      8  O5'      -10.6830   46.2930   -1.1960 O.3   499  BIS499     -0.3111
      9  C5'       -9.7680   47.0560   -0.3860 C.3   499  BIS499      0.1813
     10  C4'       -9.2850   48.1550   -1.2910 C.3   499  BIS499      0.1821
     11  O4'      -10.3940   48.8990   -1.8350 O.3   499  BIS499     -0.3135
     12  C3'       -8.3010   49.1040   -0.6250 C.3   499  BIS499      0.2184
     13  O3'       -7.0060   49.1130   -1.2160 O.3   499  BIS499     -0.2174
     14  C2'       -9.0170   50.4470   -0.6620 C.3   499  BIS499      0.2570
     15  O2'       -8.1400   51.5930   -0.7490 O.3   499  BIS499     -0.2130
     16  C1'       -9.9620   50.2590   -1.8420 C.3   499  BIS499      0.3186
     17  N9       -11.0720   51.2710   -1.8030 N.pl3 499  BIS499     -0.1439
     18  C8       -11.9620   51.4490   -0.8210 C.3   499  BIS499      0.3377
     19  N7       -12.7130   52.5090   -1.1270 N.2   499  BIS499     -0.2095
     20  C5       -12.3120   53.0210   -2.2690 C.2   499  BIS499      0.2526
     21  C6       -12.6830   54.1210   -3.0360 C.2   499  BIS499      0.4393
     22  N6       -13.6790   54.9520   -2.6120 N.pl3 499  BIS499      0.2180
     23  N1       -12.0100   54.3360   -4.2050 N.2   499  BIS499      0.0021
     24  C2       -11.0210   53.5330   -4.6310 C.3   499  BIS499      0.5254
     25  N3       -10.6510   52.4780   -3.8870 N.2   499  BIS499     -0.0055
     26  C4       -11.2600   52.1990   -2.7250 C.2   499  BIS499      0.3518
     27  C11       -9.8530   41.9250    1.2870 C.3   499  BIS499      0.3562
     28  F11       -9.8770   41.4200    0.0380 F     499  BIS499     -0.1913
     29  F12      -10.3230   41.0660    2.1810 F     499  BIS499     -0.1913
     30  C12       -8.4430   42.3490    1.6950 C.3   499  BIS499      0.0794
     31  C13       -7.4780   41.1570    1.6240 C.3   499  BIS499      0.0124
     32  C14       -6.5430   41.1960    2.8350 C.3   499  BIS499      0.0740
     33  C15       -5.2750   40.3280    2.6630 C.3   499  BIS499      0.3064
     34  F51       -4.9130   40.0900    1.4110 F     499  BIS499     -0.1968
     35  F52       -4.2630   40.9560    3.2220 F     499  BIS499     -0.1968
     36  PN        -5.4520   38.7220    3.4960 P.3   499  BIS499      0.1787
     37  ON1       -6.3420   37.7990    2.6560 O.2   499  BIS499     -0.4546
     38  ON2       -4.0650   38.0680    3.6150 O.3   499  BIS499     -0.3536
     39  ON3       -5.9400   38.9810    4.9200 O.3   499  BIS499     -0.3536
@<TRIPOS>BOND
     1    24    23    1
     2    24    25    1
     3    23    21    2
     4    25    26    2
     5    21    22    1
     6    21    20    1
     7    26    20    1
     8    26    17    1
     9    20    19    2
    10     6     4    2
    11    16    11    1
    12    16    17    1
    13    16    14    1
    14    11    10    1
    15    17    18    1
    16     5     4    1
    17    10    12    1
    18    10     9    1
    19     4     8    1
    20     4     7    1
    21    13    12    1
    22     8     9    1
    23    19    18    1
    24    15    14    1
    25    14    12    1
    26    28    27    1
    27     7     1    1
    28     3     1    2
    29    27     1    1
    30    27    30    1
    31    27    29    1
    32     1     2    1
    33    34    33    1
    34    31    30    1
    35    31    32    1
    36    37    36    2
    37    33    32    1
    38    33    35    1
    39    33    36    1
    40    36    38    1
    41    36    39    1
