@<TRIPOS>MOLECULE
17gs_GTX_A_1.pdb
 26 25 0 0 0
SMALL
GASTEIGER

@<TRIPOS>ATOM
      1  N1        14.7480   10.9550   23.4130 N.3   210  GTX210     -0.1208
      2  CA1       14.6250   10.0570   24.5880 C.3   210  GTX210      0.1948
      3  C1        15.7410    9.0150   24.5230 C.2   210  GTX210      0.3819
      4  O11       16.1720    8.5240   25.5870 O.co2 210  GTX210     -0.2441
      5  O12       16.2040    8.7280   23.3990 O.co2 210  GTX210     -0.2441
      6  CB1       13.2510    9.3850   24.5940 C.3   210  GTX210      0.0402
      7  CG1       12.9790    8.5350   25.8260 C.3   210  GTX210      0.0889
      8  CD1       11.5220    8.2100   25.9860 C.2   210  GTX210      0.2418
      9  OE1       10.7650    8.2470   25.0170 O.2   210  GTX210     -0.2733
     10  N2        11.1160    7.8620   27.1980 N.am  210  GTX210     -0.1969
     11  CA2        9.7140    7.5550   27.4490 C.3   210  GTX210      0.1834
     12  C2         9.3530    7.8290   28.8970 C.2   210  GTX210      0.2626
     13  O2        10.2290    7.8700   29.7690 O.2   210  GTX210     -0.2714
     14  CB2        9.3780    6.1120   27.0670 C.3   210  GTX210      0.0886
     15  SG2       10.2500    4.8710   28.0150 S.3   210  GTX210     -0.1379
     16  C1S        9.9000    3.4110   27.0250 C.3   210  GTX210      0.0576
     17  C2S        8.5040    2.8390   27.2200 C.3   210  GTX210      0.0116
     18  C3S        8.2650    2.3660   28.6430 C.3   210  GTX210      0.0009
     19  C4S        7.0830    1.4150   28.6830 C.3   210  GTX210      0.0000
     20  C5S        6.7920    0.9130   30.0850 C.3   210  GTX210      0.0000
     21  C6S        6.0710    1.9550   30.8970 C.3   210  GTX210      0.0000
     22  N3         8.0620    8.0330   29.1330 N.am  210  GTX210     -0.1917
     23  CA3        7.5750    8.3350   30.4620 C.3   210  GTX210      0.2285
     24  C3         6.9030    9.6940   30.4160 C.2   210  GTX210      0.3865
     25  O31        6.1680   10.0220   31.3650 O.co2 210  GTX210     -0.2437
     26  O32        7.0900   10.4250   29.4160 O.co2 210  GTX210     -0.2437
@<TRIPOS>BOND
     1     5     3   ar
     2     1     2    1
     3     3     2    1
     4     3     4   ar
     5     2     6    1
     6     6     7    1
     7     9     8    2
     8     7     8    1
     9     8    10   am
    10    16    17    1
    11    16    15    1
    12    14    11    1
    13    14    15    1
    14    10    11    1
    15    17    18    1
    16    11    12    1
    17    18    19    1
    18    19    20    1
    19    12    22   am
    20    12    13    2
    21    22    23    1
    22    26    24   ar
    23    20    21    1
    24    24    23    1
    25    24    25   ar
