@<TRIPOS>MOLECULE
184l_I4B_A_1.pdb
 10 10 0 0 0
SMALL
GASTEIGER

@<TRIPOS>ATOM
      1  C1        27.3570    6.7720    3.3880 C.ar  401  I4B401     -0.0222
      2  C2        27.3210    7.2930    4.6580 C.ar  401  I4B401     -0.0043
      3  C3        26.5680    6.6500    5.6700 C.ar  401  I4B401     -0.0003
      4  C4        25.8310    5.5260    5.3590 C.ar  401  I4B401     -0.0000
      5  C5        25.8870    4.9870    4.0770 C.ar  401  I4B401     -0.0003
      6  C6        26.6640    5.6070    3.0880 C.ar  401  I4B401     -0.0043
      7  C1'       28.1350    7.4950    2.3350 C.3   401  I4B401      0.0263
      8  C2'       27.1650    8.3380    1.5330 C.3   401  I4B401      0.0044
      9  C3'       27.8680    8.7990    0.2910 C.3   401  I4B401      0.0003
     10  C4'       26.6640    9.5080    2.3390 C.3   401  I4B401      0.0003
@<TRIPOS>BOND
     1     9     8    1
     2     8     7    1
     3     8    10    1
     4     7     1    1
     5     6     1   ar
     6     6     5   ar
     7     1     2   ar
     8     5     4   ar
     9     2     3   ar
    10     4     3   ar
