@<TRIPOS>MOLECULE
186l_N4B_A_1.pdb
 10 10 0 0 0
SMALL
GASTEIGER

@<TRIPOS>ATOM
      1  C1        27.5330    7.0610    3.9520 C.ar  400  N4B400     -0.0222
      2  C2        26.9940    7.0690    5.2570 C.ar  400  N4B400     -0.0043
      3  C3        26.1900    6.0370    5.6740 C.ar  400  N4B400     -0.0003
      4  C4        25.8970    5.0000    4.8010 C.ar  400  N4B400     -0.0000
      5  C5        26.4420    4.9870    3.5500 C.ar  400  N4B400     -0.0003
      6  C6        27.2550    6.0160    3.1200 C.ar  400  N4B400     -0.0043
      7  C1'       28.3470    8.2100    3.4230 C.3   400  N4B400      0.0264
      8  C2'       27.4170    9.3750    3.0960 C.3   400  N4B400      0.0047
      9  C3'       26.6450    9.1420    1.8090 C.3   400  N4B400      0.0003
     10  C4'       27.5330    9.0850    0.6020 C.3   400  N4B400      0.0000
@<TRIPOS>BOND
     1    10     9    1
     2     9     8    1
     3     8     7    1
     4     6     5   ar
     5     6     1   ar
     6     7     1    1
     7     5     4   ar
     8     1     2   ar
     9     4     3   ar
    10     2     3   ar
