@<TRIPOS>MOLECULE
18gs_GDN_A_1.pdb
 32 32 0 0 0
SMALL
GASTEIGER

@<TRIPOS>ATOM
      1  N1        14.8960   10.8130   23.3390 N.3   210  GDN210     -0.1208
      2  CA1       14.7930    9.8910   24.5190 C.3   210  GDN210      0.1948
      3  C1        15.9270    8.9270   24.6130 C.2   210  GDN210      0.3819
      4  O11       16.4000    8.4030   25.5780 O.co2 210  GDN210     -0.2441
      5  O12       16.4120    8.7010   23.3320 O.co2 210  GDN210     -0.2441
      6  CB1       13.4240    9.2570   24.5300 C.3   210  GDN210      0.0402
      7  CG1       13.1280    8.6750   25.9740 C.3   210  GDN210      0.0889
      8  CD1       11.7150    8.0630   25.9660 C.2   210  GDN210      0.2418
      9  OE1       11.0760    8.0210   24.8860 O.2   210  GDN210     -0.2733
     10  N2        11.3370    7.6470   27.1760 N.am  210  GDN210     -0.1968
     11  CA2       10.0470    7.0410   27.4730 C.3   210  GDN210      0.1838
     12  C2         9.6000    7.4710   28.8700 C.2   210  GDN210      0.2626
     13  O2        10.4930    7.6570   29.6850 O.2   210  GDN210     -0.2714
     14  CB2       10.0990    5.4980   27.2980 C.3   210  GDN210      0.0932
     15  SG2        8.4510    4.8520   27.0970 S.3   210  GDN210     -0.1097
     16  N3         8.3190    7.6240   29.1420 N.am  210  GDN210     -0.1917
     17  CA3        7.9110    8.0410   30.5050 C.3   210  GDN210      0.2285
     18  C3         7.2400    9.3680   30.4860 C.2   210  GDN210      0.3865
     19  O31        7.3570   10.1770   29.5250 O.co2 210  GDN210     -0.2437
     20  O32        6.4510    9.8150   31.4820 O.co2 210  GDN210     -0.2437
     21  C1'        7.6550    5.3610   25.6460 C.ar  210  GDN210      0.0478
     22  C2'        6.2560    5.2140   25.5370 C.ar  210  GDN210      0.1501
     23  C3'        5.6330    5.6570   24.3310 C.ar  210  GDN210      0.0486
     24  C4'        6.4190    6.2190   23.2790 C.ar  210  GDN210      0.1446
     25  C5'        7.8180    6.3540   23.3950 C.ar  210  GDN210      0.0247
     26  C6'        8.4380    5.9300   24.5750 C.ar  210  GDN210      0.0095
     27  N2'        5.3260    4.6500   26.5370 N.pl3 210  GDN210      0.0582
     28  O2A        5.6620    4.3920   27.7000 O.2   210  GDN210     -0.1261
     29  O2B        4.1520    4.4420   26.0850 O.2   210  GDN210     -0.1261
     30  N4'        5.7870    6.6600   22.0940 N.pl3 210  GDN210      0.0577
     31  O4A        4.4380    6.5380   21.9590 O.2   210  GDN210     -0.1261
     32  O4B        6.4820    7.2160   21.0410 O.2   210  GDN210     -0.1261
@<TRIPOS>BOND
     1    32    30    2
     2    31    30    2
     3    30    24    1
     4    24    25   ar
     5    24    23   ar
     6     5     3   ar
     7     1     2    1
     8    25    26   ar
     9    23    22   ar
    10     2     6    1
    11     2     3    1
    12     6     7    1
    13    26    21   ar
    14     3     4   ar
    15     9     8    2
    16    22    21   ar
    17    22    27    1
    18    21    15    1
    19     8     7    1
    20     8    10   am
    21    29    27    2
    22    27    28    2
    23    15    14    1
    24    10    11    1
    25    14    11    1
    26    11    12    1
    27    12    16   am
    28    12    13    2
    29    16    17    1
    30    19    18   ar
    31    18    17    1
    32    18    20   ar
