@<TRIPOS>MOLECULE
19gs_GSH_A_1.pdb
 20 19 0 0 0
SMALL
GASTEIGER

@<TRIPOS>ATOM
      1  N1        14.6360   10.8300   23.1590 N.3   211  GSH211     -0.1208
      2  CA1       14.5770   10.0460   24.4270 C.3   211  GSH211      0.1948
      3  C1        15.6890    9.0050   24.4630 C.2   211  GSH211      0.3819
      4  O11       16.0240    8.5020   25.5590 O.co2 211  GSH211     -0.2441
      5  O12       16.2140    8.7040   23.3750 O.co2 211  GSH211     -0.2441
      6  CB1       13.2330    9.3380   24.5380 C.3   211  GSH211      0.0402
      7  CG1       12.9730    8.7550   25.9050 C.3   211  GSH211      0.0889
      8  CD1       11.6080    8.1080   26.0290 C.2   211  GSH211      0.2418
      9  OE1       10.8130    8.0890   25.0840 O.2   211  GSH211     -0.2733
     10  N2        11.3490    7.5660   27.2140 N.am  211  GSH211     -0.1968
     11  CA2       10.0890    6.9120   27.5190 C.3   211  GSH211      0.1843
     12  C2         9.5680    7.4370   28.8530 C.2   211  GSH211      0.2627
     13  O2        10.3450    7.8520   29.7080 O.2   211  GSH211     -0.2714
     14  CB2       10.2980    5.3970   27.5920 C.3   211  GSH211      0.0997
     15  SG2       11.4140    4.7300   26.3160 S.3   211  GSH211     -0.0797
     16  N3         8.2480    7.4280   29.0160 N.am  211  GSH211     -0.1917
     17  CA3        7.6460    7.8970   30.2500 C.3   211  GSH211      0.2285
     18  C3         7.0860    9.2970   30.1190 C.2   211  GSH211      0.3865
     19  O31        6.4270    9.7700   31.0720 O.co2 211  GSH211     -0.2437
     20  O32        7.3100    9.9220   29.0590 O.co2 211  GSH211     -0.2437
@<TRIPOS>BOND
     1     1     2    1
     2     5     3   ar
     3     2     3    1
     4     2     6    1
     5     3     4   ar
     6     6     7    1
     7     9     8    2
     8     7     8    1
     9     8    10   am
    10    15    14    1
    11    10    11    1
    12    11    14    1
    13    11    12    1
    14    12    16   am
    15    12    13    2
    16    16    17    1
    17    20    18   ar
    18    18    17    1
    19    18    19   ar
