@<TRIPOS>MOLECULE
19gs_BSP_A_1.pdb
 14 15 0 0 0
SMALL
GASTEIGER

@<TRIPOS>ATOM
      1  C5         6.7360    2.0250   29.8430 C.ar  210  BSP210      0.0472
      2  C4         6.1550    1.1550   30.8350 C.ar  210  BSP210      0.0410
      3  C3         5.1830    1.6860   31.7540 C.ar  210  BSP210      0.0347
      4  C8         4.7830    3.0590   31.6870 C.ar  210  BSP210      0.0823
      5  C7         5.3620    3.9530   30.7080 C.ar  210  BSP210      0.0473
      6  C6         6.3340    3.4280   29.7730 C.ar  210  BSP210      0.0476
      7 BR6         7.1120    4.6240   28.4260 Br    210  BSP210     -0.0480
      8 BR7         4.8000    5.8220   30.6670 Br    210  BSP210     -0.0483
      9 BR5         8.0630    1.2960   28.6000 Br    210  BSP210     -0.0480
     10 BR4         6.6480   -0.7180   30.9870 Br    210  BSP210     -0.0487
     11  C9         3.7730    3.3080   32.7550 C.2   210  BSP210      0.3418
     12  O1         3.5740    2.1160   33.4260 O.3   210  BSP210     -0.4404
     13  O9         3.1980    4.3600   33.0200 O.2   210  BSP210     -0.2449
     14  C2         4.3880    1.0080   32.9020 C.3   210  BSP210      0.2361
@<TRIPOS>BOND
     1     7     6    1
     2     9     1    1
     3     6     1   ar
     4     6     5   ar
     5     1     2   ar
     6     8     5    1
     7     5     4   ar
     8     2    10    1
     9     2     3   ar
    10     4     3   ar
    11     4    11    1
    12     3    14    1
    13    11    13    2
    14    11    12    1
    15    14    12    1
