@<TRIPOS>MOLECULE
19hc_HEM_A_10.pdb
 43 50 0 0 0
SMALL
GASTEIGER

@<TRIPOS>ATOM
      1 FE          8.5300   -7.6480  -13.3360 Fe    305  HEM305      0.0000
      2  CHA        9.0810  -11.0130  -13.2080 C.2   305  HEM305      0.0000
      3  CHB       10.6400   -7.3810  -15.9980 C.2   305  HEM305      0.0000
      4  CHC        7.8740   -4.2890  -13.5670 C.2   305  HEM305      0.0000
      5  CHD        6.3260   -7.9030  -10.7240 C.2   305  HEM305      0.0000
      6  NA         9.6890   -8.9160  -14.3430 N.ar  305  HEM305      0.0000
      7  C1A        9.8090  -10.2800  -14.1280 C.ar  305  HEM305      0.0000
      8  C2A       10.5100  -10.8730  -15.2560 C.ar  305  HEM305      0.0000
      9  C3A       11.0100   -9.8660  -15.9730 C.ar  305  HEM305      0.0000
     10  C4A       10.3660   -8.6490  -15.5210 C.ar  305  HEM305      0.0000
     11  CMA       11.8960   -9.9310  -17.2330 C.3   305  HEM305      0.0000
     12  CAA       10.7450  -12.3950  -15.3670 C.3   305  HEM305      0.0000
     13  CBA       11.8860  -13.0160  -14.5580 C.3   305  HEM305      0.0000
     14  CGA       13.2570  -12.4480  -14.8750 C.2   305  HEM305      0.0000
     15  O1A       13.7090  -12.5600  -16.0480 O.co2 305  HEM305      0.0000
     16  O2A       13.8930  -11.9100  -13.9330 O.co2 305  HEM305      0.0000
     17  NB         9.1790   -6.1490  -14.4790 N.2   305  HEM305      0.0000
     18  C1B       10.1600   -6.2160  -15.4480 C.2   305  HEM305      0.0000
     19  C2B       10.4240   -4.8830  -15.9720 C.2   305  HEM305      0.0000
     20  C3B        9.7460   -4.0180  -15.2250 C.2   305  HEM305      0.0000
     21  C4B        8.9620   -4.7960  -14.2780 C.2   305  HEM305      0.0000
     22  CMB       11.5910   -4.6060  -16.9610 C.3   305  HEM305      0.0000
     23  CAB        9.6020   -2.4960  -15.4420 C.2   305  HEM305      0.0000
     24  CBB        9.3600   -2.0920  -16.7370 C.2   305  HEM305      0.0000
     25  NC         7.3630   -6.3720  -12.3400 N.ar  305  HEM305      0.0000
     26  C1C        7.3270   -4.9970  -12.5030 C.ar  305  HEM305      0.0000
     27  C2C        6.2970   -4.4430  -11.6240 C.ar  305  HEM305      0.0000
     28  C3C        5.8970   -5.4200  -10.7920 C.ar  305  HEM305      0.0000
     29  C4C        6.5690   -6.6340  -11.2290 C.ar  305  HEM305      0.0000
     30  CMC        6.0170   -2.9310  -11.5930 C.3   305  HEM305      0.0000
     31  CAC        4.8900   -5.3280   -9.6340 C.2   305  HEM305      0.0000
     32  CBC        3.6410   -4.7960   -9.8380 C.2   305  HEM305      0.0000
     33  ND         7.7930   -9.1520  -12.2470 N.2   305  HEM305      0.0000
     34  C1D        6.9810   -9.0450  -11.1300 C.2   305  HEM305      0.0000
     35  C2D        6.9740  -10.3140  -10.4080 C.2   305  HEM305      0.0000
     36  C3D        7.7790  -11.1480  -11.0680 C.2   305  HEM305      0.0000
     37  C4D        8.2820  -10.4570  -12.2310 C.2   305  HEM305      0.0000
     38  CMD        6.0700  -10.5890   -9.1960 C.3   305  HEM305      0.0000
     39  CAD        8.0940  -12.6340  -10.7270 C.3   305  HEM305      0.0000
     40  CBD        9.2780  -12.7810   -9.7690 C.3   305  HEM305      0.0000
     41  CGD       10.6150  -12.6330  -10.4450 C.2   305  HEM305      0.0000
     42  O1D       11.3830  -11.7070  -10.0900 O.co2 305  HEM305      0.0000
     43  O2D       10.8530  -13.4570  -11.3660 O.co2 305  HEM305      0.0000
@<TRIPOS>BOND
     1    11     9    1
     2    22    19    1
     3    24    23    2
     4    15    14   ar
     5     3    10    2
     6     3    18    1
     7     9    10   ar
     8     9     8   ar
     9    19    18    1
    10    19    20    2
    11    10     6   ar
    12    18    17    2
    13    23    20    1
    14    12     8    1
    15    12    13    1
    16     8     7   ar
    17    20    21    1
    18    14    13    1
    19    14    16   ar
    20    17    21    1
    21    17     1    1
    22     6     7   ar
    23     6     1    1
    24    21     4    2
    25     7     2    2
    26     4    26    1
    27     1    25    1
    28     1    33    1
    29     2    37    1
    30    26    25   ar
    31    26    27   ar
    32    25    29   ar
    33    33    37    2
    34    33    34    1
    35    37    36    1
    36    27    30    1
    37    27    28   ar
    38    43    41   ar
    39    29    28   ar
    40    29     5    1
    41    34     5    2
    42    34    35    1
    43    36    39    1
    44    36    35    2
    45    28    31    1
    46    39    40    1
    47    41    42   ar
    48    41    40    1
    49    35    38    1
    50    32    31    2
