@<TRIPOS>MOLECULE
1a00_HEM_A_1.pdb
 43 50 0 0 0
SMALL
GASTEIGER

@<TRIPOS>ATOM
      1 FE         93.5180   58.4680   -3.2120 Fe    142  HEM142      0.0000
      2  CHA       94.0940   61.8770   -3.3440 C.2   142  HEM142      0.0000
      3  CHB       96.4130   58.0070   -5.1700 C.2   142  HEM142      0.0000
      4  CHC       92.6620   55.2470   -3.7640 C.2   142  HEM142      0.0000
      5  CHD       90.1720   59.1250   -2.4020 C.2   142  HEM142      0.0000
      6  NA        94.9350   59.6800   -4.1160 N.ar  142  HEM142      0.0000
      7  C1A       95.0150   61.0570   -3.9770 C.ar  142  HEM142      0.0000
      8  C2A       96.2360   61.5130   -4.6050 C.ar  142  HEM142      0.0000
      9  C3A       96.8730   60.4550   -5.0940 C.ar  142  HEM142      0.0000
     10  C4A       96.0560   59.2820   -4.8000 C.ar  142  HEM142      0.0000
     11  CMA       98.2080   60.3920   -5.8700 C.3   142  HEM142      0.0000
     12  CAA       96.6300   63.0000   -4.6130 C.2   142  HEM142      0.0000
     13  CBA       97.7820   63.4960   -3.7640 C.2   142  HEM142      0.0000
     14  CGA       98.0560   64.9810   -3.8610 C.2   142  HEM142      0.0000
     15  O1A       98.7120   65.5170   -2.9300 O.co2 142  HEM142      0.0000
     16  O2A       97.6120   65.6150   -4.8400 O.co2 142  HEM142      0.0000
     17  NB        94.3440   56.9550   -4.2790 N.2   142  HEM142      0.0000
     18  C1B       95.5670   56.9540   -4.9400 C.2   142  HEM142      0.0000
     19  C2B       95.8550   55.6020   -5.3570 C.2   142  HEM142      0.0000
     20  C3B       94.8170   54.8230   -4.9840 C.2   142  HEM142      0.0000
     21  C4B       93.8770   55.6650   -4.2920 C.2   142  HEM142      0.0000
     22  CMB       97.1660   55.2160   -6.0850 C.3   142  HEM142      0.0000
     23  CAB       94.6020   53.3080   -5.1080 C.2   142  HEM142      0.0000
     24  CBB       95.0380   52.5570   -6.0940 C.2   142  HEM142      0.0000
     25  NC        91.7510   57.4030   -3.1460 N.ar  142  HEM142      0.0000
     26  C1C       91.6240   56.0460   -3.3670 C.ar  142  HEM142      0.0000
     27  C2C       90.2490   55.6360   -3.1020 C.ar  142  HEM142      0.0000
     28  C3C       89.5510   56.7290   -2.7710 C.ar  142  HEM142      0.0000
     29  C4C       90.5000   57.8450   -2.7570 C.ar  142  HEM142      0.0000
     30  CMC       89.7410   54.1880   -3.2460 C.3   142  HEM142      0.0000
     31  CAC       88.0700   56.8510   -2.3920 C.2   142  HEM142      0.0000
     32  CBC       87.0780   56.2960   -3.0650 C.2   142  HEM142      0.0000
     33  ND        92.3750   60.1380   -2.9300 N.2   142  HEM142      0.0000
     34  C1D       91.0430   60.1910   -2.5820 C.2   142  HEM142      0.0000
     35  C2D       90.6480   61.5680   -2.3800 C.2   142  HEM142      0.0000
     36  C3D       91.7320   62.3150   -2.6050 C.2   142  HEM142      0.0000
     37  C4D       92.8090   61.4570   -2.9920 C.2   142  HEM142      0.0000
     38  CMD       89.2270   61.9920   -1.9550 C.3   142  HEM142      0.0000
     39  CAD       91.8440   63.8610   -2.6060 C.3   142  HEM142      0.0000
     40  CBD       91.4510   64.5040   -3.9510 C.3   142  HEM142      0.0000
     41  CGD       91.3950   66.0080   -3.9590 C.2   142  HEM142      0.0000
     42  O1D       92.1140   66.6100   -4.7940 O.co2 142  HEM142      0.0000
     43  O2D       90.6200   66.5430   -3.1150 O.co2 142  HEM142      0.0000
@<TRIPOS>BOND
     1    24    23    2
     2    22    19    1
     3    11     9    1
     4    19    20    2
     5    19    18    1
     6     3    18    1
     7     3    10    2
     8    23    20    1
     9     9    10   ar
    10     9     8   ar
    11    20    21    1
    12    18    17    2
    13    16    14   ar
    14    10     6   ar
    15    42    41   ar
    16    12     8    1
    17    12    13    2
    18     8     7   ar
    19    21    17    1
    20    21     4    2
    21    17     1    1
    22     6     7   ar
    23     6     1    1
    24     7     2    2
    25    41    40    1
    26    41    43   ar
    27    40    39    1
    28    14    13    1
    29    14    15   ar
    30     4    26    1
    31    26    25   ar
    32    26    27   ar
    33     2    37    1
    34    30    27    1
    35     1    25    1
    36     1    33    1
    37    25    29   ar
    38    27    28   ar
    39    32    31    2
    40    37    33    2
    41    37    36    1
    42    33    34    1
    43    28    29   ar
    44    28    31    1
    45    29     5    1
    46    39    36    1
    47    36    35    2
    48    34     5    2
    49    34    35    1
    50    35    38    1
