@<TRIPOS>MOLECULE
1a01_HEM_A_1.pdb
 43 50 0 0 0
SMALL
GASTEIGER

@<TRIPOS>ATOM
      1 FE         18.4370   18.4890   23.8030 Fe    142  HEM142      0.0000
      2  CHA       18.7570   18.6800   20.3450 C.2   142  HEM142      0.0000
      3  CHB       21.0880   20.6610   24.1220 C.2   142  HEM142      0.0000
      4  CHC       18.7360   17.7470   27.1880 C.2   142  HEM142      0.0000
      5  CHD       16.7660   15.4430   23.4040 C.2   142  HEM142      0.0000
      6  NA        19.6770   19.4490   22.5000 N.2   142  HEM142      0.0000
      7  C1A       19.6080   19.4280   21.1160 C.2   142  HEM142      0.0000
      8  C2A       20.6500   20.3060   20.5970 C.2   142  HEM142      0.0000
      9  C3A       21.2950   20.8630   21.6180 C.2   142  HEM142      0.0000
     10  C4A       20.7010   20.3250   22.8330 C.2   142  HEM142      0.0000
     11  CMA       22.4470   21.8710   21.6360 C.3   142  HEM142      0.0000
     12  CAA       20.8760   20.5180   19.0790 C.3   142  HEM142      0.0000
     13  CBA       20.0860   21.7210   18.5220 C.3   142  HEM142      0.0000
     14  CGA       20.4460   22.0570   17.0880 C.2   142  HEM142      0.0000
     15  O1A       20.1940   23.2280   16.7070 O.co2 142  HEM142      0.0000
     16  O2A       20.9610   21.1410   16.3970 O.co2 142  HEM142      0.0000
     17  NB        19.7280   19.0240   25.3290 N.ar  142  HEM142      0.0000
     18  C1B       20.6590   20.0520   25.2870 C.ar  142  HEM142      0.0000
     19  C2B       21.1300   20.3570   26.6300 C.ar  142  HEM142      0.0000
     20  C3B       20.4670   19.5520   27.4600 C.ar  142  HEM142      0.0000
     21  C4B       19.5880   18.6930   26.6700 C.ar  142  HEM142      0.0000
     22  CMB       22.1830   21.4570   26.9080 C.3   142  HEM142      0.0000
     23  CAB       20.5160   19.4410   29.0040 C.2   142  HEM142      0.0000
     24  CBB       21.6360   19.6740   29.6840 C.2   142  HEM142      0.0000
     25  NC        17.8810   16.9110   25.0270 N.2   142  HEM142      0.0000
     26  C1C       18.0390   16.8400   26.4030 C.2   142  HEM142      0.0000
     27  C2C       17.3820   15.6500   26.8940 C.2   142  HEM142      0.0000
     28  C3C       16.8660   14.9880   25.8470 C.2   142  HEM142      0.0000
     29  C4C       17.1710   15.7780   24.6700 C.2   142  HEM142      0.0000
     30  CMC       17.3320   15.2290   28.3840 C.3   142  HEM142      0.0000
     31  CAC       16.0670   13.6670   25.8280 C.2   142  HEM142      0.0000
     32  CBC       16.2920   12.6340   26.6380 C.2   142  HEM142      0.0000
     33  ND        17.9020   17.2870   22.2380 N.ar  142  HEM142      0.0000
     34  C1D       17.1360   16.1460   22.2780 C.ar  142  HEM142      0.0000
     35  C2D       16.8160   15.7290   20.9160 C.ar  142  HEM142      0.0000
     36  C3D       17.3620   16.6330   20.1030 C.ar  142  HEM142      0.0000
     37  C4D       18.0910   17.6020   20.8840 C.ar  142  HEM142      0.0000
     38  CMD       15.9710   14.4910   20.5260 C.3   142  HEM142      0.0000
     39  CAD       17.3230   16.6300   18.5460 C.3   142  HEM142      0.0000
     40  CBD       18.3740   15.6240   18.0190 C.3   142  HEM142      0.0000
     41  CGD       18.6080   15.6790   16.5220 C.2   142  HEM142      0.0000
     42  O1D       19.7270   16.1410   16.1830 O.co2 142  HEM142      0.0000
     43  O2D       17.6550   15.2580   15.8400 O.co2 142  HEM142      0.0000
@<TRIPOS>BOND
     1    43    41   ar
     2    42    41   ar
     3    16    14   ar
     4    41    40    1
     5    15    14   ar
     6    14    13    1
     7    40    39    1
     8    13    12    1
     9    39    36    1
    10    12     8    1
    11    36    37   ar
    12    36    35   ar
    13     2    37    2
    14     2     7    1
    15    38    35    1
    16     8     7    1
    17     8     9    2
    18    37    33   ar
    19    35    34   ar
    20     7     6    2
    21     9    11    1
    22     9    10    1
    23    33    34   ar
    24    33     1    1
    25    34     5    2
    26     6    10    1
    27     6     1    1
    28    10     3    2
    29     5    29    1
    30     1    25    1
    31     1    17    1
    32     3    18    1
    33    29    25    2
    34    29    28    1
    35    25    26    1
    36    18    17   ar
    37    18    19   ar
    38    17    21   ar
    39    31    28    1
    40    31    32    2
    41    28    27    2
    42    26    27    1
    43    26     4    2
    44    19    22    1
    45    19    20   ar
    46    21     4    1
    47    21    20   ar
    48    27    30    1
    49    20    23    1
    50    23    24    2
