@<TRIPOS>MOLECULE
1a05_IPM_A_1.pdb
 12 11 0 0 0
SMALL
GASTEIGER

@<TRIPOS>ATOM
      1  C1        10.0750   24.3660   44.4150 C.2   401  IPM401      0.3952
      2  C2        11.3660   23.8310   43.7730 C.3   401  IPM401      0.2645
      3  C3        11.3920   22.2700   43.9240 C.3   401  IPM401      0.1448
      4  C4        10.2160   21.6530   43.1390 C.2   401  IPM401      0.3674
      5  C5        12.7850   21.7920   43.3680 C.3   401  IPM401      0.0138
      6  C6        13.0080   20.2960   43.6190 C.3   401  IPM401      0.0007
      7  C7        13.9540   22.6300   43.8960 C.3   401  IPM401      0.0007
      8  O1        11.5870   24.1860   42.4190 O.3   401  IPM401     -0.2103
      9  O2         9.9870   24.3700   45.6530 O.co2 401  IPM401     -0.2428
     10  O3         9.1390   24.7560   43.6890 O.co2 401  IPM401     -0.2428
     11  O4        10.3660   21.3560   41.9390 O.co2 401  IPM401     -0.2456
     12  O5         9.1240   21.4860   43.7220 O.co2 401  IPM401     -0.2456
@<TRIPOS>BOND
     1    11     4   ar
     2     8     2    1
     3     4    12   ar
     4     4     3    1
     5     5     6    1
     6     5     7    1
     7     5     3    1
     8    10     1   ar
     9     2     3    1
    10     2     1    1
    11     1     9   ar
