@<TRIPOS>MOLECULE
1a07_III_C_1.pdb
 36 36 0 0 0
SMALL
GASTEIGER

@<TRIPOS>ATOM
      1  C         41.8580    7.6880   24.7570 C.2   100  ACE100      0.2233
      2  O         41.7940    8.9060   24.8540 O.2   100  ACE100     -0.2751
      3  CH3       41.8060    6.7750   25.9630 C.3   100  ACE100      0.0946
      4  N         42.1110    7.0420   23.6420 N.am  101  TYR101     -0.2981
      5  CA        42.1910    7.6800   22.3620 C.3   101  TYR101      0.1529
      6  C         41.0470    7.2960   21.4640 C.2   101  TYR101      0.2410
      7  O         40.6400    6.1200   21.3870 O.2   101  TYR101     -0.2733
      8  CB        43.4460    7.2820   21.6760 C.3   101  TYR101      0.0553
      9  CG        44.6590    7.7880   22.3990 C.ar  101  TYR101     -0.0200
     10  CD1       45.3010    6.9530   23.2880 C.ar  101  TYR101     -0.0042
     11  CD2       45.1370    9.0420   22.1240 C.ar  101  TYR101     -0.0042
     12  CE1       46.4430    7.3840   23.9290 C.ar  101  TYR101     -0.0003
     13  CE2       46.2720    9.4640   22.7540 C.ar  101  TYR101     -0.0003
     14  CZ        46.9490    8.6400   23.6440 C.ar  101  TYR101     -0.0000
     15  H         42.2520    6.0740   23.6880 H     101  TYR101      0.1498
     16  N         40.6400    8.3280   20.7570 N.am  102  GLU102     -0.2970
     17  CA        39.6050    8.2120   19.7810 C.3   102  GLU102      0.1494
     18  C         40.0590    7.4820   18.5040 C.2   102  GLU102      0.2435
     19  O         41.2620    7.5080   18.2320 O.2   102  GLU102     -0.2731
     20  CB        39.1200    9.6040   19.4640 C.3   102  GLU102      0.0408
     21  CG        38.5130   10.3350   20.6280 C.3   102  GLU102      0.1163
     22  CD        37.4490    9.5200   21.3480 C.2   102  GLU102      0.3649
     23  OE1       36.3880    9.2860   20.7440 O.co2 102  GLU102     -0.2457
     24  OE2       37.7040    9.1270   22.4940 O.co2 102  GLU102     -0.2457
     25  H         41.0590    9.2010   20.9050 H     102  GLU102      0.1499
     26  N         39.2210    6.7470   17.7280 N.am  103  DIP103     -0.2782
     27  C1        37.8750    6.4520   18.1920 C.3   103  DIP103      0.0934
     28  C2        38.0810    5.2500   19.0710 C.3   103  DIP103      0.0215
     29  C3        36.7660    4.9540   19.6480 C.3   103  DIP103      0.0018
     30  C4        37.0060    3.6480   20.3270 C.3   103  DIP103      0.0001
     31  C5        35.6060    3.0530   20.6130 C.3   103  DIP103      0.0000
     32  C1'       39.6130    6.2760   16.4020 C.3   103  DIP103      0.0934
     33  C2'       38.9260    7.1280   15.3180 C.3   103  DIP103      0.0215
     34  C3'       39.5520    8.4960   15.0780 C.3   103  DIP103      0.0018
     35  C4'       38.7770    9.1790   13.9870 C.3   103  DIP103      0.0001
     36  C5'       39.2690   10.6120   13.9060 C.3   103  DIP103      0.0000
@<TRIPOS>BOND
     1    36    35    1
     2    35    34    1
     3    34    33    1
     4    33    32    1
     5    32    26    1
     6    26    27    1
     7    26    18   am
     8    27    28    1
     9    19    18    2
    10    18    17    1
    11    28    29    1
    12    20    17    1
    13    20    21    1
    14    29    30    1
    15    17    16    1
    16    30    31    1
    17    21    22    1
    18    23    22   ar
    19    16    25    1
    20    16     6   am
    21    22    24   ar
    22     7     6    2
    23     6     5    1
    24     8     5    1
    25     8     9    1
    26    11     9   ar
    27    11    13   ar
    28     5     4    1
    29     9    10   ar
    30    13    14   ar
    31    10    12   ar
    32     4    15    1
    33     4     1   am
    34    14    12   ar
    35     1     2    2
    36     1     3    1
