@<TRIPOS>MOLECULE
1a08_III_C_1.pdb
 43 40 0 0 0
SMALL
GASTEIGER

@<TRIPOS>ATOM
      1  C         41.3330    7.6410   24.6710 C.2   100  ACE100      0.2794
      2  O         41.0370    8.8260   24.9230 O.2   100  ACE100     -0.2794
      3  CH3       41.5940    6.6140   25.7620 C.3   100  ACE100      0.0000
      4  N         41.6110    7.1210   23.4750 N.3   101  TYR101     -0.2451
      5  CA        41.4640    7.8470   22.2290 C.3   101  TYR101      0.0888
      6  C         40.2360    7.3890   21.4600 C.2   101  TYR101      0.2998
      7  O         39.7050    6.2960   21.6760 O.2   101  TYR101     -0.2652
      8  CB        42.7500    7.6550   21.4040 C.3   101  TYR101      0.0448
      9  CG        43.9840    8.0510   22.2010 C.ar  101  TYR101     -0.0208
     10  CD1       44.7090    7.1450   23.0070 C.ar  101  TYR101     -0.0044
     11  CD2       44.3870    9.3440   22.1140 C.ar  101  TYR101     -0.0044
     12  CE1       45.8310    7.5360   23.7220 C.ar  101  TYR101      0.0011
     13  CE2       45.4940    9.7320   22.8140 C.ar  101  TYR101      0.0011
     14  CZ        46.2270    8.8610   23.6100 C.ar  101  TYR101      0.0444
     15  C1        47.4870    9.4350   24.2980 C.3   101  TYR101      0.3249
     16  F1        48.6090    8.6190   24.1110 F     101  TYR101     -0.1920
     17  F2        47.8940   10.4980   23.4710 F     101  TYR101     -0.1920
     18  P         47.4770    9.8790   26.0920 P.3   101  TYR101      0.1831
     19  O1P       48.7700   10.5430   26.2560 O.3   101  TYR101     -0.3533
     20  O2P       47.4560    8.5560   26.7380 O.3   101  TYR101     -0.3533
     21  O3P       46.2490   10.7280   26.2340 O.2   101  TYR101     -0.4543
     22  H         42.3920    7.2800   24.0450 H     101  TYR101      0.1414
     23  N         39.8530    8.2640   20.5620 N.am  102  GLU102     -0.2910
     24  CA        38.7410    8.0620   19.6740 C.3   102  GLU102      0.1497
     25  C         39.1750    7.3110   18.4070 C.2   102  GLU102      0.2435
     26  O         40.3620    7.4490   18.0940 O.2   102  GLU102     -0.2731
     27  CB        38.1900    9.3900   19.3050 C.3   102  GLU102      0.0408
     28  CG        37.6290   10.1980   20.4590 C.3   102  GLU102      0.1163
     29  CD        36.4230    9.5560   21.1200 C.2   102  GLU102      0.3649
     30  OE1       35.4870    9.1800   20.4000 O.co2 102  GLU102     -0.2457
     31  OE2       36.4150    9.4710   22.3470 O.co2 102  GLU102     -0.2457
     32  H         39.7100    8.6740   21.4400 H     102  GLU102      0.1503
     33  N         38.3400    6.4580   17.6920 N.am  103  DIP103     -0.2782
     34  C1        37.0330    6.0690   18.2190 C.3   103  DIP103      0.0934
     35  C2        37.3680    5.0290   19.2960 C.3   103  DIP103      0.0215
     36  C3        36.2460    4.7760   20.2680 C.3   103  DIP103      0.0018
     37  C4        35.1220    3.9400   19.7130 C.3   103  DIP103      0.0001
     38  C5        35.2460    2.4610   20.1590 C.3   103  DIP103      0.0000
     39  C1'       38.6840    5.9690   16.3670 C.3   103  DIP103      0.0934
     40  C2'       37.8280    6.7260   15.3260 C.3   103  DIP103      0.0215
     41  C3'       38.3260    8.2080   15.1210 C.3   103  DIP103      0.0018
     42  C4'       37.7080    9.0520   13.9690 C.3   103  DIP103      0.0001
     43  C5'       38.5800   10.3120   13.7740 C.3   103  DIP103      0.0000
@<TRIPOS>BOND
     1    43    42    1
     2    42    41    1
     3    41    40    1
     4    40    39    1
     5    39    33    1
     6    33    34    1
     7    33    25   am
     8    26    25    2
     9    34    35    1
    10    25    24    1
    11    35    36    1
    12    27    24    1
    13    27    28    1
    14    24    23    1
    15    37    38    1
    16    37    36    1
    17    30    29   ar
    18    28    29    1
    19    23    32    1
    20    23     6   am
    21    29    31   ar
    22     8     9    1
    23     8     5    1
    24     6     7    2
    25    11     9   ar
    26    11    13   ar
    27     9    10   ar
    28     5     4    1
    29    13    14   ar
    30    10    12   ar
    31    17    15    1
    32     4    22    1
    33    14    12   ar
    34    14    15    1
    35    16    15    1
    36    15    18    1
    37     1     2    2
    38    18    21    2
    39    18    19    1
    40    18    20    1
