@<TRIPOS>MOLECULE
1a09_III_C_1.pdb
 44 44 0 0 0
SMALL
GASTEIGER

@<TRIPOS>ATOM
      1  C         41.5690    7.6580   23.9860 C.2   100  ACE100      0.2233
      2  O         41.1850    8.8370   24.0740 O.2   100  ACE100     -0.2751
      3  CH3       41.6080    6.7520   25.1990 C.3   100  ACE100      0.0946
      4  N         41.9470    7.1470   22.8190 N.am  101  TYR101     -0.2981
      5  CA        42.0200    7.9800   21.6280 C.3   101  TYR101      0.1529
      6  C         40.9030    7.5910   20.6760 C.2   101  TYR101      0.2410
      7  O         40.4140    6.4590   20.6570 O.2   101  TYR101     -0.2733
      8  CB        43.4150    7.8260   20.9730 C.3   101  TYR101      0.0553
      9  CG        44.5820    8.2860   21.8500 C.ar  101  TYR101     -0.0201
     10  CD1       45.3280    9.4170   21.5490 C.ar  101  TYR101     -0.0030
     11  CD2       44.9450    7.5470   22.9810 C.ar  101  TYR101     -0.0011
     12  CE1       46.3990    9.8200   22.3110 C.ar  101  TYR101      0.0411
     13  CE2       46.0060    7.9400   23.7790 C.ar  101  TYR101      0.0369
     14  CZ        46.7240    9.0770   23.4160 C.ar  101  TYR101      0.1473
     15  CF        47.3460   11.0080   22.0440 C.3   101  TYR101      0.1666
     16  OH        47.8280    9.5570   24.1510 O.3   101  TYR101     -0.4000
     17  P         47.4170   10.2450   25.7320 P.3   101  TYR101      0.5887
     18  O1P       47.5280    8.9350   26.4310 O.3   101  TYR101     -0.1039
     19  O2P       46.0720   10.8710   25.5970 O.2   101  TYR101     -0.2114
     20  O3P       48.5930   11.1150   25.9320 O.3   101  TYR101     -0.1039
     21  OF        47.5820   11.1630   20.6750 O.3   101  TYR101     -0.3771
     22  H         42.1800    6.1970   22.7600 H     101  TYR101      0.1498
     23  HOF       47.9850   10.3640   20.3270 H     101  TYR101      0.2109
     24  N         40.4140    8.5720   19.9380 N.am  102  GLU102     -0.2970
     25  CA        39.3000    8.4030   19.0260 C.3   102  GLU102      0.1494
     26  C         39.6240    7.6770   17.7320 C.2   102  GLU102      0.2435
     27  O         40.7900    7.7110   17.3230 O.2   102  GLU102     -0.2731
     28  CB        38.7290    9.7400   18.6680 C.3   102  GLU102      0.0408
     29  CG        38.1620   10.5010   19.8320 C.3   102  GLU102      0.1163
     30  CD        36.9900    9.8410   20.5210 C.2   102  GLU102      0.3649
     31  OE1       35.9880    9.5130   19.8810 O.co2 102  GLU102     -0.2457
     32  OE2       37.0870    9.6910   21.7320 O.co2 102  GLU102     -0.2457
     33  H         40.8250    9.4580   20.0110 H     102  GLU102      0.1499
     34  N         38.6700    6.9840   17.0660 N.am  103  DIP103     -0.2782
     35  C1        37.3700    6.6720   17.6660 C.3   103  DIP103      0.0934
     36  C2        37.6030    5.4210   18.5170 C.3   103  DIP103      0.0215
     37  C3        36.2730    5.0170   19.0110 C.3   103  DIP103      0.0018
     38  C4        36.4210    3.9430   20.0280 C.3   103  DIP103      0.0001
     39  C5        34.9920    3.5810   20.4620 C.3   103  DIP103      0.0000
     40  C1'       38.9310    6.4700   15.7140 C.3   103  DIP103      0.0934
     41  C2'       38.2520    7.3850   14.6720 C.3   103  DIP103      0.0215
     42  C3'       39.0020    8.6740   14.3820 C.3   103  DIP103      0.0018
     43  C4'       38.2860    9.4370   13.2880 C.3   103  DIP103      0.0001
     44  C5'       38.9860   10.7990   13.0860 C.3   103  DIP103      0.0000
@<TRIPOS>BOND
     1    44    43    1
     2    43    42    1
     3    42    41    1
     4    41    40    1
     5    40    34    1
     6    34    35    1
     7    34    26   am
     8    27    26    2
     9    35    36    1
    10    26    25    1
    11    36    37    1
    12    28    25    1
    13    28    29    1
    14    37    38    1
    15    25    24    1
    16    29    30    1
    17    31    30   ar
    18    24    33    1
    19    24     6   am
    20    38    39    1
    21    23    21    1
    22    30    32   ar
    23     7     6    2
    24    21    15    1
    25     6     5    1
    26     8     5    1
    27     8     9    1
    28    10     9   ar
    29    10    12   ar
    30     5     4    1
    31     9    11   ar
    32    15    12    1
    33    12    14   ar
    34    22     4    1
    35     4     1   am
    36    11    13   ar
    37    14    13   ar
    38    14    16    1
    39     1     2    2
    40     1     3    1
    41    16    17    1
    42    19    17    2
    43    17    20    1
    44    17    18    1
