@<TRIPOS>MOLECULE
1a0f_GTS_A_1.pdb
 23 22 0 0 0
SMALL
GASTEIGER

@<TRIPOS>ATOM
      1  N1        42.4880  -36.0540   64.4040 N.3   203  GTS203     -0.1208
      2  CA1       41.2520  -36.6520   64.9670 C.3   203  GTS203      0.1948
      3  C1        40.9580  -37.9320   64.2670 C.2   203  GTS203      0.3819
      4  O11       41.2990  -38.0490   63.0530 O.co2 203  GTS203     -0.2441
      5  O12       40.3880  -38.8400   64.9340 O.co2 203  GTS203     -0.2441
      6  CB1       40.0750  -35.6790   64.9050 C.3   203  GTS203      0.0402
      7  CG1       38.8280  -36.1820   65.6370 C.3   203  GTS203      0.0889
      8  CD1       37.6810  -35.1980   65.5900 C.2   203  GTS203      0.2419
      9  OE1       37.8220  -34.1320   64.9490 O.2   203  GTS203     -0.2733
     10  N2        36.5560  -35.5140   66.2420 N.am  203  GTS203     -0.1961
     11  CA2       35.5290  -34.5480   66.4790 C.3   203  GTS203      0.1924
     12  C2        35.4120  -34.0870   67.8920 C.2   203  GTS203      0.2634
     13  O2        35.4750  -34.9240   68.7740 O.2   203  GTS203     -0.2714
     14  CB2       34.1900  -35.1580   66.0430 C.3   203  GTS203      0.1362
     15  SG2       33.8320  -34.9830   64.3520 S.3   203  GTS203     -0.1938
     16  O1S       34.9560  -35.5490   63.5390 O.3   203  GTS203     -0.3074
     17  O2S       32.5690  -35.6750   64.0090 O.3   203  GTS203     -0.3074
     18  O3S       33.6940  -33.5350   64.0260 O.3   203  GTS203     -0.3074
     19  N3        35.2450  -32.8100   68.1330 N.am  203  GTS203     -0.1917
     20  CA3       35.1070  -32.2260   69.4510 C.3   203  GTS203      0.2285
     21  C3        36.2350  -31.1770   69.6650 C.2   203  GTS203      0.3865
     22  O31       36.0960  -30.3720   70.6000 O.co2 203  GTS203     -0.2437
     23  O32       37.2230  -31.1980   68.8940 O.co2 203  GTS203     -0.2437
@<TRIPOS>BOND
     1     4     3   ar
     2    16    15    1
     3    17    15    1
     4    18    15    1
     5     3     5   ar
     6     3     2    1
     7    15    14    1
     8     1     2    1
     9     6     2    1
    10     6     7    1
    11     9     8    2
    12     8     7    1
    13     8    10   am
    14    14    11    1
    15    10    11    1
    16    11    12    1
    17    12    19   am
    18    12    13    2
    19    19    20    1
    20    23    21   ar
    21    20    21    1
    22    21    22   ar
