@<TRIPOS>MOLECULE
1a0g_PMP_A_1.pdb
 16 16 0 0 0
SMALL
GASTEIGER

@<TRIPOS>ATOM
      1  N1        42.7380   18.5790   11.1750 N.ar  285  PMP285     -0.2452
      2  C2        42.6360   18.0450   12.4440 C.ar  285  PMP285      0.0978
      3  C2A       41.3420   17.3280   12.8560 C.3   285  PMP285      0.0555
      4  C3        43.7220   18.0950   13.3200 C.ar  285  PMP285      0.2063
      5  O3        43.6220   17.5660   14.5900 O.3   285  PMP285     -0.2856
      6  C4        44.9050   18.6980   12.9250 C.ar  285  PMP285      0.0369
      7  C4A       46.1480   18.7650   13.8910 C.3   285  PMP285      0.1386
      8  N4A       45.8810   18.7870   15.2390 N.3   285  PMP285     -0.1261
      9  C5        45.0020   19.2200   11.6410 C.ar  285  PMP285      0.0275
     10  C6        43.9110   19.1770   10.7790 C.ar  285  PMP285      0.0965
     11  C5A       46.3410   19.7870   11.1560 C.3   285  PMP285      0.1816
     12  O4P       46.3980   21.1920   10.9890 O.3   285  PMP285     -0.2653
     13  P         47.5950   22.0140   11.5570 P.3   285  PMP285      0.5329
     14  O1P       47.0540   23.3140   11.9400 O.3   285  PMP285     -0.1145
     15  O2P       48.4920   22.3300   10.3370 O.2   285  PMP285     -0.2224
     16  O3P       48.3850   21.1910   12.4970 O.3   285  PMP285     -0.1145
@<TRIPOS>BOND
     1    15    13    2
     2    10     1   ar
     3    10     9   ar
     4    12    11    1
     5    12    13    1
     6    11     9    1
     7     1     2   ar
     8    13    14    1
     9    13    16    1
    10     9     6   ar
    11     2     3    1
    12     2     4   ar
    13     6     4   ar
    14     6     7    1
    15     4     5    1
    16     7     8    1
