@<TRIPOS>MOLECULE
1a0h_NAG_E_1.pdb
 14 14 0 0 0
SMALL
GASTEIGER

@<TRIPOS>ATOM
      1  C1       105.4700   22.4060   16.3450 C.3   584  NAG584      0.1665
      2  C2       104.2220   21.7420   16.8840 C.3   584  NAG584      0.1576
      3  C3       104.5350   21.0100   18.1610 C.3   584  NAG584      0.2069
      4  C4       105.6530   20.0190   17.9060 C.3   584  NAG584      0.2134
      5  C5       106.8620   20.7810   17.3540 C.3   584  NAG584      0.1809
      6  C6       108.0540   19.9050   17.0470 C.3   584  NAG584      0.2141
      7  C7       102.2550   22.9960   16.3150 C.2   584  NAG584      0.2420
      8  C8       101.2550   24.0530   16.7730 C.3   584  NAG584      0.0964
      9  N2       103.2220   22.7410   17.1850 N.am  584  NAG584     -0.2019
     10  O3       103.3630   20.3600   18.6150 O.3   584  NAG584     -0.2184
     11  O4       106.0110   19.3660   19.1360 O.3   584  NAG584     -0.2176
     12  O5       106.5030   21.4470   16.1350 O.3   584  NAG584     -0.3489
     13  O6       108.9070   19.8050   18.1740 O.3   584  NAG584     -0.2176
     14  O7       102.1830   22.4400   15.2040 O.2   584  NAG584     -0.2733
@<TRIPOS>BOND
     1    14     7    2
     2    12     1    1
     3    12     5    1
     4     7     8    1
     5     7     9   am
     6     1     2    1
     7     2     9    1
     8     2     3    1
     9     6     5    1
    10     6    13    1
    11     5     4    1
    12     4     3    1
    13     4    11    1
    14     3    10    1
