@<TRIPOS>MOLECULE
1a0h_0G6_B_1.pdb
 30 31 0 0 0
SMALL
GASTEIGER

@<TRIPOS>ATOM
      1  N         73.1350   36.9970   23.1320 N.3     1  0G61       -0.1228
      2  CA        73.6670   36.0140   22.1650 C.3     1  0G61        0.1721
      3  C         72.4690   35.5430   21.4200 C.2     1  0G61        0.2437
      4  O         71.6780   36.3730   20.9980 O.2     1  0G61       -0.2733
      5  CB        74.5930   36.7020   21.1750 C.3     1  0G61        0.0547
      6  CG        75.2600   35.7670   20.2330 C.ar    1  0G61       -0.0202
      7  CD1       76.0400   34.7220   20.7130 C.ar    1  0G61       -0.0042
      8  CD2       75.0880   35.9070   18.8590 C.ar    1  0G61       -0.0042
      9  CE1       76.6500   33.8170   19.8200 C.ar    1  0G61       -0.0003
     10  CE2       75.6900   35.0020   17.9530 C.ar    1  0G61       -0.0003
     11  CZ        76.4710   33.9590   18.4330 C.ar    1  0G61       -0.0000
     12  N1        72.3180   34.2160   21.2380 N.am    1  0G61       -0.2718
     13  CA1       71.2240   33.5250   20.5350 C.3     1  0G61        0.1535
     14  C1        69.8500   33.7700   21.0980 C.2     1  0G61        0.2595
     15  O1        69.7220   34.0650   22.2940 O.2     1  0G61       -0.2716
     16  CB1       71.5710   32.0430   20.7460 C.3     1  0G61        0.0310
     17  CG1       73.0300   32.0270   20.7340 C.3     1  0G61        0.0237
     18  CD        73.3630   33.2410   21.6140 C.3     1  0G61        0.0939
     19  N2        68.8360   33.6660   20.2400 N.am    1  0G61       -0.2032
     20  CA2       67.4480   33.7630   20.6890 C.3     1  0G61        0.1257
     21  C2        66.6820   32.5300   20.1960 C.3     1  0G61        0.1718
     22  O2        65.5460   32.3420   20.9670 O.3     1  0G61       -0.2213
     23  CB2       66.7720   35.0980   20.2970 C.3     1  0G61        0.0280
     24  CG2       66.8560   36.2310   21.3790 C.3     1  0G61        0.0488
     25  CD3       68.0650   37.2040   21.1190 C.3     1  0G61        0.2205
     26  NE        67.7910   38.6010   21.4510 N.pl3   1  0G61       -0.0865
     27  CZ1       67.1510   39.4570   20.6510 C.cat   1  0G61        0.5346
     28  NH1       66.7610   39.0700   19.4300 N.pl3   1  0G61        0.1354
     29  NH2       66.9210   40.7030   21.0660 N.pl3   1  0G61        0.1354
     30  C3        67.5900   31.2920   20.3660 C.3     1  0G61        0.0373
@<TRIPOS>BOND
     1    10    11   ar
     2    10     8   ar
     3    11     9   ar
     4     8     6   ar
     5    28    27    1
     6     9     7   ar
     7    21    30    1
     8    21    20    1
     9    21    22    1
    10     6     7   ar
    11     6     5    1
    12    19    20    1
    13    19    14   am
    14    23    20    1
    15    23    24    1
    16    13    16    1
    17    13    14    1
    18    13    12    1
    19    27    29    1
    20    27    26    2
    21    17    16    1
    22    17    18    1
    23     4     3    2
    24    14    15    2
    25    25    24    1
    26    25    26    1
    27     5     2    1
    28    12     3   am
    29    12    18    1
    30     3     2    1
    31     2     1    1
