@<TRIPOS>MOLECULE
1a0i_ATP_A_1.pdb
 31 33 0 0 0
SMALL
GASTEIGER

@<TRIPOS>ATOM
      1  PG        -1.4630  -18.5150   50.8220 P.3     1  ATP1        0.5373
      2  O1G       -1.2090  -18.0430   49.4400 O.2     1  ATP1       -0.2221
      3  O2G       -1.5300  -17.2750   51.6340 O.3     1  ATP1       -0.1143
      4  O3G       -2.8510  -19.0240   50.8640 O.3     1  ATP1       -0.1143
      5  PB         0.2750  -19.5630   52.8510 P.3     1  ATP1        0.2277
      6  O1B       -0.6560  -20.1450   53.8680 O.3     1  ATP1       -0.4368
      7  O2B        1.5190  -20.4000   52.9670 O.2     1  ATP1       -0.5168
      8  O3B       -0.3050  -19.5070   51.3540 O.3     1  ATP1       -0.2258
      9  PA         1.9300  -17.4650   53.3890 P.3     1  ATP1        0.2189
     10  O1A        2.5380  -17.6780   52.0570 O.2     1  ATP1       -0.5170
     11  O2A        1.6500  -15.9920   53.4350 O.3     1  ATP1       -0.4371
     12  O3A        0.6260  -18.1970   53.3730 O.3     1  ATP1       -0.2700
     13  O5'        2.9180  -17.8830   54.5940 O.3     1  ATP1       -0.3112
     14  C5'        2.6240  -17.4710   55.9330 C.3     1  ATP1        0.1813
     15  C4'        2.1670  -18.7010   56.7120 C.3     1  ATP1        0.1821
     16  O4'        2.9630  -19.8680   56.4910 O.3     1  ATP1       -0.3135
     17  C3'        1.2670  -18.7570   57.9400 C.3     1  ATP1        0.2184
     18  O3'       -0.0300  -18.1290   57.9260 O.3     1  ATP1       -0.2174
     19  C2'        1.3200  -20.2340   58.3070 C.3     1  ATP1        0.2570
     20  O2'        0.0620  -20.8690   58.1950 O.3     1  ATP1       -0.2130
     21  C1'        2.5980  -20.7080   57.6020 C.3     1  ATP1        0.3186
     22  N9         3.6340  -21.5680   58.2300 N.pl3   1  ATP1       -0.1439
     23  C8         3.9520  -22.9070   58.0310 C.3     1  ATP1        0.3377
     24  N7         5.0160  -23.2570   58.8640 N.2     1  ATP1       -0.2095
     25  C5         5.2750  -22.1220   59.5800 C.2     1  ATP1        0.2526
     26  C6         6.2540  -22.1790   60.5260 C.2     1  ATP1        0.4393
     27  N6         7.0510  -23.3780   60.8010 N.pl3   1  ATP1        0.2180
     28  N1         6.4270  -21.0100   61.2320 N.2     1  ATP1        0.0021
     29  C2         5.5890  -19.9570   60.8820 C.3     1  ATP1        0.5254
     30  N3         4.6040  -19.9410   59.9160 N.2     1  ATP1       -0.0055
     31  C4         4.4610  -21.1210   59.2230 C.2     1  ATP1        0.3518
@<TRIPOS>BOND
     1     2     1    2
     2     1     4    1
     3     1     8    1
     4     1     3    1
     5     8     5    1
     6    10     9    2
     7     5     7    2
     8     5    12    1
     9     5     6    1
    10    12     9    1
    11     9    11    1
    12     9    13    1
    13    13    14    1
    14    14    15    1
    15    16    15    1
    16    16    21    1
    17    15    17    1
    18    21    22    1
    19    21    19    1
    20    18    17    1
    21    17    19    1
    22    23    22    1
    23    23    24    1
    24    20    19    1
    25    22    31    1
    26    24    25    2
    27    31    25    1
    28    31    30    2
    29    25    26    1
    30    30    29    1
    31    26    27    1
    32    26    28    2
    33    29    28    1
