@<TRIPOS>MOLECULE
1a0l_APA_A_1.pdb
 15 15 0 0 0
SMALL
GASTEIGER

@<TRIPOS>ATOM
      1  C1        55.9600   46.5870   84.4290 C.2   301  APA301      0.3950
      2  O1        57.2970   46.9140   84.3680 O.co2 301  APA301     -0.2428
      3  OXT       55.2830   46.0500   85.3120 O.co2 301  APA301     -0.2428
      4  C2        55.1810   47.0120   83.0930 C.3   301  APA301      0.2583
      5  O2        56.1060   47.6670   82.2380 O.3   301  APA301     -0.2105
      6  C3        54.8450   45.6870   82.3660 C.3   301  APA301      0.0710
      7  C1'       54.5120   45.6540   80.8650 C.ar  301  APA301     -0.0190
      8  C2'       54.7770   44.6020   79.9870 C.ar  301  APA301     -0.0039
      9  C3'       54.4890   44.5310   78.6120 C.ar  301  APA301      0.0077
     10  C4'       53.8540   45.6770   78.0550 C.ar  301  APA301      0.0975
     11  C5'       53.5850   46.7410   78.9450 C.ar  301  APA301      0.0077
     12  C6'       53.8970   46.7450   80.2950 C.ar  301  APA301     -0.0039
     13  C         53.4840   45.8090   76.7040 C.2   301  APA301      0.4766
     14  N1        53.7160   44.8510   75.8260 N.pl3 301  APA301      0.2047
     15  N2        52.8910   46.9050   76.2360 N.pl3 301  APA301      0.2047
@<TRIPOS>BOND
     1    14    13    2
     2    15    13    1
     3    13    10    1
     4    10     9   ar
     5    10    11   ar
     6     9     8   ar
     7    11    12   ar
     8     8     7   ar
     9    12     7   ar
    10     7     6    1
    11     5     4    1
    12     6     4    1
    13     4     1    1
    14     2     1   ar
    15     1     3   ar
