@<TRIPOS>MOLECULE
1a0q_HEP_H_1.pdb
 23 23 0 0 0
SMALL
GASTEIGER

@<TRIPOS>ATOM
      1  C1        13.3050   20.7000   59.4050 C.3   214  HEP214      0.2125
      2  C2        12.4520   19.8420   58.4700 C.3   214  HEP214      0.0355
      3  C3        12.0320   18.5340   59.1240 C.3   214  HEP214      0.0025
      4  C4        11.2470   17.6310   58.1880 C.3   214  HEP214      0.0001
      5  C5        12.1070   17.1040   57.0260 C.3   214  HEP214      0.0000
      6  C6        14.7350   20.9920   55.3470 C.ar  214  HEP214      0.0374
      7  C7        15.1480   21.1380   54.0250 C.ar  214  HEP214      0.0031
      8  C8        16.3840   21.7100   53.7410 C.ar  214  HEP214      0.0002
      9  C9        17.2110   22.1400   54.7700 C.ar  214  HEP214      0.0031
     10  C10       16.7990   21.9980   56.0940 C.ar  214  HEP214      0.0374
     11  C11       15.5620   21.4200   56.3890 C.ar  214  HEP214      0.1468
     12  C12       12.7980   20.9330   61.8050 C.2   214  HEP214      0.2425
     13  C13       11.7430   20.6960   64.1740 C.3   214  HEP214      0.1237
     14  C14       11.8610   21.4970   62.8700 C.3   214  HEP214      0.0986
     15  C15       11.1530   19.2930   64.0350 C.2   214  HEP214      0.3654
     16  O1P       12.9990   22.5100   57.5130 O.2   214  HEP214     -0.2393
     17  O2P       14.5790   22.9640   59.4710 O.3   214  HEP214     -0.1284
     18  O3P       15.1750   21.2220   57.7500 O.3   214  HEP214     -0.4198
     19  O4        13.7620   20.2300   62.1210 O.2   214  HEP214     -0.2733
     20  O5        11.9380   18.3450   64.0180 O.co2 214  HEP214     -0.2456
     21  O6         9.9630   19.1340   64.3110 O.co2 214  HEP214     -0.2456
     22  N1        12.4830   21.1820   60.5180 N.am  214  HEP214     -0.1934
     23  P         13.9840   22.0210   58.4990 P.3   214  HEP214      0.4369
@<TRIPOS>BOND
     1     8     7   ar
     2     8     9   ar
     3     7     6   ar
     4     9    10   ar
     5     6    11   ar
     6    10    11   ar
     7    11    18    1
     8     5     4    1
     9    16    23    2
    10    18    23    1
    11     4     3    1
    12     2     3    1
    13     2     1    1
    14    23     1    1
    15    23    17    1
    16     1    22    1
    17    22    12   am
    18    12    19    2
    19    12    14    1
    20    14    13    1
    21    20    15   ar
    22    15    13    1
    23    15    21   ar
