@<TRIPOS>MOLECULE
1a0r_FAR_G_1.pdb
 15 14 0 0 0
SMALL
GASTEIGER

@<TRIPOS>ATOM
      1  C1         1.5380   26.4690   27.8390 C.3    72  FAR72       0.0300
      2  C2         2.4290   27.4430   28.5660 C.2    72  FAR72      -0.0342
      3  C3         2.9580   27.1250   29.7680 C.2    72  FAR72      -0.0478
      4  C5         3.8650   28.0630   30.5570 C.3    72  FAR72       0.0263
      5  C6         4.8280   28.7180   29.5870 C.3    72  FAR72       0.0297
      6  C7         5.8320   27.6710   29.1750 C.2    72  FAR72      -0.0343
      7  C8         7.1070   28.0300   28.9530 C.2    72  FAR72      -0.0482
      8  C9         8.2260   27.0780   28.5290 C.3    72  FAR72       0.0217
      9  C11        9.4550   27.8840   28.1600 C.3    72  FAR72       0.0043
     10  C12        9.4470   28.0620   26.6710 C.3    72  FAR72       0.0003
     11  C13        9.3900   29.2330   26.0030 C.3    72  FAR72       0.0000
     12  C14       10.5180   29.6840   25.1290 C.3    72  FAR72       0.0000
     13  C15        8.1950   30.1390   26.0970 C.3    72  FAR72       0.0000
     14  C4         2.6860   25.8180   30.4160 C.3    72  FAR72       0.0260
     15  C10        7.4770   29.4590   29.1270 C.3    72  FAR72       0.0260
@<TRIPOS>BOND
     1    12    11    1
     2    11    13    1
     3    11    10    1
     4    10     9    1
     5     1     2    1
     6     9     8    1
     7     8     7    1
     8     2     3    2
     9     7    15    1
    10     7     6    2
    11     6     5    1
    12     5     4    1
    13     3    14    1
    14     3     4    1
