@<TRIPOS>MOLECULE
1a0t_SUC_P_1.pdb
 23 24 0 0 0
SMALL
GASTEIGER

@<TRIPOS>ATOM
      1  C1       -44.9520  -14.6450  -14.2580 C.3     1  SUC1        0.2713
      2  C2       -43.9740  -15.8130  -14.4360 C.3     1  SUC1        0.2406
      3  C3       -44.3250  -16.9490  -13.4760 C.3     1  SUC1        0.2198
      4  C4       -44.2860  -16.4420  -12.0850 C.3     1  SUC1        0.2144
      5  C5       -45.2770  -15.3040  -11.9210 C.3     1  SUC1        0.1835
      6  C6       -45.2450  -14.7580  -10.5290 C.3     1  SUC1        0.2142
      7  O1       -46.2730  -15.0610  -14.6480 O.3     1  SUC1       -0.3033
      8  O2       -43.9850  -16.2330  -15.8010 O.3     1  SUC1       -0.2149
      9  O3       -43.3750  -17.9870  -13.6420 O.3     1  SUC1       -0.2174
     10  O4       -44.6130  -17.5380  -11.1870 O.3     1  SUC1       -0.2176
     11  O5       -44.9180  -14.2440  -12.8600 O.3     1  SUC1       -0.3256
     12  O6       -46.1150  -15.5190   -9.6790 O.3     1  SUC1       -0.2176
     13  C1'      -47.2710  -13.5190  -16.2880 C.3     1  SUC1        0.2406
     14  C2'      -47.2900  -14.0250  -14.8500 C.3     1  SUC1        0.2516
     15  C3'      -48.6560  -14.5810  -14.3610 C.3     1  SUC1        0.2381
     16  C4'      -48.6700  -14.1750  -12.9030 C.3     1  SUC1        0.2167
     17  C5'      -48.0640  -12.7740  -13.0260 C.3     1  SUC1        0.1835
     18  C6'      -47.5100  -12.1450  -11.7790 C.3     1  SUC1        0.2142
     19  O1'      -48.4900  -12.8180  -16.5360 O.3     1  SUC1       -0.2149
     20  O2'      -47.0210  -12.9340  -14.0020 O.3     1  SUC1       -0.3272
     21  O3'      -48.8650  -15.9510  -14.6060 O.3     1  SUC1       -0.2150
     22  O4'      -50.0050  -14.1820  -12.3880 O.3     1  SUC1       -0.2175
     23  O6'      -47.9020  -12.8310  -10.6210 O.3     1  SUC1       -0.2176
@<TRIPOS>BOND
     1    19    13    1
     2    13    14    1
     3     8     2    1
     4    14     7    1
     5    14    15    1
     6    14    20    1
     7     7     1    1
     8    21    15    1
     9     2     1    1
    10     2     3    1
    11    15    16    1
    12     1    11    1
    13    20    17    1
    14     9     3    1
    15     3     4    1
    16    17    16    1
    17    17    18    1
    18    16    22    1
    19    11     5    1
    20     4     5    1
    21     4    10    1
    22     5     6    1
    23    18    23    1
    24     6    12    1
