@<TRIPOS>MOLECULE
1a0u_HEM_A_1.pdb
 43 50 0 0 0
SMALL
GASTEIGER

@<TRIPOS>ATOM
      1 FE          8.1940   40.5070  -15.3140 Fe    142  HEM142      0.0000
      2  CHA        6.6300   43.2930  -16.6130 C.2   142  HEM142      0.0000
      3  CHB        6.1240   40.7070  -12.5410 C.2   142  HEM142      0.0000
      4  CHC       10.1390   38.1770  -13.6290 C.2   142  HEM142      0.0000
      5  CHD       10.8720   41.0880  -17.4730 C.2   142  HEM142      0.0000
      6  NA         6.7060   41.7560  -14.6900 N.2   142  HEM142      0.0000
      7  C1A        6.1800   42.8090  -15.3950 C.2   142  HEM142      0.0000
      8  C2A        5.0680   43.3570  -14.6670 C.2   142  HEM142      0.0000
      9  C3A        4.9090   42.6390  -13.5590 C.2   142  HEM142      0.0000
     10  C4A        5.9300   41.6290  -13.5460 C.2   142  HEM142      0.0000
     11  CMA        3.8710   42.8210  -12.4180 C.3   142  HEM142      0.0000
     12  CAA        4.2680   44.5590  -15.2110 C.3   142  HEM142      0.0000
     13  CBA        3.1670   44.2570  -16.2390 C.3   142  HEM142      0.0000
     14  CGA        2.1610   45.3860  -16.3720 C.2   142  HEM142      0.0000
     15  O1A        1.1000   45.2570  -15.7070 O.co2 142  HEM142      0.0000
     16  O2A        2.4820   46.3620  -17.0970 O.co2 142  HEM142      0.0000
     17  NB         8.1480   39.6360  -13.4580 N.ar  142  HEM142      0.0000
     18  C1B        7.2200   39.8620  -12.4700 C.ar  142  HEM142      0.0000
     19  C2B        7.5110   38.9940  -11.3350 C.ar  142  HEM142      0.0000
     20  C3B        8.5990   38.2840  -11.6350 C.ar  142  HEM142      0.0000
     21  C4B        9.0210   38.6820  -12.9700 C.ar  142  HEM142      0.0000
     22  CMB        6.6400   38.9820  -10.0620 C.3   142  HEM142      0.0000
     23  CAB        9.3890   37.2630  -10.8110 C.2   142  HEM142      0.0000
     24  CBB        8.8620   36.4250   -9.9540 C.2   142  HEM142      0.0000
     25  NC        10.1000   39.7660  -15.5390 N.2   142  HEM142      0.0000
     26  C1C       10.7160   38.8100  -14.7340 C.2   142  HEM142      0.0000
     27  C2C       12.0720   38.6100  -15.1830 C.2   142  HEM142      0.0000
     28  C3C       12.2770   39.4200  -16.2210 C.2   142  HEM142      0.0000
     29  C4C       11.0460   40.1580  -16.4640 C.2   142  HEM142      0.0000
     30  CMC       13.0360   37.6160  -14.5140 C.3   142  HEM142      0.0000
     31  CAC       13.5460   39.6140  -17.0820 C.2   142  HEM142      0.0000
     32  CBC       14.7660   39.6130  -16.5510 C.2   142  HEM142      0.0000
     33  ND         8.6860   41.9310  -16.7100 N.ar  142  HEM142      0.0000
     34  C1D        9.7850   41.9320  -17.5580 C.ar  142  HEM142      0.0000
     35  C2D        9.6290   42.9820  -18.5500 C.ar  142  HEM142      0.0000
     36  C3D        8.4590   43.5790  -18.3060 C.ar  142  HEM142      0.0000
     37  C4D        7.8580   42.9370  -17.1580 C.ar  142  HEM142      0.0000
     38  CMD       10.6700   43.3210  -19.6420 C.3   142  HEM142      0.0000
     39  CAD        7.7980   44.7800  -19.0340 C.3   142  HEM142      0.0000
     40  CBD        8.2630   46.1330  -18.4960 C.3   142  HEM142      0.0000
     41  CGD        7.7840   47.3480  -19.2370 C.2   142  HEM142      0.0000
     42  O1D        7.2730   48.2770  -18.5650 O.co2 142  HEM142      0.0000
     43  O2D        7.9340   47.3560  -20.4810 O.co2 142  HEM142      0.0000
@<TRIPOS>BOND
     1    43    41   ar
     2    38    35    1
     3    41    42   ar
     4    41    40    1
     5    39    40    1
     6    39    36    1
     7    35    36   ar
     8    35    34   ar
     9    36    37   ar
    10    34     5    2
    11    34    33   ar
    12     5    29    1
    13    37    33   ar
    14    37     2    2
    15    16    14   ar
    16    31    32    2
    17    31    28    1
    18    33     1    1
    19     2     7    1
    20    29    28    1
    21    29    25    2
    22    14    13    1
    23    14    15   ar
    24    13    12    1
    25    28    27    2
    26    25     1    1
    27    25    26    1
    28     7     6    2
    29     7     8    1
    30     1     6    1
    31     1    17    1
    32    12     8    1
    33    27    26    1
    34    27    30    1
    35    26     4    2
    36     6    10    1
    37     8     9    2
    38     4    21    1
    39     9    10    1
    40     9    11    1
    41    10     3    2
    42    17    21   ar
    43    17    18   ar
    44    21    20   ar
    45     3    18    1
    46    18    19   ar
    47    20    19   ar
    48    20    23    1
    49    19    22    1
    50    23    24    2
