@<TRIPOS>MOLECULE
1a0z_HEM_A_1.pdb
 43 50 0 0 0
SMALL
GASTEIGER

@<TRIPOS>ATOM
      1 FE         93.2750   58.5310   -3.2100 Fe    142  HEM142      0.0000
      2  CHA       93.8640   61.8860   -3.3210 C.2   142  HEM142      0.0000
      3  CHB       96.2170   58.0480   -5.1110 C.2   142  HEM142      0.0000
      4  CHC       92.4600   55.2900   -3.7750 C.2   142  HEM142      0.0000
      5  CHD       89.9630   59.1560   -2.3640 C.2   142  HEM142      0.0000
      6  NA        94.7300   59.7240   -4.0570 N.ar  142  HEM142      0.0000
      7  C1A       94.7920   61.1000   -3.9570 C.ar  142  HEM142      0.0000
      8  C2A       95.9880   61.5590   -4.6170 C.ar  142  HEM142      0.0000
      9  C3A       96.6280   60.4990   -5.1020 C.ar  142  HEM142      0.0000
     10  C4A       95.8440   59.3210   -4.7560 C.ar  142  HEM142      0.0000
     11  CMA       97.9570   60.4490   -5.8940 C.3   142  HEM142      0.0000
     12  CAA       96.3790   63.0430   -4.7040 C.3   142  HEM142      0.0000
     13  CBA       97.5380   63.5230   -3.8410 C.3   142  HEM142      0.0000
     14  CGA       97.7590   65.0160   -3.8600 C.2   142  HEM142      0.0000
     15  O1A       98.3140   65.5070   -2.8490 O.co2 142  HEM142      0.0000
     16  O2A       97.3620   65.6520   -4.8610 O.co2 142  HEM142      0.0000
     17  NB        94.1370   57.0010   -4.2680 N.2   142  HEM142      0.0000
     18  C1B       95.3640   56.9870   -4.8990 C.2   142  HEM142      0.0000
     19  C2B       95.6730   55.6350   -5.2960 C.2   142  HEM142      0.0000
     20  C3B       94.6430   54.8560   -4.9370 C.2   142  HEM142      0.0000
     21  C4B       93.6730   55.7080   -4.2900 C.2   142  HEM142      0.0000
     22  CMB       97.0080   55.2570   -6.0060 C.3   142  HEM142      0.0000
     23  CAB       94.4070   53.3490   -5.0640 C.2   142  HEM142      0.0000
     24  CBB       94.7580   52.6220   -6.1070 C.2   142  HEM142      0.0000
     25  NC        91.5340   57.4390   -3.1250 N.ar  142  HEM142      0.0000
     26  C1C       91.4240   56.0860   -3.3660 C.ar  142  HEM142      0.0000
     27  C2C       90.0520   55.6630   -3.1210 C.ar  142  HEM142      0.0000
     28  C3C       89.3460   56.7410   -2.7590 C.ar  142  HEM142      0.0000
     29  C4C       90.2830   57.8640   -2.7270 C.ar  142  HEM142      0.0000
     30  CMC       89.5930   54.1930   -3.3060 C.3   142  HEM142      0.0000
     31  CAC       87.8630   56.8550   -2.3870 C.2   142  HEM142      0.0000
     32  CBC       86.8540   56.5400   -3.1920 C.2   142  HEM142      0.0000
     33  ND        92.1360   60.1810   -2.9060 N.2   142  HEM142      0.0000
     34  C1D       90.8090   60.2360   -2.5400 C.2   142  HEM142      0.0000
     35  C2D       90.4120   61.6270   -2.3950 C.2   142  HEM142      0.0000
     36  C3D       91.4850   62.3600   -2.6410 C.2   142  HEM142      0.0000
     37  C4D       92.5710   61.4950   -2.9880 C.2   142  HEM142      0.0000
     38  CMD       88.9890   62.0790   -2.0260 C.3   142  HEM142      0.0000
     39  CAD       91.6200   63.9160   -2.6610 C.3   142  HEM142      0.0000
     40  CBD       91.2380   64.5370   -4.0140 C.3   142  HEM142      0.0000
     41  CGD       91.2260   66.0460   -4.0210 C.2   142  HEM142      0.0000
     42  O1D       92.0100   66.6090   -4.8130 O.co2 142  HEM142      0.0000
     43  O2D       90.4300   66.6040   -3.2220 O.co2 142  HEM142      0.0000
@<TRIPOS>BOND
     1    24    23    2
     2    22    19    1
     3    11     9    1
     4    19    20    2
     5    19    18    1
     6     3    18    1
     7     3    10    2
     8     9    10   ar
     9     9     8   ar
    10    23    20    1
    11    20    21    1
    12    18    17    2
    13    16    14   ar
    14    42    41   ar
    15    10     6   ar
    16    12     8    1
    17    12    13    1
    18     8     7   ar
    19    21    17    1
    20    21     4    2
    21    17     1    1
    22     6     7   ar
    23     6     1    1
    24    41    40    1
    25    41    43   ar
    26    40    39    1
    27     7     2    2
    28    14    13    1
    29    14    15   ar
    30     4    26    1
    31    26    25   ar
    32    26    27   ar
    33     2    37    1
    34    30    27    1
    35     1    25    1
    36     1    33    1
    37    32    31    2
    38    25    29   ar
    39    27    28   ar
    40    37    33    2
    41    37    36    1
    42    33    34    1
    43    28    29   ar
    44    28    31    1
    45    29     5    1
    46    39    36    1
    47    36    35    2
    48    34    35    1
    49    34     5    2
    50    35    38    1
