@<TRIPOS>MOLECULE
1a1a_III_C_1.pdb
 44 44 0 0 0
SMALL
GASTEIGER

@<TRIPOS>ATOM
      1  C         41.5510    7.8080   24.1380 C.2   100  ACE100      0.2233
      2  O         41.4280    9.0330   24.1790 O.2   100  ACE100     -0.2751
      3  CH3       41.3260    7.0030   25.4070 C.3   100  ACE100      0.0946
      4  N         41.9970    7.2050   23.0420 N.am  101  TYR101     -0.2981
      5  CA        42.1300    7.9350   21.8090 C.3   101  TYR101      0.1529
      6  C         40.9580    7.5540   20.9050 C.2   101  TYR101      0.2410
      7  O         40.4270    6.4340   20.9800 O.2   101  TYR101     -0.2733
      8  CB        43.5050    7.6010   21.1800 C.3   101  TYR101      0.0553
      9  CG        44.7560    8.1480   21.8980 C.ar  101  TYR101     -0.0201
     10  CD1       45.1780    9.4630   21.7120 C.ar  101  TYR101     -0.0030
     11  CD2       45.4520    7.3710   22.8230 C.ar  101  TYR101     -0.0011
     12  CE1       46.2890   10.0560   22.2880 C.ar  101  TYR101      0.0411
     13  CE2       46.5560    7.9080   23.4650 C.ar  101  TYR101      0.0369
     14  CZ        46.9560    9.2370   23.1960 C.ar  101  TYR101      0.1473
     15  CF        46.5560   11.5510   21.9730 C.3   101  TYR101      0.1666
     16  OH        48.0520    9.6980   23.8510 O.3   101  TYR101     -0.4000
     17  P         47.6980   10.4250   25.3990 P.3   101  TYR101      0.5887
     18  O1P       47.7820    9.3950   26.3590 O.3   101  TYR101     -0.1039
     19  O2P       46.2700   11.0220   25.2470 O.2   101  TYR101     -0.2114
     20  O3P       48.8180   11.3680   25.4380 O.3   101  TYR101     -0.1039
     21  OF        45.3250   12.3110   21.8980 O.3   101  TYR101     -0.3771
     22  H         42.2370    6.2550   23.0730 H     101  TYR101      0.1498
     23  HOF       44.8640   12.2570   22.7380 H     101  TYR101      0.2109
     24  N         40.4780    8.5260   20.1280 N.am  102  GLU102     -0.2970
     25  CA        39.3970    8.3690   19.1690 C.3   102  GLU102      0.1494
     26  C         39.8680    7.6450   17.9010 C.2   102  GLU102      0.2435
     27  O         41.1010    7.6370   17.6660 O.2   102  GLU102     -0.2731
     28  CB        38.8570    9.7300   18.7740 C.3   102  GLU102      0.0408
     29  CG        38.3360   10.5130   19.9440 C.3   102  GLU102      0.1163
     30  CD        37.1310    9.8990   20.6900 C.2   102  GLU102      0.3649
     31  OE1       36.0490    9.7620   20.0980 O.co2 102  GLU102     -0.2457
     32  OE2       37.2380    9.6350   21.9040 O.co2 102  GLU102     -0.2457
     33  H         40.8850    9.4130   20.2100 H     102  GLU102      0.1499
     34  N         38.9660    6.9760   17.0930 N.am  103  DIP103     -0.2782
     35  C1        37.6010    6.6810   17.5280 C.3   103  DIP103      0.0934
     36  C2        37.7490    5.4320   18.3770 C.3   103  DIP103      0.0215
     37  C3        36.3910    5.0260   18.8760 C.3   103  DIP103      0.0018
     38  C4        36.5560    3.7610   19.7020 C.3   103  DIP103      0.0001
     39  C5        35.1700    3.1380   20.0310 C.3   103  DIP103      0.0000
     40  C1'       39.3290    6.4600   15.7620 C.3   103  DIP103      0.0934
     41  C2'       39.7850    7.6180   14.8640 C.3   103  DIP103      0.0215
     42  C3'       38.6370    8.4240   14.3120 C.3   103  DIP103      0.0018
     43  C4'       39.2480    9.5850   13.5510 C.3   103  DIP103      0.0001
     44  C5'       38.2030   10.5120   13.0050 C.3   103  DIP103      0.0000
@<TRIPOS>BOND
     1    44    43    1
     2    43    42    1
     3    42    41    1
     4    41    40    1
     5    40    34    1
     6    34    35    1
     7    34    26   am
     8    35    36    1
     9    27    26    2
    10    26    25    1
    11    36    37    1
    12    28    25    1
    13    28    29    1
    14    37    38    1
    15    25    24    1
    16    38    39    1
    17    29    30    1
    18    31    30   ar
    19    24    33    1
    20    24     6   am
    21    30    32   ar
    22     6     7    2
    23     6     5    1
    24     8     5    1
    25     8     9    1
    26    10     9   ar
    27    10    12   ar
    28     5     4    1
    29     9    11   ar
    30    21    15    1
    31    21    23    1
    32    15    12    1
    33    12    14   ar
    34    11    13   ar
    35     4    22    1
    36     4     1   am
    37    14    13   ar
    38    14    16    1
    39    16    17    1
    40     1     2    2
    41     1     3    1
    42    19    17    2
    43    17    20    1
    44    17    18    1
