@<TRIPOS>MOLECULE
1a1b_III_C_1.pdb
 41 41 0 0 0
SMALL
GASTEIGER

@<TRIPOS>ATOM
      1  C         41.8780    7.6480   24.7550 C.2   100  ACE100      0.2233
      2  O         41.6860    8.8680   24.8820 O.2   100  ACE100     -0.2751
      3  CH3       41.8950    6.7030   25.9440 C.3   100  ACE100      0.0946
      4  N         42.2740    7.0760   23.6300 N.am  101  TYR101     -0.2981
      5  CA        42.3180    7.7630   22.3620 C.3   101  TYR101      0.1529
      6  C         41.1800    7.2450   21.5190 C.2   101  TYR101      0.2410
      7  O         40.8310    6.0490   21.5670 O.2   101  TYR101     -0.2733
      8  CB        43.6490    7.4960   21.6250 C.3   101  TYR101      0.0553
      9  CG        44.8460    8.0890   22.3680 C.ar  101  TYR101     -0.0198
     10  CD1       45.5300    7.3180   23.2920 C.ar  101  TYR101     -0.0011
     11  CD2       45.2210    9.4110   22.1440 C.ar  101  TYR101     -0.0011
     12  CE1       46.5830    7.8740   24.0210 C.ar  101  TYR101      0.0371
     13  CE2       46.2720    9.9730   22.8630 C.ar  101  TYR101      0.0371
     14  CZ        46.9590    9.2010   23.8060 C.ar  101  TYR101      0.1490
     15  OH        48.0700    9.7710   24.5350 O.3   101  TYR101     -0.3998
     16  P         48.0550   10.1050   26.0620 P.3   101  TYR101      0.5887
     17  O1P       48.2280    8.8110   26.7100 O.3   101  TYR101     -0.1039
     18  O2P       49.1890   11.0280   26.2020 O.2   101  TYR101     -0.2114
     19  O3P       46.7230   10.7500   26.2730 O.3   101  TYR101     -0.1039
     20  H         42.5520    6.1370   23.6590 H     101  TYR101      0.1498
     21  N         40.6430    8.2120   20.7920 N.am  102  GLU102     -0.2970
     22  CA        39.5790    8.0340   19.8230 C.3   102  GLU102      0.1494
     23  C         40.0050    7.2730   18.5460 C.2   102  GLU102      0.2435
     24  O         41.1850    7.3340   18.1790 O.2   102  GLU102     -0.2731
     25  CB        39.0510    9.4070   19.4160 C.3   102  GLU102      0.0408
     26  CG        38.4330   10.2020   20.5070 C.3   102  GLU102      0.1163
     27  CD        37.3240    9.4430   21.2240 C.2   102  GLU102      0.3649
     28  OE1       36.3410    9.0590   20.5860 O.co2 102  GLU102     -0.2457
     29  OE2       37.4560    9.2330   22.4260 O.co2 102  GLU102     -0.2457
     30  H         40.9910    9.1180   20.9180 H     102  GLU102      0.1499
     31  N         39.0990    6.5610   17.8240 N.am  103  DIP103     -0.2782
     32  C1        37.7450    6.3630   18.3160 C.3   103  DIP103      0.0934
     33  C2        37.9060    5.0940   19.1300 C.3   103  DIP103      0.0215
     34  C3        36.5840    4.7150   19.7300 C.3   103  DIP103      0.0018
     35  C4        36.7660    3.4890   20.5930 C.3   103  DIP103      0.0001
     36  C5        35.4110    2.7320   20.6730 C.3   103  DIP103      0.0000
     37  C1'       39.4520    5.9580   16.5340 C.3   103  DIP103      0.0934
     38  C2'       38.6900    6.7270   15.4310 C.3   103  DIP103      0.0215
     39  C3'       39.2330    8.1570   15.1950 C.3   103  DIP103      0.0018
     40  C4'       38.4780    8.8950   14.1090 C.3   103  DIP103      0.0001
     41  C5'       39.1800   10.2010   13.7110 C.3   103  DIP103      0.0000
@<TRIPOS>BOND
     1    41    40    1
     2    40    39    1
     3    39    38    1
     4    38    37    1
     5    37    31    1
     6    31    32    1
     7    31    23   am
     8    24    23    2
     9    32    33    1
    10    23    22    1
    11    33    34    1
    12    25    22    1
    13    25    26    1
    14    34    35    1
    15    22    21    1
    16    26    27    1
    17    28    27   ar
    18    35    36    1
    19    21    30    1
    20    21     6   am
    21    27    29   ar
    22     6     7    2
    23     6     5    1
    24     8     5    1
    25     8     9    1
    26    11     9   ar
    27    11    13   ar
    28     5     4    1
    29     9    10   ar
    30    13    14   ar
    31    10    12   ar
    32     4    20    1
    33     4     1   am
    34    14    12   ar
    35    14    15    1
    36    15    16    1
    37     1     2    2
    38     1     3    1
    39    16    18    2
    40    16    19    1
    41    16    17    1
