@<TRIPOS>MOLECULE
1a1c_III_C_1.pdb
 40 41 0 0 0
SMALL
GASTEIGER

@<TRIPOS>ATOM
      1  C         41.4160    7.4370   25.2020 C.2   100  ACE100      0.2233
      2  O         41.0950    8.6300   25.2750 O.2   100  ACE100     -0.2751
      3  CH3       41.5500    6.5780   26.4470 C.3   100  ACE100      0.0946
      4  N         41.8660    6.8920   24.0760 N.am  101  TYR101     -0.2981
      5  CA        41.8080    7.5660   22.8020 C.3   101  TYR101      0.1529
      6  C         40.6390    7.0190   22.0080 C.2   101  TYR101      0.2410
      7  O         40.2660    5.8480   22.1240 O.2   101  TYR101     -0.2733
      8  CB        43.0860    7.3090   22.1000 C.3   101  TYR101      0.0553
      9  CG        44.2480    7.9420   22.8270 C.ar  101  TYR101     -0.0198
     10  CD1       44.9250    7.1920   23.7520 C.ar  101  TYR101     -0.0011
     11  CD2       44.6130    9.2460   22.6020 C.ar  101  TYR101     -0.0011
     12  CE1       45.9580    7.7530   24.4720 C.ar  101  TYR101      0.0371
     13  CE2       45.6480    9.8210   23.3150 C.ar  101  TYR101      0.0371
     14  CZ        46.3360    9.0620   24.2620 C.ar  101  TYR101      0.1490
     15  OH        47.3910    9.5530   24.9170 O.3   101  TYR101     -0.3998
     16  P         47.3740   10.0810   26.5990 P.3   101  TYR101      0.5887
     17  O1P       47.4500    8.8630   27.3690 O.3   101  TYR101     -0.1039
     18  O2P       48.5300   11.0330   26.6630 O.2   101  TYR101     -0.2114
     19  O3P       46.0130   10.7660   26.6670 O.3   101  TYR101     -0.1039
     20  H         42.2540    5.9930   24.1130 H     101  TYR101      0.1498
     21  N         40.0350    7.8790   21.2300 N.am  102  GLU102     -0.2970
     22  CA        38.9520    7.5890   20.3170 C.3   102  GLU102      0.1494
     23  C         39.4150    6.7060   19.1390 C.2   102  GLU102      0.2436
     24  O         40.6120    6.7260   18.8120 O.2   102  GLU102     -0.2731
     25  CB        38.4480    8.9150   19.7860 C.3   102  GLU102      0.0408
     26  CG        37.9350    9.8890   20.7860 C.3   102  GLU102      0.1163
     27  CD        36.7810    9.3610   21.6210 C.2   102  GLU102      0.3649
     28  OE1       35.6790    9.1760   21.0890 O.co2 102  GLU102     -0.2457
     29  OE2       36.9880    9.1830   22.8280 O.co2 102  GLU102     -0.2457
     30  H         40.3450    8.8060   21.2690 H     102  GLU102      0.1499
     31  N         38.5870    5.8770   18.5040 N.am  103  DIX103     -0.2765
     32  CM        37.2510    5.6010   19.0130 C.3   103  DIX103      0.1149
     33  C3        38.8560    5.2920   17.1910 C.3   103  DIX103      0.0935
     34  C2        38.1980    6.2110   16.1620 C.3   103  DIX103      0.0215
     35  C1        39.1390    7.1780   15.4560 C.3   103  DIX103      0.0018
     36  C1'       38.6100    8.5650   15.1090 C.3   103  DIX103      0.0001
     37  C2'       39.4950    9.4450   14.3120 C.3   103  DIX103      0.0000
     38  C5'       37.2260    8.6530   14.5490 C.3   103  DIX103      0.0000
     39  C4'       37.3710    9.7500   13.5060 C.3   103  DIX103      0.0000
     40  C3'       38.5680   10.4800   13.8430 C.3   103  DIX103      0.0000
@<TRIPOS>BOND
     1    39    40    1
     2    39    38    1
     3    40    37    1
     4    37    36    1
     5    38    36    1
     6    36    35    1
     7    35    34    1
     8    34    33    1
     9    33    31    1
    10    31    32    1
    11    31    23   am
    12    24    23    2
    13    23    22    1
    14    25    22    1
    15    25    26    1
    16    22    21    1
    17    26    27    1
    18    28    27   ar
    19    21    30    1
    20    21     6   am
    21    27    29   ar
    22     6     7    2
    23     6     5    1
    24     8     5    1
    25     8     9    1
    26    11     9   ar
    27    11    13   ar
    28     5     4    1
    29     9    10   ar
    30    13    14   ar
    31    10    12   ar
    32     4    20    1
    33     4     1   am
    34    14    12   ar
    35    14    15    1
    36    15    16    1
    37     1     2    2
    38     1     3    1
    39    16    18    2
    40    16    19    1
    41    16    17    1
