@<TRIPOS>MOLECULE
1a1e_III_C_1.pdb
 40 41 0 0 0
SMALL
GASTEIGER

@<TRIPOS>ATOM
      1  C         41.3690    7.4800   24.9070 C.2   100  ACE100      0.2233
      2  O         40.9820    8.6460   25.0400 O.2   100  ACE100     -0.2751
      3  CH3       41.4740    6.5550   26.0930 C.3   100  ACE100      0.0946
      4  N         41.8380    6.9940   23.7740 N.am  101  TYR101     -0.2981
      5  CA        41.7820    7.7280   22.5370 C.3   101  TYR101      0.1529
      6  C         40.5630    7.2990   21.7540 C.2   101  TYR101      0.2410
      7  O         40.0510    6.1860   21.8890 O.2   101  TYR101     -0.2733
      8  CB        43.0710    7.4600   21.7830 C.3   101  TYR101      0.0553
      9  CG        44.2050    8.0760   22.5800 C.ar  101  TYR101     -0.0198
     10  CD1       44.8240    7.3560   23.5890 C.ar  101  TYR101     -0.0011
     11  CD2       44.5990    9.3540   22.2980 C.ar  101  TYR101     -0.0011
     12  CE1       45.8430    7.9100   24.3220 C.ar  101  TYR101      0.0371
     13  CE2       45.6190    9.9110   23.0240 C.ar  101  TYR101      0.0371
     14  CZ        46.2370    9.1890   24.0260 C.ar  101  TYR101      0.1490
     15  OH        47.3620    9.7490   24.6990 O.3   101  TYR101     -0.3998
     16  P         47.3440   10.2050   26.1840 P.3   101  TYR101      0.5887
     17  O1P       47.4820    8.9580   26.9400 O.3   101  TYR101     -0.1039
     18  O2P       48.5250   11.0850   26.3010 O.2   101  TYR101     -0.2114
     19  O3P       46.0240   10.8930   26.3390 O.3   101  TYR101     -0.1039
     20  H         42.2390    6.1000   23.7740 H     101  TYR101      0.1498
     21  N         40.0610    8.2540   21.0110 N.am  102  GLU102     -0.2970
     22  CA        38.9280    8.0690   20.1640 C.3   102  GLU102      0.1494
     23  C         39.3040    7.2140   18.9600 C.2   102  GLU102      0.2435
     24  O         40.4410    7.3880   18.4860 O.2   102  GLU102     -0.2731
     25  CB        38.4570    9.4160   19.7030 C.3   102  GLU102      0.0408
     26  CG        37.9020   10.2660   20.8130 C.3   102  GLU102      0.1163
     27  CD        36.7520    9.6170   21.5340 C.2   102  GLU102      0.3649
     28  OE1       35.7520    9.2990   20.9090 O.co2 102  GLU102     -0.2457
     29  OE2       36.8630    9.4320   22.7300 O.co2 102  GLU102     -0.2457
     30  H         40.4840    9.1370   21.0380 H     102  GLU102      0.1499
     31  N1        38.4240    6.3320   18.3700 N.am  103  DIY103     -0.2782
     32  C2        37.0660    6.0610   18.8800 C.3   103  DIY103      0.0934
     33  C6        38.6700    5.7690   17.0470 C.3   103  DIY103      0.0934
     34  C3        36.1180    6.8590   17.9570 C.3   103  DIY103      0.0216
     35  C4        36.3600    6.5540   16.4700 C.3   103  DIY103      0.0035
     36  C5        37.8230    6.5490   16.0190 C.3   103  DIY103      0.0199
     37  C1'       38.4430    7.9210   15.7220 C.3   103  DIY103      0.0017
     38  C2'       37.9560    8.7180   14.5270 C.3   103  DIY103      0.0001
     39  C3'       38.9830    9.7810   14.3310 C.3   103  DIY103      0.0000
     40  C4'       38.3370   10.6440   13.2830 C.3   103  DIY103      0.0000
@<TRIPOS>BOND
     1    40    39    1
     2    39    38    1
     3    38    37    1
     4    37    36    1
     5    36    35    1
     6    36    33    1
     7    35    34    1
     8    33    31    1
     9    34    32    1
    10    31    32    1
    11    31    23   am
    12    24    23    2
    13    23    22    1
    14    25    22    1
    15    25    26    1
    16    22    21    1
    17    26    27    1
    18    28    27   ar
    19    21    30    1
    20    21     6   am
    21    27    29   ar
    22     6     7    2
    23     6     5    1
    24     8     5    1
    25     8     9    1
    26    11     9   ar
    27    11    13   ar
    28     5     4    1
    29     9    10   ar
    30    13    14   ar
    31    10    12   ar
    32    20     4    1
    33     4     1   am
    34    14    12   ar
    35    14    15    1
    36    15    16    1
    37     1     2    2
    38     1     3    1
    39    16    18    2
    40    16    19    1
    41    16    17    1
