@<TRIPOS>MOLECULE
1a25_PSE_B_1.pdb
 10 9 0 0 0
SMALL
GASTEIGER

@<TRIPOS>ATOM
      1  N2        -9.1000   34.7010   16.3800 N.3     1  PSE1       -0.1274
      2  C2        -9.0980   36.1450   16.7150 C.3     1  PSE1        0.1547
      3  C1        -8.9710   36.2690   18.2500 C.3     1  PSE1        0.2035
      4  O1        -8.9550   37.5020   18.6780 O.3     1  PSE1       -0.2187
      5  C3       -10.3890   36.7980   16.2190 C.3     1  PSE1        0.1753
      6  O1P      -11.4600   35.9380   16.6430 O.3     1  PSE1       -0.2686
      7  O2P      -13.4200   36.7360   15.2590 O.2     1  PSE1       -0.2224
      8  O3P      -13.1410   37.5360   17.6410 O.3     1  PSE1       -0.1145
      9  O4P      -13.7050   35.1490   17.1580 O.3     1  PSE1       -0.1145
     10  P        -12.9880   36.4180   16.6550 P.3     1  PSE1        0.5326
@<TRIPOS>BOND
     1     7    10    2
     2     5     6    1
     3     5     2    1
     4     1     2    1
     5     6    10    1
     6    10     9    1
     7    10     8    1
     8     2     3    1
     9     3     4    1
