@<TRIPOS>MOLECULE
1a26_CNA_A_1.pdb
 27 29 0 0 0
SMALL
GASTEIGER

@<TRIPOS>ATOM
      1  PA        39.5540   14.6330   25.9370 P.3   200  CNA200      0.2231
      2  O1A       40.5110   15.3860   26.8280 O.2   200  CNA200     -0.5169
      3  O2A       38.5460   13.9710   26.8340 O.3   200  CNA200     -0.4370
      4  O5B       38.7910   15.6620   25.0300 O.3   200  CNA200     -0.3111
      5  C5B       37.6460   15.2200   24.1480 C.3   200  CNA200      0.1813
      6  C4B       37.4690   16.3910   23.2030 C.3   200  CNA200      0.1821
      7  O4B       36.4330   16.0540   22.2670 O.3   200  CNA200     -0.3135
      8  C3B       37.2150   17.7810   23.6930 C.3   200  CNA200      0.2184
      9  O3B       38.3720   18.6100   23.5580 O.3   200  CNA200     -0.2174
     10  C2B       36.0380   18.3550   22.8500 C.3   200  CNA200      0.2570
     11  O2B       36.3760   19.4010   21.9060 O.3   200  CNA200     -0.2130
     12  C1B       35.4850   17.1320   22.1360 C.3   200  CNA200      0.3186
     13  N9A       34.2740   16.5580   22.7510 N.pl3 200  CNA200     -0.1439
     14  C8A       34.1770   15.4810   23.6080 C.3   200  CNA200      0.3377
     15  N7A       32.9190   15.2520   23.9580 N.2   200  CNA200     -0.2095
     16  C5A       32.1650   16.2100   23.3080 C.2   200  CNA200      0.2526
     17  C6A       30.7560   16.4850   23.2750 C.2   200  CNA200      0.4393
     18  N6A       29.8420   15.7840   23.9550 N.pl3 200  CNA200      0.2180
     19  N1A       30.3580   17.5290   22.5120 N.2   200  CNA200      0.0021
     20  C2A       31.2680   18.2590   21.8100 C.3   200  CNA200      0.5254
     21  N3A       32.6020   18.0940   21.7590 N.2   200  CNA200     -0.0055
     22  C4A       32.9820   17.0330   22.5430 C.2   200  CNA200      0.3518
     23  O3        40.2420   13.6650   24.9150 O.3   200  CNA200     -0.2261
     24  PN        41.1550   13.7390   23.6380 P.3   200  CNA200      0.5373
     25  O1N       41.2430   15.1710   23.2890 O.3   200  CNA200     -0.1143
     26  O2N       42.4110   13.0090   23.8410 O.3   200  CNA200     -0.1143
     27  O5D       40.2630   13.0920   22.4660 O.2   200  CNA200     -0.2221
@<TRIPOS>BOND
     1    21    20    1
     2    21    22    2
     3    20    19    1
     4    11    10    1
     5    12     7    1
     6    12    13    1
     7    12    10    1
     8     7     6    1
     9    27    24    2
    10    19    17    2
    11    22    13    1
    12    22    16    1
    13    13    14    1
    14    10     8    1
    15     6     8    1
    16     6     5    1
    17    17    16    1
    18    17    18    1
    19    25    24    1
    20    16    15    2
    21     9     8    1
    22    14    15    1
    23    24    26    1
    24    24    23    1
    25     5     4    1
    26    23     1    1
    27     4     1    1
    28     1     2    2
    29     1     3    1
