@<TRIPOS>MOLECULE
1a27_NAP_A_1.pdb
 48 52 0 0 0
SMALL
GASTEIGER

@<TRIPOS>ATOM
      1  PA        19.8090   -4.6220   -0.1320 P.3   360  NAP360      0.2189
      2  O1A       19.4330   -5.6950   -1.0860 O.2   360  NAP360     -0.5170
      3  O2A       21.2290   -4.1780   -0.0590 O.3   360  NAP360     -0.4371
      4  O5B       19.4390   -4.9940    1.4010 O.3   360  NAP360     -0.3112
      5  C5B       18.1550   -5.5210    1.7830 C.3   360  NAP360      0.1813
      6  C4B       18.3290   -6.5620    2.8630 C.3   360  NAP360      0.1820
      7  O4B       17.0290   -7.1740    3.0730 O.3   360  NAP360     -0.3136
      8  C3B       19.3290   -7.7030    2.5780 C.3   360  NAP360      0.2157
      9  O3B       20.0760   -7.9920    3.7910 O.3   360  NAP360     -0.2175
     10  C2B       18.4100   -8.8940    2.2830 C.3   360  NAP360      0.2314
     11  O2B       19.0460  -10.1300    2.6540 O.3   360  NAP360     -0.2630
     12  C1B       17.2630   -8.5500    3.2660 C.3   360  NAP360      0.3158
     13  N9A       16.1100   -9.4290    3.1200 N.pl3 360  NAP360     -0.1439
     14  C8A       15.5240   -9.7900    1.9700 C.3   360  NAP360      0.3377
     15  N7A       14.6110  -10.7220    2.2140 N.2   360  NAP360     -0.2095
     16  C5A       14.5930  -10.9340    3.5180 C.2   360  NAP360      0.2526
     17  C6A       13.8580  -11.8000    4.3440 C.2   360  NAP360      0.4393
     18  N6A       12.9620  -12.6150    3.7500 N.pl3 360  NAP360      0.2180
     19  N1A       14.1140  -11.8040    5.6670 N.2   360  NAP360      0.0021
     20  C2A       15.0390  -11.0260    6.1880 C.3   360  NAP360      0.5254
     21  N3A       15.7670  -10.1730    5.4500 N.2   360  NAP360     -0.0055
     22  C4A       15.5590  -10.1330    4.1170 C.2   360  NAP360      0.3518
     23  O3        18.8860   -3.3220   -0.3870 O.3   360  NAP360     -0.2703
     24  PN        18.6610   -2.0110    0.5530 P.3   360  NAP360      0.2189
     25  O1N       18.3660   -0.8090   -0.3140 O.2   360  NAP360     -0.5170
     26  O2N       19.7340   -1.8840    1.5220 O.3   360  NAP360     -0.4371
     27  O5D       17.2800   -2.4130    1.2900 O.3   360  NAP360     -0.3112
     28  C5D       16.8910   -1.9490    2.5890 C.3   360  NAP360      0.1813
     29  C4D       15.5230   -1.2950    2.5110 C.3   360  NAP360      0.1799
     30  O4D       15.7040   -0.0370    1.8280 O.3   360  NAP360     -0.3327
     31  C3D       14.3560   -2.0120    1.8310 C.3   360  NAP360      0.2158
     32  O3D       13.1860   -2.1540    2.6760 O.3   360  NAP360     -0.2175
     33  C2D       13.9610   -1.0810    0.7160 C.3   360  NAP360      0.2309
     34  O2D       13.1060   -1.5510   -0.2230 O.3   360  NAP360     -0.2158
     35  C1D       14.5340    0.2340    1.0290 C.3   360  NAP360      0.2263
     36  N1N       14.8360    1.1840   -0.0660 N.pl3 360  NAP360     -0.2787
     37  C2N       15.9280    0.9940   -0.9370 C.3   360  NAP360      0.1244
     38  C3N       16.1810    1.8620   -2.0070 C.2   360  NAP360      0.0544
     39  C7N       17.3710    1.5850   -2.9370 C.2   360  NAP360      0.2818
     40  O7N       17.6990    2.2150   -3.9230 O.2   360  NAP360     -0.2670
     41  N7N       18.0920    0.5050   -2.5810 N.am  360  NAP360     -0.0839
     42  C4N       15.3450    2.9670   -2.1790 C.2   360  NAP360      0.0033
     43  C5N       14.2920    3.1980   -1.2890 C.2   360  NAP360      0.0157
     44  C6N       14.0030    2.3060   -0.2370 C.2   360  NAP360      0.0633
     45  P2B       19.5010  -11.0230    1.6240 P.3   360  NAP360      0.5328
     46  O1X       20.6230  -10.4110    0.9880 O.3   360  NAP360     -0.1145
     47  O2X       19.9150  -12.3100    2.1140 O.3   360  NAP360     -0.1145
     48  O3X       18.4910  -11.2870    0.6320 O.2   360  NAP360     -0.2224
@<TRIPOS>BOND
     1    40    39    2
     2    39    41   am
     3    39    38    1
     4    42    38    2
     5    42    43    1
     6    38    37    1
     7    43    44    2
     8     2     1    2
     9    37    36    1
    10    23     1    1
    11    23    24    1
    12    25    24    2
    13    44    36    1
    14    34    33    1
    15     1     3    1
    16     1     4    1
    17    36    35    1
    18    24    27    1
    19    24    26    1
    20    48    45    2
    21    33    35    1
    22    33    31    1
    23    46    45    1
    24    35    30    1
    25    27    28    1
    26     4     5    1
    27    45    47    1
    28    45    11    1
    29     5     6    1
    30    30    29    1
    31    31    29    1
    32    31    32    1
    33    14    15    1
    34    14    13    1
    35    15    16    2
    36    10     8    1
    37    10    11    1
    38    10    12    1
    39    29    28    1
    40     8     6    1
    41     8     9    1
    42     6     7    1
    43     7    12    1
    44    13    12    1
    45    13    22    1
    46    16    22    1
    47    16    17    1
    48    18    17    1
    49    22    21    2
    50    17    19    2
    51    21    20    1
    52    19    20    1
