@<TRIPOS>MOLECULE
1a27_EST_A_1.pdb
 20 23 0 0 0
SMALL
GASTEIGER

@<TRIPOS>ATOM
      1  C1        12.7130    8.8170   -8.0400 C.ar  350  EST350     -0.0013
      2  C2        12.3800    9.8540   -8.9020 C.ar  350  EST350      0.0417
      3  C3        12.3600    9.6540  -10.2510 C.ar  350  EST350      0.1954
      4  O3        12.0240   10.6800  -11.1190 O.3   350  EST350     -0.2866
      5  C4        12.6730    8.3960  -10.7690 C.ar  350  EST350      0.0375
      6  C5        13.0170    7.3520   -9.8970 C.ar  350  EST350     -0.0230
      7  C6        13.3440    6.0130  -10.5050 C.3   350  EST350      0.0261
      8  C7        13.6630    4.8710   -9.5590 C.3   350  EST350      0.0050
      9  C8        13.0480    5.0270   -8.1680 C.3   350  EST350      0.0044
     10  C9        13.4440    6.4050   -7.5910 C.3   350  EST350      0.0220
     11  C10       13.0390    7.5450   -8.4960 C.ar  350  EST350     -0.0263
     12  C11       13.0960    6.5790   -6.1340 C.3   350  EST350      0.0044
     13  C12       13.4700    5.3880   -5.2240 C.3   350  EST350      0.0028
     14  C13       12.9060    4.0780   -5.7730 C.3   350  EST350      0.0282
     15  C14       13.3110    3.9060   -7.2410 C.3   350  EST350      0.0028
     16  C15       12.9880    2.4440   -7.5400 C.3   350  EST350      0.0027
     17  C16       13.5520    1.7340   -6.2670 C.3   350  EST350      0.0329
     18  C17       13.5260    2.8080   -5.1660 C.3   350  EST350      0.1519
     19  O17       12.8420    2.3200   -4.0040 O.3   350  EST350     -0.2232
     20  C18       11.4130    3.9660   -5.4530 C.3   350  EST350      0.0025
@<TRIPOS>BOND
     1     4     3    1
     2     5     3   ar
     3     5     6   ar
     4     7     6    1
     5     7     8    1
     6     3     2   ar
     7     6    11   ar
     8     8     9    1
     9     2     1   ar
    10    11     1   ar
    11    11    10    1
    12     9    10    1
    13     9    15    1
    14    10    12    1
    15    16    15    1
    16    16    17    1
    17    15    14    1
    18    17    18    1
    19    12    13    1
    20    14    20    1
    21    14    13    1
    22    14    18    1
    23    18    19    1
