@<TRIPOS>MOLECULE
1a28_STR_A_1.pdb
 23 26 0 0 0
SMALL
GASTEIGER

@<TRIPOS>ATOM
      1  C1        21.2060    9.9350   63.0810 C.3     1  STR1        0.0118
      2  C2        21.2410    9.4460   64.5510 C.3     1  STR1        0.0694
      3  C3        22.0000    8.1250   64.6300 C.2     1  STR1        0.1725
      4  O3        21.7010    7.3010   65.5120 O.2     1  STR1       -0.2914
      5  C4        23.1180    7.8720   63.7340 C.2     1  STR1        0.0289
      6  C5        23.4530    8.7270   62.7850 C.2     1  STR1       -0.0420
      7  C6        24.6970    8.4430   61.9510 C.3     1  STR1        0.0221
      8  C7        24.4490    8.6370   60.4430 C.3     1  STR1        0.0044
      9  C8        23.7890    9.9970   60.0980 C.3     1  STR1        0.0006
     10  C9        22.4340   10.0950   60.8720 C.3     1  STR1        0.0035
     11  C10       22.6140   10.0230   62.4340 C.3     1  STR1        0.0157
     12  C11       21.6330   11.3540   60.4500 C.3     1  STR1        0.0003
     13  C12       21.4320   11.4340   58.9110 C.3     1  STR1        0.0004
     14  C13       22.7860   11.4040   58.1690 C.3     1  STR1        0.0065
     15  C14       23.4830   10.0600   58.5980 C.3     1  STR1        0.0004
     16  C15       24.6740    9.9180   57.6180 C.3     1  STR1        0.0004
     17  C16       24.0720   10.4500   56.2670 C.3     1  STR1        0.0073
     18  C17       22.7140   11.1490   56.6270 C.3     1  STR1        0.0576
     19  C18       23.6590   12.6770   58.4540 C.3     1  STR1        0.0004
     20  C19       23.4270   11.2460   63.0070 C.3     1  STR1        0.0041
     21  C20       22.3750   12.3880   55.7810 C.2     1  STR1        0.1507
     22  O20       23.2120   12.8760   55.0520 O.2     1  STR1       -0.2961
     23  C21       21.0090   12.9760   55.8570 C.3     1  STR1        0.0722
@<TRIPOS>BOND
     1    22    21    2
     2    21    23    1
     3    21    18    1
     4    17    18    1
     5    17    16    1
     6    18    14    1
     7    16    15    1
     8    14    19    1
     9    14    15    1
    10    14    13    1
    11    15     9    1
    12    13    12    1
    13     9     8    1
    14     9    10    1
    15     8     7    1
    16    12    10    1
    17    10    11    1
    18     7     6    1
    19    11     6    1
    20    11    20    1
    21    11     1    1
    22     6     5    2
    23     1     2    1
    24     5     3    1
    25     2     3    1
    26     3     4    2
