@<TRIPOS>MOLECULE
1a29_TFP_A_1.pdb
 28 31 0 0 0
SMALL
GASTEIGER

@<TRIPOS>ATOM
      1  C1        15.8840    8.5140   10.2170 C.ar  153  TFP153      0.0727
      2  C2        16.4510    7.2410   10.1560 C.ar  153  TFP153      0.0044
      3  C3        16.7660    6.6010   11.3300 C.ar  153  TFP153      0.0077
      4  C4        16.1770    7.0080   12.5140 C.ar  153  TFP153      0.0431
      5  C5        15.4550    8.2080   12.5780 C.ar  153  TFP153      0.0576
      6  C6        15.3400    8.9940   11.4120 C.ar  153  TFP153      0.0192
      7  S         16.3480    5.9590   13.9210 S.3   153  TFP153     -0.0844
      8  C7        15.0200    6.4430   14.9370 C.ar  153  TFP153      0.0431
      9  C8        14.5040    5.4940   15.8330 C.ar  153  TFP153      0.0077
     10  C9        13.3770    5.7790   16.5800 C.ar  153  TFP153      0.0006
     11  C10       12.7330    6.9940   16.3960 C.ar  153  TFP153      0.0013
     12  C11       13.3090    7.9580   15.5820 C.ar  153  TFP153      0.0153
     13  C12       14.5010    7.7440   14.8480 C.ar  153  TFP153      0.0576
     14  N1        15.0540    8.7150   13.8620 N.pl3 153  TFP153     -0.2861
     15  C13       14.5820   10.1020   13.8720 C.3   153  TFP153      0.0970
     16  C14       15.5050   11.0200   14.6840 C.3   153  TFP153      0.0391
     17  C15       15.0630   11.1660   16.1530 C.3   153  TFP153      0.0739
     18  N2        15.8030   12.1230   16.9420 N.3   153  TFP153     -0.2703
     19  C16       17.1270   11.5910   17.0910 C.3   153  TFP153      0.0897
     20  C17       17.9750   12.5520   17.7730 C.3   153  TFP153      0.0897
     21  N3        17.2380   13.7530   18.0510 N.3   153  TFP153     -0.2691
     22  C18       16.7440   14.2920   16.8180 C.3   153  TFP153      0.0897
     23  C19       15.8630   13.3360   16.1740 C.3   153  TFP153      0.0897
     24  C20       18.1730   14.6980   18.5600 C.3   153  TFP153      0.0897
     25  C21       15.8720    9.3470    9.0230 C.3   153  TFP153      0.4186
     26  F1        15.4250    8.7580    7.9550 F     153  TFP153     -0.1659
     27  F2        17.0320    9.7710    8.6640 F     153  TFP153     -0.1659
     28  F3        15.1630   10.4380    9.1020 F     153  TFP153     -0.1659
@<TRIPOS>BOND
     1    26    25    1
     2    27    25    1
     3    25    28    1
     4    25     1    1
     5     2     1   ar
     6     2     3   ar
     7     1     6   ar
     8     3     4   ar
     9     6     5   ar
    10     4     5   ar
    11     4     7    1
    12     5    14    1
    13    14    15    1
    14    14    13    1
    15    15    16    1
    16     7     8    1
    17    16    17    1
    18    13     8   ar
    19    13    12   ar
    20     8     9   ar
    21    12    11   ar
    22     9    10   ar
    23    17    18    1
    24    23    22    1
    25    23    18    1
    26    11    10   ar
    27    22    21    1
    28    18    19    1
    29    19    20    1
    30    20    21    1
    31    21    24    1
