@<TRIPOS>MOLECULE
1a2b_GSP_A_1.pdb
 32 34 0 0 0
SMALL
GASTEIGER

@<TRIPOS>ATOM
      1  PG         8.4140   29.9140   26.7600 P.3   538  GSP538      0.4340
      2  O3B        9.7490   29.0980   27.4300 O.3   538  GSP538     -0.2405
      3  S1G        7.3590   30.3480   28.2900 S.3   538  GSP538      0.0416
      4  O2G        8.9680   31.1250   26.0820 O.3   538  GSP538     -0.1305
      5  O3G        7.8360   28.8930   25.8210 O.2   538  GSP538     -0.2423
      6  PB        11.1620   28.6580   26.8020 P.3   538  GSP538      0.2262
      7  O1B       11.0350   27.2470   26.4810 O.3   538  GSP538     -0.4369
      8  O2B       11.6020   29.5360   25.6480 O.2   538  GSP538     -0.5168
      9  PA        13.4950   29.7620   28.2830 P.3   538  GSP538      0.2189
     10  O1A       14.4040   29.5200   27.1490 O.2   538  GSP538     -0.5170
     11  O2A       12.9870   31.1530   28.4690 O.3   538  GSP538     -0.4371
     12  O3A       12.2440   28.7330   28.0130 O.3   538  GSP538     -0.2701
     13  O5'       14.1500   29.2130   29.6710 O.3   538  GSP538     -0.3112
     14  C5'       13.4480   28.5810   30.7250 C.3   538  GSP538      0.1813
     15  C4'       14.2160   28.6240   32.0160 C.3   538  GSP538      0.1799
     16  O4'       15.2880   27.6270   32.0370 O.3   538  GSP538     -0.3326
     17  C3'       14.9130   29.9750   32.1750 C.3   538  GSP538      0.2158
     18  O3'       14.9600   30.3820   33.5500 O.3   538  GSP538     -0.2175
     19  C2'       16.3490   29.7310   31.6550 C.3   538  GSP538      0.2310
     20  O2'       17.3160   30.5890   32.2230 O.3   538  GSP538     -0.2158
     21  C1'       16.6170   28.2580   32.0380 C.3   538  GSP538      0.2293
     22  N9        17.4600   27.5600   31.0280 N.pl3 538  GSP538     -0.2354
     23  C8        17.4870   27.6970   29.6450 C.3   538  GSP538      0.2246
     24  N7        18.3290   26.9340   29.0420 N.2   538  GSP538     -0.2322
     25  C5        18.9230   26.2250   30.0890 C.2   538  GSP538      0.2182
     26  C6        19.9620   25.1890   30.0600 C.1   538  GSP538      0.2372
     27  O6        20.5610   24.6970   29.0910 O.2   538  GSP538     -0.2069
     28  N1        20.2690   24.7350   31.3480 N.2   538  GSP538     -0.2485
     29  C2        19.6730   25.2040   32.5010 C.1   538  GSP538      0.2531
     30  N2        20.0480   24.7040   33.6630 N.pl3 538  GSP538     -0.0226
     31  N3        18.7180   26.1520   32.5220 N.2   538  GSP538     -0.3074
     32  C4        18.3940   26.6100   31.2890 C.2   538  GSP538      0.2300
@<TRIPOS>BOND
     1     8     6    2
     2     5     1    2
     3     4     1    1
     4     7     6    1
     5     1     2    1
     6     1     3    1
     7     6     2    1
     8     6    12    1
     9    10     9    2
    10    12     9    1
    11     9    11    1
    12     9    13    1
    13    24    23    1
    14    24    25    2
    15    27    26    2
    16    23    22    1
    17    13    14    1
    18    26    25    1
    19    26    28    2
    20    25    32    1
    21    14    15    1
    22    22    32    1
    23    22    21    1
    24    32    31    2
    25    28    29    2
    26    19    21    1
    27    19    17    1
    28    19    20    1
    29    15    16    1
    30    15    17    1
    31    16    21    1
    32    17    18    1
    33    29    31    2
    34    29    30    1
