@<TRIPOS>MOLECULE
1a2c_III_J_1.pdb
 43 45 0 0 0
SMALL
GASTEIGER

@<TRIPOS>ATOM
      1  O4        13.0940  -17.6970   23.8350 O.3     1  34H1       -0.2128
      2  C9        15.6020  -20.3590   24.5100 C.ar    1  34H1       -0.0009
      3  C8        15.9950  -20.5080   25.8180 C.ar    1  34H1        0.0417
      4  C7        15.0680  -20.7230   26.7550 C.ar    1  34H1        0.1957
      5  C6        13.7420  -20.8120   26.4210 C.ar    1  34H1        0.0417
      6  C5        13.3540  -20.7060   25.1210 C.ar    1  34H1       -0.0009
      7  C4        14.2690  -20.3830   24.1940 C.ar    1  34H1       -0.0189
      8  O3        15.4060  -20.9170   28.1120 O.3     1  34H1       -0.2866
      9  C3        13.7910  -19.8430   22.8730 C.3     1  34H1        0.0688
     10  C2        13.8180  -18.3070   22.7360 C.3     1  34H1        0.2333
     11  C1        15.2360  -17.7810   22.7540 C.2     1  34H1        0.2726
     12  O2        16.1150  -18.1270   21.9550 O.2     1  34H1       -0.2706
     13  N         15.4220  -16.8730   23.7010 N.am    2  LEU2       -0.1957
     14  CA        16.5660  -16.0380   24.0450 C.3     2  LEU2        0.1713
     15  C         16.4450  -14.9470   23.0150 C.2     2  LEU2        0.2458
     16  O         15.4510  -14.2040   23.1150 O.2     2  LEU2       -0.2730
     17  CB        17.7670  -16.9500   24.2180 C.3     2  LEU2        0.0310
     18  CG        17.6580  -17.6860   25.5470 C.3     2  LEU2        0.0022
     19  CD1       18.5880  -17.0490   26.5540 C.3     2  LEU2        0.0001
     20  CD2       16.2430  -17.5850   26.1220 C.3     2  LEU2        0.0001
     21  O         15.5220  -13.9470   19.7680 O.2     3  PRO3       -0.2716
     22  N         17.2620  -14.7610   21.9760 N.am    3  PRO3       -0.2731
     23  C         16.0070  -13.1080   20.5290 C.2     3  PRO3        0.2595
     24  CA        17.1510  -13.5110   21.3110 C.3     3  PRO3        0.1535
     25  CB        18.5360  -13.2750   20.6590 C.3     3  PRO3        0.0309
     26  CG        19.5390  -14.1750   21.3630 C.3     3  PRO3        0.0205
     27  C11       20.8410  -14.3950   20.6040 C.3     3  PRO3        0.0043
     28  C12       20.6070  -15.1310   19.2150 C.3     3  PRO3        0.0330
     29  C13       19.7300  -16.3680   19.4980 C.3     3  PRO3        0.1537
     30  C14       18.3280  -16.0470   20.1460 C.3     3  PRO3        0.0527
     31  CD        18.5180  -15.3340   21.5870 C.3     3  PRO3        0.0783
     32  O2        20.4090  -17.4610   20.1070 O.3     3  PRO3       -0.2231
     33  OH1       15.7610  -11.0520   17.9370 O.3     4  OAR4       -0.2185
     34  N1        15.4610  -11.8910   20.5710 N.am    4  OAR4       -0.2031
     35  N2        11.4980  -12.1600   23.6800 N.pl3   4  OAR4       -0.0865
     36  N3        10.1570  -12.8340   25.4680 N.pl3   4  OAR4        0.1354
     37  N4        10.3670  -10.5480   25.0080 N.pl3   4  OAR4        0.1354
     38  C1        14.2540  -11.6070   19.9070 C.3     4  OAR4        0.1283
     39  C2        13.2090  -10.8090   20.7390 C.3     4  OAR4        0.0281
     40  C3        13.1740  -11.7830   21.9080 C.3     4  OAR4        0.0488
     41  C4        12.2180  -11.1000   22.9290 C.3     4  OAR4        0.2205
     42  C5        10.6740  -11.8330   24.7200 C.cat   4  OAR4        0.5346
     43  C6        14.5510  -10.6980   18.7130 C.3     4  OAR4        0.2036
@<TRIPOS>BOND
     1    33    43    1
     2    43    38    1
     3    28    29    1
     4    28    27    1
     5    29    32    1
     6    29    30    1
     7    21    23    2
     8    38    34    1
     9    38    39    1
    10    30    31    1
    11    23    34   am
    12    23    24    1
    13    27    26    1
    14    25    24    1
    15    25    26    1
    16    39    40    1
    17    24    22    1
    18    26    31    1
    19    31    22    1
    20    40    41    1
    21    12    11    2
    22    22    15   am
    23    10    11    1
    24    10     9    1
    25    10     1    1
    26    11    13   am
    27     9     7    1
    28    41    35    1
    29    15    16    2
    30    15    14    1
    31    35    42    2
    32    13    14    1
    33    14    17    1
    34     7     2   ar
    35     7     6   ar
    36    17    18    1
    37     2     3   ar
    38    42    37    1
    39    42    36    1
    40     6     5   ar
    41    18    20    1
    42    18    19    1
    43     3     4   ar
    44     5     4   ar
    45     4     8    1
