@<TRIPOS>MOLECULE
1a2f_HEM_A_1.pdb
 43 50 0 0 0
SMALL
GASTEIGER

@<TRIPOS>ATOM
      1 FE         -5.7610   57.0010  111.6170 Fe      1  HEM1        0.0000
      2  CHA       -5.3900   53.9450  112.9680 C.2     1  HEM1        0.0000
      3  CHB       -7.5680   57.9990  114.3130 C.2     1  HEM1        0.0000
      4  CHC       -5.8970   60.1210  110.3960 C.2     1  HEM1        0.0000
      5  CHD       -3.5330   56.1650  109.2020 C.2     1  HEM1        0.0000
      6  NA        -6.3960   56.1160  113.3350 N.2     1  HEM1        0.0000
      7  C1A       -6.1320   54.8570  113.7190 C.2     1  HEM1        0.0000
      8  C2A       -6.6830   54.5930  114.9500 C.2     1  HEM1        0.0000
      9  C3A       -7.3500   55.7580  115.3300 C.2     1  HEM1        0.0000
     10  C4A       -7.1210   56.6650  114.3290 C.2     1  HEM1        0.0000
     11  CMA       -8.1850   55.9920  116.5880 C.3     1  HEM1        0.0000
     12  CAA       -6.5960   53.2700  115.6880 C.3     1  HEM1        0.0000
     13  CBA       -5.3990   53.1240  116.6040 C.3     1  HEM1        0.0000
     14  CGA       -5.2750   51.7660  117.2710 C.2     1  HEM1        0.0000
     15  O1A       -6.1430   51.3760  118.0430 O.co2   1  HEM1        0.0000
     16  O2A       -4.3090   51.0360  117.0460 O.co2   1  HEM1        0.0000
     17  NB        -6.7210   58.7320  112.1690 N.ar    1  HEM1        0.0000
     18  C1B       -7.3910   58.9610  113.3090 C.ar    1  HEM1        0.0000
     19  C2B       -7.8960   60.2530  113.3470 C.ar    1  HEM1        0.0000
     20  C3B       -7.4470   60.8510  112.1780 C.ar    1  HEM1        0.0000
     21  C4B       -6.6620   59.9030  111.5400 C.ar    1  HEM1        0.0000
     22  CMB       -8.8310   60.7550  114.4400 C.3     1  HEM1        0.0000
     23  CAB       -7.7180   62.0960  111.6270 C.3     1  HEM1        0.0000
     24  CBB       -8.6420   63.0730  112.1050 C.3     1  HEM1        0.0000
     25  NC        -4.8340   57.9800  110.0740 N.2     1  HEM1        0.0000
     26  C1C       -5.0170   59.2620  109.7190 C.2     1  HEM1        0.0000
     27  C2C       -4.2130   59.6490  108.6380 C.2     1  HEM1        0.0000
     28  C3C       -3.4500   58.5110  108.3700 C.2     1  HEM1        0.0000
     29  C4C       -3.9310   57.5120  109.2200 C.2     1  HEM1        0.0000
     30  CMC       -4.1140   61.0740  108.0520 C.3     1  HEM1        0.0000
     31  CAC       -2.4370   58.2800  107.4190 C.3     1  HEM1        0.0000
     32  CBC       -2.1110   59.0670  106.2310 C.3     1  HEM1        0.0000
     33  ND        -4.6210   55.3150  111.1620 N.ar    1  HEM1        0.0000
     34  C1D       -3.8860   55.1350  110.0710 C.ar    1  HEM1        0.0000
     35  C2D       -3.5730   53.8060  109.8930 C.ar    1  HEM1        0.0000
     36  C3D       -4.0810   53.1650  111.0170 C.ar    1  HEM1        0.0000
     37  C4D       -4.7170   54.1360  111.7630 C.ar    1  HEM1        0.0000
     38  CMD       -2.9210   53.1800  108.6530 C.3     1  HEM1        0.0000
     39  CAD       -4.0000   51.6710  111.3290 C.3     1  HEM1        0.0000
     40  CBD       -2.8480   51.2870  112.2880 C.3     1  HEM1        0.0000
     41  CGD       -2.8570   49.8300  112.6910 C.2     1  HEM1        0.0000
     42  O1D       -2.2900   49.4990  113.7080 O.co2   1  HEM1        0.0000
     43  O2D       -3.4460   49.0070  111.9880 O.co2   1  HEM1        0.0000
@<TRIPOS>BOND
     1    32    31    1
     2    31    28    1
     3    30    27    1
     4    28    27    2
     5    28    29    1
     6    27    26    1
     7    38    35    1
     8     5    29    1
     9     5    34    2
    10    29    25    2
    11    26    25    1
    12    26     4    2
    13    35    34   ar
    14    35    36   ar
    15    34    33   ar
    16    25     1    1
    17     4    21    1
    18    36    39    1
    19    36    37   ar
    20    33     1    1
    21    33    37   ar
    22    39    40    1
    23    21    17   ar
    24    21    20   ar
    25     1    17    1
    26     1     6    1
    27    23    24    1
    28    23    20    1
    29    37     2    2
    30    43    41   ar
    31    17    18   ar
    32    20    19   ar
    33    40    41    1
    34    41    42   ar
    35     2     7    1
    36    18    19   ar
    37    18     3    1
    38     6     7    2
    39     6    10    1
    40    19    22    1
    41     7     8    1
    42     3    10    2
    43    10     9    1
    44     8     9    2
    45     8    12    1
    46     9    11    1
    47    12    13    1
    48    13    14    1
    49    16    14   ar
    50    14    15   ar
