@<TRIPOS>MOLECULE
1a2g_HEM_A_1.pdb
 43 50 0 0 0
SMALL
GASTEIGER

@<TRIPOS>ATOM
      1 FE         -5.7940   57.0880  111.6860 Fe      1  HEM1        0.0000
      2  CHA       -5.5670   53.9520  112.9390 C.2     1  HEM1        0.0000
      3  CHB       -7.4840   58.0550  114.4630 C.2     1  HEM1        0.0000
      4  CHC       -5.9720   60.2000  110.5270 C.2     1  HEM1        0.0000
      5  CHD       -3.6160   56.2670  109.2690 C.2     1  HEM1        0.0000
      6  NA        -6.3950   56.1760  113.4230 N.2     1  HEM1        0.0000
      7  C1A       -6.2160   54.8860  113.7460 C.2     1  HEM1        0.0000
      8  C2A       -6.7380   54.6040  114.9870 C.2     1  HEM1        0.0000
      9  C3A       -7.3220   55.7910  115.4250 C.2     1  HEM1        0.0000
     10  C4A       -7.0640   56.7210  114.4340 C.2     1  HEM1        0.0000
     11  CMA       -8.1980   56.0310  116.6570 C.3     1  HEM1        0.0000
     12  CAA       -6.6880   53.2430  115.6700 C.3     1  HEM1        0.0000
     13  CBA       -5.4640   53.0570  116.5300 C.3     1  HEM1        0.0000
     14  CGA       -5.3810   51.7150  117.2450 C.2     1  HEM1        0.0000
     15  O1A       -6.1940   51.3810  118.1150 O.co2   1  HEM1        0.0000
     16  O2A       -4.4490   50.9700  116.9910 O.co2   1  HEM1        0.0000
     17  NB        -6.7420   58.8120  112.3110 N.ar    1  HEM1        0.0000
     18  C1B       -7.3660   59.0300  113.4640 C.ar    1  HEM1        0.0000
     19  C2B       -7.9100   60.3160  113.5280 C.ar    1  HEM1        0.0000
     20  C3B       -7.5310   60.9140  112.3270 C.ar    1  HEM1        0.0000
     21  C4B       -6.7210   59.9720  111.6800 C.ar    1  HEM1        0.0000
     22  CMB       -8.7760   60.8230  114.6860 C.3     1  HEM1        0.0000
     23  CAB       -7.8580   62.1530  111.7450 C.3     1  HEM1        0.0000
     24  CBB       -8.7950   63.1370  112.2190 C.3     1  HEM1        0.0000
     25  NC        -4.9130   58.0820  110.1420 N.2     1  HEM1        0.0000
     26  C1C       -5.1200   59.3620  109.8040 C.2     1  HEM1        0.0000
     27  C2C       -4.3740   59.7360  108.6800 C.2     1  HEM1        0.0000
     28  C3C       -3.6060   58.5990  108.3980 C.2     1  HEM1        0.0000
     29  C4C       -4.0290   57.6070  109.2850 C.2     1  HEM1        0.0000
     30  CMC       -4.3430   61.1350  108.0490 C.3     1  HEM1        0.0000
     31  CAC       -2.6270   58.3420  107.4230 C.3     1  HEM1        0.0000
     32  CBC       -2.2840   59.1350  106.2970 C.3     1  HEM1        0.0000
     33  ND        -4.8050   55.3640  111.1310 N.ar    1  HEM1        0.0000
     34  C1D       -3.9990   55.2160  110.0850 C.ar    1  HEM1        0.0000
     35  C2D       -3.6590   53.8810  109.9040 C.ar    1  HEM1        0.0000
     36  C3D       -4.2480   53.2030  110.9700 C.ar    1  HEM1        0.0000
     37  C4D       -4.9030   54.1650  111.7230 C.ar    1  HEM1        0.0000
     38  CMD       -2.8890   53.2630  108.7480 C.3     1  HEM1        0.0000
     39  CAD       -4.1870   51.7020  111.2290 C.3     1  HEM1        0.0000
     40  CBD       -3.0870   51.3360  112.2110 C.3     1  HEM1        0.0000
     41  CGD       -3.0280   49.8630  112.5950 C.2     1  HEM1        0.0000
     42  O1D       -2.3940   49.5440  113.5900 O.co2   1  HEM1        0.0000
     43  O2D       -3.5930   49.0170  111.8980 O.co2   1  HEM1        0.0000
@<TRIPOS>BOND
     1    32    31    1
     2    31    28    1
     3    30    27    1
     4    28    27    2
     5    28    29    1
     6    27    26    1
     7    38    35    1
     8     5    29    1
     9     5    34    2
    10    29    25    2
    11    26    25    1
    12    26     4    2
    13    35    34   ar
    14    35    36   ar
    15    34    33   ar
    16    25     1    1
    17     4    21    1
    18    36    39    1
    19    36    37   ar
    20    33     1    1
    21    33    37   ar
    22    39    40    1
    23    21    17   ar
    24    21    20   ar
    25     1    17    1
    26     1     6    1
    27    37     2    2
    28    23    24    1
    29    23    20    1
    30    43    41   ar
    31    40    41    1
    32    17    18   ar
    33    20    19   ar
    34    41    42   ar
    35     2     7    1
    36     6     7    2
    37     6    10    1
    38    18    19   ar
    39    18     3    1
    40    19    22    1
    41     7     8    1
    42    10     3    2
    43    10     9    1
    44     8     9    2
    45     8    12    1
    46     9    11    1
    47    12    13    1
    48    13    14    1
    49    16    14   ar
    50    14    15   ar
