@<TRIPOS>MOLECULE
1a2n_TET_A_1.pdb
 50 52 0 0 0
SMALL
GASTEIGER

@<TRIPOS>ATOM
      1  C1        48.8840   22.3450   35.5710 C.1   420  TET420      0.2182
      2  N1        50.0350   22.6720   36.1030 N.2   420  TET420     -0.2452
      3  C3        50.3320   22.6350   37.3630 C.1   420  TET420      0.2845
      4  N2        49.3940   22.2630   38.2930 N.am  420  TET420     -0.1766
      5  C5        48.1570   21.8900   37.8720 C.2   420  TET420      0.0929
      6  C6        47.8790   21.9480   36.5250 C.2   420  TET420      0.1242
      7  O1        48.7100   22.4380   34.3790 O.2   420  TET420     -0.2085
      8  O2        51.4410   23.0520   37.7060 O.2   420  TET420     -0.1918
      9  C9        48.8100   23.1030   40.6230 C.3   420  TET420      0.2319
     10  C2        49.7500   22.2790   39.7180 C.3   420  TET420      0.2401
     11  O3        49.5530   20.9420   40.0950 O.3   420  TET420     -0.3320
     12  C4        49.0880   20.8470   41.4090 C.3   420  TET420      0.1799
     13  C15       48.9250   22.3100   41.9800 C.3   420  TET420      0.2158
     14  C12       47.7660   20.0620   41.2510 C.3   420  TET420      0.1813
     15  O14       50.0840   22.9840   42.6460 O.3   420  TET420     -0.2175
     16  O11       48.8240   24.5940   40.4240 O.3   420  TET420     -0.2157
     17  O4        46.6990   20.7830   40.5920 O.3   420  TET420     -0.3112
     18  P1        45.5540   19.9700   39.9420 P.3   420  TET420      0.2189
     19  O5        45.7580   18.6050   40.3760 O.3   420  TET420     -0.4371
     20  O6        45.5470   20.0670   38.4780 O.2   420  TET420     -0.5170
     21  O7        44.2400   20.2290   40.5730 O.3   420  TET420     -0.2703
     22  P2        43.1760   21.0090   39.8650 P.3   420  TET420      0.2208
     23  O8        41.8030   21.0030   40.5950 O.3   420  TET420     -0.2864
     24  O9        42.8270   20.3110   38.6820 O.2   420  TET420     -0.5170
     25  O10       43.6170   22.3650   39.5420 O.3   420  TET420     -0.4371
     26  C10       41.1980   19.8180   41.1000 C.3   420  TET420      0.2632
     27  C18       40.0270   20.2250   41.9970 C.3   420  TET420      0.1814
     28  C13       40.4960   21.0160   43.2090 C.3   420  TET420      0.1758
     29  C20       41.5280   20.1180   43.9700 C.3   420  TET420      0.2104
     30  C16       42.6570   19.7800   43.0030 C.3   420  TET420      0.1833
     31  C17       43.8560   19.0270   43.6360 C.3   420  TET420      0.2142
     32  C7        38.3310   20.6900   40.3530 C.2   420  TET420      0.2420
     33  N3        39.0990   21.0970   41.3170 N.am  420  TET420     -0.1994
     34  O21       39.3280   21.2910   44.0240 O.3   420  TET420     -0.3215
     35  O22       42.2430   20.4760   45.2150 O.3   420  TET420     -0.2178
     36  O23       42.1200   19.0770   41.8720 O.3   420  TET420     -0.3260
     37  O24       43.6190   17.6740   44.2820 O.3   420  TET420     -0.2176
     38  O12       38.4910   19.5780   39.8990 O.2   420  TET420     -0.2733
     39  C8        37.2840   21.7050   39.9190 C.3   420  TET420      0.0964
     40  C11       38.9440   22.6660   44.3570 C.3   420  TET420      0.3250
     41  C19       40.0570   23.6650   44.4610 C.3   420  TET420      0.2611
     42  O13       38.1080   23.1940   43.2950 O.3   420  TET420     -0.2360
     43  P3        38.4640   24.4340   42.4810 P.3   420  TET420      0.5348
     44  O15       37.0970   24.8120   42.3360 O.3   420  TET420     -0.1145
     45  O16       39.1660   24.1290   41.2040 O.2   420  TET420     -0.2223
     46  O17       39.0020   25.5250   43.2500 O.3   420  TET420     -0.1145
     47  C14       38.2900   22.6570   45.8340 C.2   420  TET420      0.4185
     48  O18       37.0560   22.1750   45.8230 O.co2 420  TET420     -0.2401
     49  O19       38.7770   23.0630   46.8540 O.co2 420  TET420     -0.2401
     50  F1        41.1310   22.9800   44.8910 F     420  TET420     -0.2282
@<TRIPOS>BOND
     1     7     1    2
     2     1     2    2
     3     1     6    1
     4     2     3    2
     5     6     5    2
     6     3     8    2
     7     3     4   am
     8     5     4    1
     9     4    10    1
    10    20    18    2
    11    24    22    2
    12    25    22    1
    13    10    11    1
    14    10     9    1
    15    22    21    1
    16    22    23    1
    17    38    32    2
    18    39    32    1
    19    18    19    1
    20    18    21    1
    21    18    17    1
    22    11    12    1
    23    32    33   am
    24    16     9    1
    25    17    14    1
    26    23    26    1
    27     9    13    1
    28    26    36    1
    29    26    27    1
    30    45    43    2
    31    14    12    1
    32    33    27    1
    33    12    13    1
    34    36    30    1
    35    13    15    1
    36    27    28    1
    37    44    43    1
    38    43    46    1
    39    43    42    1
    40    30    31    1
    41    30    29    1
    42    28    29    1
    43    28    34    1
    44    42    40    1
    45    31    37    1
    46    29    35    1
    47    34    40    1
    48    40    41    1
    49    40    47    1
    50    41    50    1
    51    48    47   ar
    52    47    49   ar
