@<TRIPOS>MOLECULE
1a2t_THP_A_1.pdb
 26 27 0 0 0
SMALL
GASTEIGER

@<TRIPOS>ATOM
      1  P2         6.3310   13.9750   20.3380 P.3   151  THP151      0.5327
      2  O4P        5.3900   14.0120   19.1520 O.2   151  THP151     -0.2224
      3  O5P        7.5780   14.7520   20.0700 O.3   151  THP151     -0.1145
      4  O6P        6.5230   12.6420   20.9150 O.3   151  THP151     -0.1145
      5  P1         5.0150   11.7680   26.1130 P.3   151  THP151      0.5326
      6  O1P        5.1290   11.5930   27.5610 O.3   151  THP151     -0.1145
      7  O2P        6.2860   11.6720   25.4090 O.2   151  THP151     -0.2224
      8  O3P        3.9070   11.0760   25.4710 O.3   151  THP151     -0.1145
      9  O5'        5.5810   14.7250   21.5180 O.3   151  THP151     -0.2675
     10  C5'        4.5760   14.1690   22.3780 C.3   151  THP151      0.1857
     11  C4'        5.0710   14.2610   23.8170 C.3   151  THP151      0.1750
     12  O4'        5.3360   15.6190   24.2010 O.3   151  THP151     -0.3327
     13  C3'        3.9920   13.8470   24.7520 C.3   151  THP151      0.1602
     14  O3'        4.5940   13.3270   25.9700 O.3   151  THP151     -0.2700
     15  C2'        3.2340   15.1330   24.9630 C.3   151  THP151      0.0867
     16  C1'        4.3240   16.1230   25.0920 C.3   151  THP151      0.2106
     17  N1         3.8710   17.4690   24.7020 N.ar  151  THP151     -0.2574
     18  C2         3.5540   18.3270   25.7080 C.ar  151  THP151      0.3322
     19  O2         3.8460   18.1860   26.8730 O.2   151  THP151     -0.2464
     20  N3         2.9340   19.4420   25.3690 N.ar  151  THP151     -0.2746
     21  C4         2.7170   19.8770   24.0810 C.ar  151  THP151      0.2584
     22  O4         2.1260   20.9440   23.8940 O.2   151  THP151     -0.2674
     23  C5         3.2110   19.0110   23.0370 C.ar  151  THP151      0.0515
     24  C5M        2.9730   19.4360   21.5660 C.3   151  THP151      0.0376
     25  C6         3.7860   17.8500   23.3850 C.ar  151  THP151      0.0823
     26  H3         2.5820   20.0100   26.1250 H     151  THP151      0.1734
@<TRIPOS>BOND
     1     2     1    2
     2     3     1    1
     3     1     4    1
     4     1     9    1
     5     9    10    1
     6    24    23    1
     7    10    11    1
     8    23    25   ar
     9    23    21   ar
    10    25    17   ar
    11    11    12    1
    12    11    13    1
    13    22    21    2
    14    21    20   ar
    15    12    16    1
    16    17    16    1
    17    17    18   ar
    18    13    15    1
    19    13    14    1
    20    15    16    1
    21    20    18   ar
    22    20    26    1
    23     7     5    2
    24     8     5    1
    25    18    19    2
    26    14     5    1
    27     5     6    1
