@<TRIPOS>MOLECULE
1a2u_THP_A_1.pdb
 26 27 0 0 0
SMALL
GASTEIGER

@<TRIPOS>ATOM
      1  P2         6.4050   14.1670   20.3480 P.3   151  THP151      0.5327
      2  O4P        5.3890   14.2310   19.2580 O.2   151  THP151     -0.2224
      3  O5P        7.6590   14.9070   19.9840 O.3   151  THP151     -0.1145
      4  O6P        6.5870   12.8420   20.8920 O.3   151  THP151     -0.1145
      5  P1         4.9140   11.8730   26.1790 P.3   151  THP151      0.5326
      6  O1P        4.7780   11.6180   27.6160 O.3   151  THP151     -0.1145
      7  O2P        6.2560   11.8910   25.6040 O.3   151  THP151     -0.1145
      8  O3P        3.9100   11.1480   25.3790 O.2   151  THP151     -0.2224
      9  O5'        5.7530   14.8940   21.6150 O.3   151  THP151     -0.2675
     10  C5'        4.6660   14.4320   22.4340 C.3   151  THP151      0.1857
     11  C4'        5.1010   14.4250   23.8990 C.3   151  THP151      0.1750
     12  O4'        5.4460   15.7470   24.3090 O.3   151  THP151     -0.3327
     13  C3'        3.9860   14.0580   24.8510 C.3   151  THP151      0.1602
     14  O3'        4.5330   13.4790   26.0700 O.3   151  THP151     -0.2700
     15  C2'        3.2410   15.3070   25.1380 C.3   151  THP151      0.0867
     16  C1'        4.3590   16.2950   25.1170 C.3   151  THP151      0.2106
     17  N1         3.9280   17.6540   24.6910 N.ar  151  THP151     -0.2574
     18  C2         3.5430   18.5130   25.7040 C.ar  151  THP151      0.3322
     19  O2         3.8380   18.3730   26.8860 O.2   151  THP151     -0.2464
     20  N3         2.8520   19.6200   25.3210 N.ar  151  THP151     -0.2746
     21  C4         2.6780   20.0530   24.0130 C.ar  151  THP151      0.2584
     22  O4         2.1290   21.1370   23.8370 O.2   151  THP151     -0.2674
     23  C5         3.2260   19.1700   22.9850 C.ar  151  THP151      0.0515
     24  C5M        3.1130   19.5840   21.5040 C.3   151  THP151      0.0376
     25  C6         3.8390   18.0220   23.3520 C.ar  151  THP151      0.0823
     26  H3         2.4880   20.2220   26.0500 H     151  THP151      0.1734
@<TRIPOS>BOND
     1     2     1    2
     2     3     1    1
     3     1     4    1
     4     1     9    1
     5    24    23    1
     6     9    10    1
     7    10    11    1
     8    23    25   ar
     9    23    21   ar
    10    25    17   ar
    11    22    21    2
    12    11    12    1
    13    11    13    1
    14    21    20   ar
    15    12    16    1
    16    17    16    1
    17    17    18   ar
    18    13    15    1
    19    13    14    1
    20    16    15    1
    21    20    18   ar
    22    20    26    1
    23     8     5    2
    24     7     5    1
    25    18    19    2
    26    14     5    1
    27     5     6    1
