@<TRIPOS>MOLECULE
1a30_III_C_1.pdb
 26 25 0 0 0
SMALL
GASTEIGER

@<TRIPOS>ATOM
      1  N          4.8410   27.5760    5.3100 N.3   506  GLU506     -0.1231
      2  CA         5.7330   26.3940    5.1650 C.3   506  GLU506      0.1699
      3  C          7.1740   26.7720    5.5040 C.2   506  GLU506      0.2592
      4  O          7.6240   27.8870    5.2180 O.2   506  GLU506     -0.2718
      5  CB         5.6380   25.8180    3.7500 C.3   506  GLU506      0.0402
      6  CG         5.8270   26.8460    2.6520 C.3   506  GLU506      0.1161
      7  CD         5.6250   26.2750    1.2620 C.2   506  GLU506      0.3649
      8  OE1        4.6630   25.4970    1.0650 O.co2 506  GLU506     -0.2457
      9  OE2        6.4250   26.6200    0.3630 O.co2 506  GLU506     -0.2457
     10  N          7.8730   25.8560    6.1630 N.am  507  ASP507     -0.1960
     11  CA         9.2580   26.0720    6.5600 C.3   507  ASP507      0.1840
     12  C         10.1010   24.9180    6.0470 C.2   507  ASP507      0.2623
     13  O         10.1820   23.8640    6.6820 O.2   507  ASP507     -0.2715
     14  CB         9.3460   26.1960    8.0790 C.3   507  ASP507      0.1450
     15  CG         8.6490   27.4410    8.5880 C.2   507  ASP507      0.3671
     16  OD1        9.2700   28.5180    8.5210 O.co2 507  ASP507     -0.2456
     17  OD2        7.4740   27.3570    9.0120 O.co2 507  ASP507     -0.2456
     18  N         10.6860   25.1150    4.8690 N.am  508  LEU508     -0.1941
     19  CA        11.4980   24.0930    4.2260 C.3   508  LEU508      0.1978
     20  C         12.9840   24.3990    4.2680 C.2   508  LEU508      0.3842
     21  O         13.7840   23.4420    4.1920 O.co2 508  LEU508     -0.2437
     22  CB        11.0380   23.9220    2.7850 C.3   508  LEU508      0.0333
     23  CG         9.5830   23.4660    2.7700 C.3   508  LEU508      0.0023
     24  CD1        8.8190   24.1970    1.7080 C.3   508  LEU508      0.0001
     25  CD2        9.5210   21.9550    2.6020 C.3   508  LEU508      0.0001
     26  OXT       13.3340   25.5920    4.3780 O.co2 508  LEU508     -0.2437
@<TRIPOS>BOND
     1     9     7   ar
     2     8     7   ar
     3     7     6    1
     4    24    23    1
     5    25    23    1
     6     6     5    1
     7    23    22    1
     8    22    19    1
     9     5     2    1
    10    21    20   ar
    11    19    20    1
    12    19    18    1
    13    20    26   ar
    14    18    12   am
    15     2     1    1
    16     2     3    1
    17     4     3    2
    18     3    10   am
    19    12    11    1
    20    12    13    2
    21    10    11    1
    22    11    14    1
    23    14    15    1
    24    16    15   ar
    25    15    17   ar
