@<TRIPOS>MOLECULE
1a34_U_B_1.pdb
 20 18 0 0 0
SMALL
GASTEIGER

@<TRIPOS>ATOM
      1  OP3        3.6800   50.8630   29.8020 O.3    11  U11        -0.1145
      2  P          2.8530   49.6480   30.0320 P.3    11  U11         0.5320
      3  OP1        1.6230   49.4000   29.2710 O.2    11  U11        -0.2224
      4  OP2        3.8490   48.4110   29.7900 O.3    11  U11        -0.1145
      5  O5'        2.5420   49.5850   31.6010 O.3    11  U11        -0.2810
      6  C5'        3.1980   50.4740   32.5470 C.3    11  U11         0.0861
      7  C4'        2.7220   50.1890   33.9560 C.3    11  U11         0.0946
      8  O4'        1.3530   49.6950   33.9020 O.3    11  U11        -0.3497
      9  C3'        3.5170   49.1330   34.7220 C.3    11  U11         0.0578
     10  C2'        2.6970   47.8650   34.5050 C.3    11  U11         0.1503
     11  O2'        2.8770   46.9070   35.5310 O.3    11  U11        -0.3808
     12  C1'        1.2760   48.4240   34.5200 C.3    11  U11         0.1743
     13  N1         0.3130   47.6040   33.7740 N.3    11  U11        -0.1061
     14  H5'        2.7280   51.4450   32.5030 H      11  U11         0.0592
     15 H5''        4.2400   50.5710   32.2840 H      11  U11         0.0592
     16  H4'        3.3110   50.7160   34.6580 H      11  U11         0.0627
     17  H3'        4.8230   48.6480   33.6220 H      11  U11         0.0000
     18 HO3'        4.3750   49.7170   35.8860 H      11  U11         0.0000
     19 HO2'        3.5460   46.6860   35.6950 H      11  U11         0.2105
     20  H1'        1.6500   48.0310   35.6240 H      11  U11         0.0827
@<TRIPOS>BOND
     1     3     2    2
     2     4     2    1
     3     1     2    1
     4     2     5    1
     5     5     6    1
     6    15     6    1
     7    14     6    1
     8     6     7    1
     9    13    12    1
    10     8     7    1
    11     8    12    1
    12     7    16    1
    13     7     9    1
    14    10    12    1
    15    10     9    1
    16    10    11    1
    17    12    20    1
    18    11    19    1
