@<TRIPOS>MOLECULE
1a37_III_P_1.pdb
 34 33 0 0 0
SMALL
GASTEIGER

@<TRIPOS>ATOM
      1  N         18.8740   66.1660  -19.8220 N.3   256  ARG256     -0.1210
      2  CA        19.3510   66.2730  -18.3800 C.3   256  ARG256      0.1956
      3  C         18.2520   66.8080  -17.4710 C.2   256  ARG256      0.2612
      4  O         17.0990   66.7980  -17.8940 O.2   256  ARG256     -0.2717
      5  N         18.5530   67.1860  -16.2250 N.am  257  SER257     -0.1942
      6  CA        17.5050   67.7380  -15.3700 C.3   257  SER257      0.2014
      7  C         17.3340   67.1920  -13.9590 C.2   257  SER257      0.2639
      8  O         18.2410   67.3330  -13.1500 O.2   257  SER257     -0.2714
      9  N         16.1130   66.7160  -13.6570 N.am  258  THR258     -0.1939
     10  CA        15.7210   66.1050  -12.3740 C.3   258  THR258      0.2014
     11  C         15.9140   66.8620  -11.0660 C.2   258  THR258      0.2640
     12  O         16.6360   67.8550  -11.0790 O.2   258  THR258     -0.2714
     13  N2        15.2830   66.4620   -9.9480 N.am  259  PSE259     -0.1936
     14  C2        14.3780   65.3200   -9.8140 C.3   259  PSE259      0.2027
     15  C1        13.7520   65.2630   -8.3770 C.2   259  PSE259      0.2643
     16  O1        12.5660   64.9690   -8.1840 O.2   259  PSE259     -0.2714
     17  C3        15.2090   64.0250   -9.9580 C.3   259  PSE259      0.1847
     18  O1P       15.3410   63.2390  -10.9140 O.3   259  PSE259     -0.2679
     19  O2P       17.3870   61.8400  -11.1910 O.2   259  PSE259     -0.2224
     20  O3P       16.4770   62.0590   -8.8320 O.3   259  PSE259     -0.1145
     21  O4P       15.2580   60.7350  -10.5510 O.3   259  PSE259     -0.1145
     22  P         16.1950   61.8450  -10.3070 P.3   259  PSE259      0.5327
     23  N         14.5570   65.5170   -7.3520 N.am  260  THR260     -0.1939
     24  CA        14.0370   65.4740   -5.9940 C.3   260  THR260      0.2014
     25  C         15.0710   65.7060   -4.9070 C.2   260  THR260      0.2639
     26  O         16.0550   66.3920   -5.1480 O.2   260  THR260     -0.2714
     27  N         14.8550   65.1340   -3.7200 N.am  261  PRO261     -0.1939
     28  CA        15.7890   65.3010   -2.6110 C.3   261  PRO261      0.2014
     29  C         15.2140   64.8830   -1.2530 C.2   261  PRO261      0.2639
     30  O         14.0050   64.7240   -1.1170 O.2   261  PRO261     -0.2714
     31  N         16.0610   64.6820   -0.2480 N.am  262  ASN262     -0.1954
     32  CA        15.5510   64.2780    1.0500 C.3   262  ASN262      0.1869
     33  C         16.5510   64.4290    2.1760 C.2   262  ASN262      0.2309
     34  O         16.5720   63.5600    3.0700 O.2   262  ASN262     -0.2863
@<TRIPOS>BOND
     1     1     2    1
     2     2     3    1
     3     4     3    2
     4     3     5   am
     5     5     6    1
     6     6     7    1
     7     7     9   am
     8     7     8    2
     9     9    10    1
    10    10    11    1
    11    19    22    2
    12    12    11    2
    13    11    13   am
    14    18    22    1
    15    18    17    1
    16    21    22    1
    17    22    20    1
    18    17    14    1
    19    13    14    1
    20    14    15    1
    21    15    16    2
    22    15    23   am
    23    23    24    1
    24    24    25    1
    25    26    25    2
    26    25    27   am
    27    27    28    1
    28    28    29    1
    29    29    30    2
    30    29    31   am
    31    31    32    1
    32    32    33    1
    33    33    34    2
