@<TRIPOS>MOLECULE
1a38_III_P_1.pdb
 47 48 0 0 0
SMALL
GASTEIGER

@<TRIPOS>ATOM
      1  N          9.1920   64.2680    3.3370 N.3     1  TRP1       -0.1227
      2  CA        10.0050   64.7540    2.1820 C.3     1  TRP1        0.1734
      3  C          9.9800   63.6780    1.0680 C.2     1  TRP1        0.2595
      4  O          9.4220   62.6010    1.2670 O.2     1  TRP1       -0.2718
      5  CB        11.4280   65.0700    2.6870 C.3     1  TRP1        0.0527
      6  CG        12.3400   65.8630    1.7450 C.2     1  TRP1       -0.0139
      7  CD1       12.0780   66.2460    0.4450 C.2     1  TRP1        0.0907
      8  CD2       13.7010   66.2500    2.0000 C.3     1  TRP1        0.0819
      9  NE1       13.1990   66.8160   -0.1220 N.2     1  TRP1       -0.2482
     10  CE2       14.2060   66.8290    0.8060 C.2     1  TRP1        0.0665
     11  CE3       14.5450   66.1570    3.1180 C.2     1  TRP1       -0.0164
     12  CZ2       15.5160   67.3040    0.7030 C.2     1  TRP1        0.0153
     13  CZ3       15.8440   66.6310    3.0130 C.2     1  TRP1       -0.0038
     14  CH2       16.3170   67.1960    1.8120 C.2     1  TRP1        0.0009
     15  N         10.4980   63.9990   -0.1190 N.am    2  LEU2       -0.1966
     16  CA        10.5270   63.0540   -1.2470 C.3     2  LEU2        0.1728
     17  C         11.9230   62.8670   -1.8760 C.2     2  LEU2        0.2616
     18  O         12.9590   63.1150   -1.2480 O.2     2  LEU2       -0.2715
     19  CB         9.5600   63.5110   -2.3470 C.3     2  LEU2        0.0311
     20  CG        10.0530   64.6440   -3.2600 C.3     2  LEU2        0.0022
     21  CD1        9.2350   64.6880   -4.5400 C.3     2  LEU2        0.0001
     22  CD2       10.0250   65.9760   -2.5330 C.3     2  LEU2        0.0001
     23  N         11.9330   62.3970   -3.1190 N.am    3  ASP3       -0.1957
     24  CA        13.1700   62.1960   -3.8540 C.3     3  ASP3        0.1840
     25  C         13.3270   63.3330   -4.8620 C.2     3  ASP3        0.2622
     26  O         12.3410   63.8710   -5.3730 O.2     3  ASP3       -0.2715
     27  CB        13.1600   60.8410   -4.5590 C.3     3  ASP3        0.1450
     28  CG        14.5210   60.4570   -5.1070 C.2     3  ASP3        0.3671
     29  OD1       15.0780   61.2080   -5.9300 O.co2   3  ASP3       -0.2456
     30  OD2       15.0360   59.3880   -4.7290 O.co2   3  ASP3       -0.2456
     31  N         14.5730   63.6250   -5.2110 N.am    4  LEU4       -0.1963
     32  CA        14.8940   64.7260   -6.1130 C.3     4  LEU4        0.1728
     33  C         16.2100   64.5090   -6.9120 C.2     4  LEU4        0.2616
     34  O         17.0660   63.7270   -6.4870 O.2     4  LEU4       -0.2715
     35  CB        15.0310   65.9650   -5.2130 C.3     4  LEU4        0.0311
     36  CG        15.4200   67.3410   -5.7340 C.3     4  LEU4        0.0022
     37  CD1       14.3060   67.7890   -6.6420 C.3     4  LEU4        0.0001
     38  CD2       15.6320   68.3370   -4.5770 C.3     4  LEU4        0.0001
     39  N         16.3420   65.1450   -8.0830 N.am    5  GLU5       -0.1977
     40  CA        17.5860   65.0960   -8.8890 C.3     5  GLU5        0.1602
     41  C         17.7800   66.3900   -9.6920 C.2     5  GLU5        0.2287
     42  O         16.7950   66.8630  -10.2970 O.2     5  GLU5       -0.2864
     43  CB        17.6770   63.8950   -9.8520 C.3     5  GLU5        0.0415
     44  CG        19.0770   63.8170  -10.5390 C.3     5  GLU5        0.1163
     45  CD        19.1590   62.8800  -11.7410 C.2     5  GLU5        0.3649
     46  OE1       18.3380   61.9500  -11.8410 O.co2   5  GLU5       -0.2457
     47  OE2       20.0600   63.0720  -12.5890 O.co2   5  GLU5       -0.2457
@<TRIPOS>BOND
     1    47    45   ar
     2    46    45   ar
     3    45    44    1
     4    44    43    1
     5    42    41    2
     6    43    40    1
     7    41    40    1
     8    40    39    1
     9    39    33   am
    10    33    34    2
    11    33    32    1
    12    37    36    1
    13    32    35    1
    14    32    31    1
    15    29    28   ar
    16    36    35    1
    17    36    38    1
    18    26    25    2
    19    31    25   am
    20    28    30   ar
    21    28    27    1
    22    25    24    1
    23    27    24    1
    24    21    20    1
    25    24    23    1
    26    20    22    1
    27    20    19    1
    28    23    17   am
    29    19    16    1
    30    17    18    2
    31    17    16    1
    32    16    15    1
    33     9     7    1
    34     9    10    2
    35    15     3   am
    36     7     6    2
    37    12    10    1
    38    12    14    2
    39    10     8    1
    40     3     4    2
    41     3     2    1
    42     6     8    1
    43     6     5    1
    44    14    13    1
    45     8    11    1
    46     2     5    1
    47     2     1    1
    48    13    11    2
