@<TRIPOS>MOLECULE
1a3b_T29_H_1.pdb
 34 35 0 0 0
SMALL
GASTEIGER

@<TRIPOS>ATOM
      1  N1A       18.4290  -12.1600   11.4250 N.pl3   1  T291        0.0000
      2  N1B       17.9810   -9.9490   10.9480 N.pl3   1  T291        0.0000
      3  C1        17.6540  -11.1320   11.6650 C.2     1  T291        0.0000
      4  S2        16.3250  -10.8150   12.8250 S.3     1  T291        0.0000
      5  C3        16.3010  -12.3330   13.6870 C.3     1  T291        0.0000
      6  C4        15.0410  -12.3090   14.5570 C.3     1  T291        0.0000
      7  C5        14.8670  -11.0460   15.3690 C.3     1  T291        0.0000
      8  C6        13.6630  -11.3180   16.3400 C.3     1  T291        0.0000
      9  B         13.5550  -10.2610   17.4480 B       1  T291        0.0000
     10  O1A       14.6300   -9.9660   18.3560 O.3     1  T291        0.0000
     11  O1B       12.4140  -10.3380   18.2540 O.3     1  T291        0.0000
     12  N7        12.3690  -11.2370   15.5550 N.am    1  T291        0.0000
     13  C8        11.7540  -12.5330   15.3520 C.2     1  T291        0.0000
     14  O8        11.9740  -13.5970   15.9520 O.2     1  T291        0.0000
     15  C9        10.4110  -12.4450   14.6530 C.3     1  T291        0.0000
     16  C9A        9.2070  -12.2770   15.6760 C.3     1  T291        0.0000
     17  C9B        8.2190  -13.4990   15.3830 C.3     1  T291        0.0000
     18  C9C        8.9620  -14.5490   14.5190 C.3     1  T291        0.0000
     19  N10       10.0510  -13.6960   13.9640 N.am    1  T291        0.0000
     20  C11       11.0390  -14.1850   13.0720 C.2     1  T291        0.0000
     21  O11       12.0810  -13.5340   12.7830 O.2     1  T291        0.0000
     22  C12       10.8370  -15.5500   12.4580 C.3     1  T291        0.0000
     23  C13       10.5290  -15.4890   10.8800 C.3     1  T291        0.0000
     24  C21        9.0430  -15.0410   10.7570 C.ar    1  T291        0.0000
     25  C22        8.7570  -13.8180   10.1120 C.ar    1  T291        0.0000
     26  C23        7.4460  -13.2870   10.0850 C.ar    1  T291        0.0000
     27  C24        6.3820  -14.0260   10.7000 C.ar    1  T291        0.0000
     28  C25        6.6670  -15.2890   11.3100 C.ar    1  T291        0.0000
     29  C26        7.9720  -15.7720   11.3400 C.ar    1  T291        0.0000
     30  N14       12.0720  -16.2390   12.5690 N.am    1  T291        0.0000
     31  C15       12.0110  -17.6370   13.0870 C.2     1  T291        0.0000
     32  O15       10.9480  -18.2010   12.8430 O.2     1  T291        0.0000
     33  C16       12.5880  -17.9000   14.4970 C.3     1  T291        0.0000
     34  C17       14.1200  -17.8830   14.3570 C.3     1  T291        0.0000
@<TRIPOS>BOND
     1    26    25   ar
     2    26    27   ar
     3    25    24   ar
     4    27    28   ar
     5    24    23    1
     6    24    29   ar
     7    23    22    1
     8     2     3    2
     9    28    29   ar
    10     1     3    1
    11     3     4    1
    12    22    30    1
    13    22    20    1
    14    30    31   am
    15    21    20    2
    16     4     5    1
    17    32    31    2
    18    20    19   am
    19    31    33    1
    20     5     6    1
    21    19    18    1
    22    19    15    1
    23    34    33    1
    24    18    17    1
    25     6     7    1
    26    15    13    1
    27    15    16    1
    28    13    12   am
    29    13    14    2
    30     7     8    1
    31    17    16    1
    32    12     8    1
    33     8     9    1
    34     9    11    1
    35     9    10    1
