@<TRIPOS>MOLECULE
1a3e_T16_H_1.pdb
 35 36 0 0 0
SMALL
GASTEIGER

@<TRIPOS>ATOM
      1 BR1        12.3850   -9.8700   23.3810 Br      1  T161        0.0000
      2 BR2        11.4120  -12.1420   23.0000 Br      1  T161        0.0000
      3  C1        11.8810  -10.8700   21.9660 C.3     1  T161        0.0000
      4  C2        13.2080  -11.5040   21.5170 C.3     1  T161        0.0000
      5  C3        13.7070  -10.6510   20.3480 C.3     1  T161        0.0000
      6  C4        14.9260  -11.1040   19.5500 C.3     1  T161        0.0000
      7  B         15.1330  -10.1650   18.3020 B       1  T161        0.0000
      8  O1A       16.2720  -10.3580   17.5790 O.3     1  T161        0.0000
      9  O1B       14.0260  -10.0260   17.4870 O.3     1  T161        0.0000
     10  N5        16.1660  -11.1010   20.3710 N.am    1  T161        0.0000
     11  O6        16.4920  -13.3800   19.8530 O.2     1  T161        0.0000
     12  C6        16.8580  -12.4110   20.4970 C.2     1  T161        0.0000
     13  C7        18.1840  -12.4510   21.2190 C.3     1  T161        0.0000
     14  C7A       19.4070  -12.3830   20.2310 C.3     1  T161        0.0000
     15  C7B       20.2090  -13.7120   20.4430 C.3     1  T161        0.0000
     16  C7C       19.3830  -14.7350   21.2590 C.3     1  T161        0.0000
     17  N8        18.2990  -13.8330   21.7930 N.am    1  T161        0.0000
     18  O9        16.3980  -13.4330   23.0190 O.2     1  T161        0.0000
     19  C9        17.4370  -14.1520   22.9100 C.2     1  T161        0.0000
     20  C10       17.2240  -15.3190   23.8810 C.3     1  T161        0.0000
     21  N12       16.5480  -16.2760   23.0810 N.am    1  T161        0.0000
     22  C11       18.2240  -15.7800   24.8820 C.3     1  T161        0.0000
     23  C21       19.5760  -15.1170   24.9440 C.ar    1  T161        0.0000
     24  C22       20.6730  -15.8280   24.3910 C.ar    1  T161        0.0000
     25  C23       21.9750  -15.3070   24.5290 C.ar    1  T161        0.0000
     26  C24       22.1890  -14.1120   25.2100 C.ar    1  T161        0.0000
     27  C25       21.0870  -13.4070   25.7800 C.ar    1  T161        0.0000
     28  C26       19.7880  -13.9260   25.6470 C.ar    1  T161        0.0000
     29  O13       17.0820  -18.4090   22.6330 O.2     1  T161        0.0000
     30  C13       16.1540  -17.5990   22.7100 C.2     1  T161        0.0000
     31  C14       14.7590  -17.9320   22.1690 C.3     1  T161        0.0000
     32  C15       14.6680  -18.6440   20.8330 C.3     1  T161        0.0000
     33  C16       14.8740  -17.8300   19.5630 C.3     1  T161        0.0000
     34  C17       13.6670  -17.8730   18.6070 C.2     1  T161        0.0000
     35  O17       13.1490  -16.7680   18.3340 O.2     1  T161        0.0000
@<TRIPOS>BOND
     1     9     7    1
     2     8     7    1
     3     7     6    1
     4    35    34    2
     5    34    33    1
     6     6     5    1
     7     6    10    1
     8    33    32    1
     9    11    12    2
    10    14    15    1
    11    14    13    1
    12     5     4    1
    13    10    12   am
    14    15    16    1
    15    12    13    1
    16    32    31    1
    17    13    17    1
    18    16    17    1
    19     4     3    1
    20    17    19   am
    21     3     2    1
    22     3     1    1
    23    31    30    1
    24    29    30    2
    25    30    21   am
    26    19    18    2
    27    19    20    1
    28    21    20    1
    29    20    22    1
    30    24    25   ar
    31    24    23   ar
    32    25    26   ar
    33    22    23    1
    34    23    28   ar
    35    26    27   ar
    36    28    27   ar
