@<TRIPOS>MOLECULE
1a3g_PLP_A_1.pdb
 15 15 0 0 0
SMALL
GASTEIGER

@<TRIPOS>ATOM
      1  N1       -22.9680  -13.9340   -3.3050 N.2   413  PLP413     -0.2716
      2  C2       -22.6470  -13.0450   -4.2670 C.2   413  PLP413      0.0661
      3  C2A      -21.4830  -13.2640   -5.0730 C.3   413  PLP413      0.0498
      4  C3       -23.5070  -11.9980   -4.5780 C.3   413  PLP413      0.2051
      5  O3       -23.1020  -10.8920   -5.2860 O.3   413  PLP413     -0.2125
      6  C4       -24.6360  -11.8850   -4.0100 C.2   413  PLP413     -0.0124
      7  C4A      -25.5060  -10.7740   -4.5220 C.3   413  PLP413      0.0288
      8  C5       -25.0700  -12.8350   -3.0490 C.2   413  PLP413      0.0046
      9  C6       -24.2470  -13.8080   -2.6830 C.3   413  PLP413      0.1488
     10  C5A      -26.5180  -12.8220   -2.4890 C.3   413  PLP413      0.1774
     11  O4P      -26.7710  -11.8210   -1.5250 O.3   413  PLP413     -0.2656
     12  P        -28.2310  -11.5790   -0.9210 P.3   413  PLP413      0.5329
     13  O1P      -29.3140  -11.2750   -1.8270 O.2   413  PLP413     -0.2224
     14  O2P      -27.6590  -10.1050   -0.6550 O.3   413  PLP413     -0.1145
     15  O3P      -28.3950  -12.4250    0.2400 O.3   413  PLP413     -0.1145
@<TRIPOS>BOND
     1     5     4    1
     2     3     2    1
     3     4     2    1
     4     4     6    1
     5     7     6    1
     6     2     1    2
     7     6     8    2
     8     1     9    1
     9     8     9    1
    10     8    10    1
    11    10    11    1
    12    13    12    2
    13    11    12    1
    14    12    14    1
    15    12    15    1
