@<TRIPOS>MOLECULE
1a3k_GAL_A_1.pdb
 11 11 0 0 0
SMALL
GASTEIGER

@<TRIPOS>ATOM
      1  C1        -1.5630   -8.7600    1.0640 C.3   500  GAL500      0.1777
      2  C2        -0.0980   -9.1290    0.9690 C.3   500  GAL500      0.2141
      3  C3         0.8080   -7.9320    1.2650 C.3   500  GAL500      0.2173
      4  C4         0.3860   -6.7390    0.4340 C.3   500  GAL500      0.2142
      5  C5        -1.1180   -6.4690    0.5770 C.3   500  GAL500      0.1810
      6  C6        -1.6290   -5.3480   -0.3200 C.3   500  GAL500      0.2141
      7  O2         0.1640  -10.1670    1.8920 O.3   500  GAL500     -0.2176
      8  O3         2.1310   -8.2730    0.9040 O.3   500  GAL500     -0.2175
      9  O4         0.7140   -6.9870   -0.9240 O.3   500  GAL500     -0.2176
     10  O5        -1.8670   -7.6380    0.2270 O.3   500  GAL500     -0.3481
     11  O6        -3.0170   -5.1240   -0.1260 O.3   500  GAL500     -0.2176
@<TRIPOS>BOND
     1     9     4    1
     2     6    11    1
     3     6     5    1
     4    10     5    1
     5    10     1    1
     6     4     5    1
     7     4     3    1
     8     8     3    1
     9     2     1    1
    10     2     3    1
    11     2     7    1
