@<TRIPOS>MOLECULE
1a3l_CFC_L_1.pdb
 19 19 0 0 0
SMALL
GASTEIGER

@<TRIPOS>ATOM
      1  C1        33.9800   -9.4580   19.9240 C.2   213  CFC213      0.0000
      2  C2        33.4680   -8.7380   20.9990 C.3   213  CFC213      0.0000
      3  C3        32.0840   -8.7050   20.8730 C.2   213  CFC213      0.0000
      4  C4        31.7400   -9.4060   19.7260 C.2   213  CFC213      0.0000
      5  C5        32.9110   -9.8680   19.1360 C.2   213  CFC213      0.0000
      6  C6        33.7020  -11.7060   22.3960 C.2   213  CFC213      0.0000
      7  C7        32.4630  -11.2980   22.8770 C.3   213  CFC213      0.0000
      8  C8        31.4860  -11.8080   22.0300 C.2   213  CFC213      0.0000
      9  C9        32.1210  -12.5290   21.0260 C.2   213  CFC213      0.0000
     10  C10       33.4910  -12.4680   21.2540 C.2   213  CFC213      0.0000
     11  O1        35.4360  -11.0060   18.8290 O.2   213  CFC213      0.0000
     12  O2        34.9810  -10.5980   24.1550 O.co2 213  CFC213      0.0000
     13  C11       35.3600   -9.9190   19.4820 C.2   213  CFC213      0.0000
     14  O3        35.9890  -11.7280   22.5810 O.co2 213  CFC213      0.0000
     15 FE         32.7390  -10.6090   21.0060 Fe    213  CFC213      0.0000
     16  N1        36.4330   -9.2860   19.8950 N.am  213  CFC213      0.0000
     17  C12       37.6700   -9.9920   19.5180 C.3   213  CFC213      0.0000
     18  C13       36.6720   -8.0490   20.6500 C.3   213  CFC213      0.0000
     19  C14       34.9460  -11.3270   23.0670 C.2   213  CFC213      0.0000
@<TRIPOS>BOND
     1    11    13    2
     2     5     4    1
     3     5     1    2
     4    13    16   am
     5    13     1    1
     6    17    16    1
     7     4     3    2
     8    16    18    1
     9     1     2    1
    10     3     2    1
    11     2    15    1
    12     9    10    1
    13     9     8    2
    14    10     6    2
    15     8     7    1
    16     6     7    1
    17     6    19    1
    18    14    19   ar
    19    19    12   ar
