@<TRIPOS>MOLECULE
1a3n_HEM_A_1.pdb
 43 50 0 0 0
SMALL
GASTEIGER

@<TRIPOS>ATOM
      1 FE          8.6570   12.0350   27.6280 Fe    142  HEM142      0.0000
      2  CHA        8.4560   12.9680   30.9430 C.2   142  HEM142      0.0000
      3  CHB        6.9230   14.9560   26.8180 C.2   142  HEM142      0.0000
      4  CHC        8.2200   10.9500   24.3530 C.2   142  HEM142      0.0000
      5  CHD        9.3590    8.7840   28.5990 C.2   142  HEM142      0.0000
      6  NA         7.8530   13.6250   28.6600 N.ar  142  HEM142      0.0000
      7  C1A        7.8810   13.8320   30.0240 C.ar  142  HEM142      0.0000
      8  C2A        7.2590   15.1040   30.3520 C.ar  142  HEM142      0.0000
      9  C3A        6.8350   15.6530   29.2270 C.ar  142  HEM142      0.0000
     10  C4A        7.2130   14.7440   28.1460 C.ar  142  HEM142      0.0000
     11  CMA        6.0830   16.9830   28.9960 C.3   142  HEM142      0.0000
     12  CAA        7.1110   15.6850   31.7940 C.3   142  HEM142      0.0000
     13  CBA        8.2820   16.6090   32.1840 C.3   142  HEM142      0.0000
     14  CGA        8.2820   17.1790   33.5870 C.2   142  HEM142      0.0000
     15  O1A        8.9290   18.2380   33.7670 O.co2 142  HEM142      0.0000
     16  O2A        7.6920   16.5650   34.4900 O.co2 142  HEM142      0.0000
     17  NB         7.7430   12.7730   25.9560 N.2   142  HEM142      0.0000
     18  C1B        7.1460   14.0280   25.8110 C.2   142  HEM142      0.0000
     19  C2B        6.7830   14.2410   24.4250 C.2   142  HEM142      0.0000
     20  C3B        7.1210   13.1410   23.7460 C.2   142  HEM142      0.0000
     21  C4B        7.7440   12.2200   24.7020 C.2   142  HEM142      0.0000
     22  CMB        6.1100   15.5210   23.8690 C.3   142  HEM142      0.0000
     23  CAB        6.9790   12.8130   22.2510 C.2   142  HEM142      0.0000
     24  CBB        5.9450   13.2640   21.5320 C.2   142  HEM142      0.0000
     25  NC         8.7460   10.2590   26.6780 N.ar  142  HEM142      0.0000
     26  C1C        8.5900   10.0330   25.3310 C.ar  142  HEM142      0.0000
     27  C2C        8.8540    8.6190   25.0500 C.ar  142  HEM142      0.0000
     28  C3C        9.1810    8.0370   26.2020 C.ar  142  HEM142      0.0000
     29  C4C        9.0950    9.0370   27.2470 C.ar  142  HEM142      0.0000
     30  CMC        8.7880    8.0330   23.6300 C.3   142  HEM142      0.0000
     31  CAC        9.5350    6.5700   26.5130 C.2   142  HEM142      0.0000
     32  CBC        8.8760    5.5800   25.8870 C.2   142  HEM142      0.0000
     33  ND         8.8270   11.0690   29.4000 N.2   142  HEM142      0.0000
     34  C1D        9.1880    9.7630   29.5700 C.2   142  HEM142      0.0000
     35  C2D        9.3560    9.5180   30.9960 C.2   142  HEM142      0.0000
     36  C3D        9.0960   10.6600   31.6480 C.2   142  HEM142      0.0000
     37  C4D        8.7780   11.6540   30.6620 C.2   142  HEM142      0.0000
     38  CMD        9.7560    8.1720   31.6130 C.3   142  HEM142      0.0000
     39  CAD        9.1400   10.9180   33.1830 C.3   142  HEM142      0.0000
     40  CBD        7.7490   10.6400   33.7840 C.3   142  HEM142      0.0000
     41  CGD        7.6740   10.7150   35.3140 C.2   142  HEM142      0.0000
     42  O1D        6.7930   11.4580   35.7610 O.co2 142  HEM142      0.0000
     43  O2D        8.4690   10.0060   35.9400 O.co2 142  HEM142      0.0000
@<TRIPOS>BOND
     1    24    23    2
     2    23    20    1
     3    30    27    1
     4    20    19    2
     5    20    21    1
     6    22    19    1
     7     4    21    2
     8     4    26    1
     9    19    18    1
    10    21    17    1
    11    27    26   ar
    12    27    28   ar
    13    26    25   ar
    14    18    17    2
    15    18     3    1
    16    32    31    2
    17    17     1    1
    18    28    31    1
    19    28    29   ar
    20    25    29   ar
    21    25     1    1
    22     3    10    2
    23    29     5    1
    24     1     6    1
    25     1    33    1
    26    10     6   ar
    27    10     9   ar
    28     5    34    2
    29     6     7   ar
    30    11     9    1
    31     9     8   ar
    32    33    34    1
    33    33    37    2
    34    34    35    1
    35     7     8   ar
    36     7     2    2
    37     8    12    1
    38    37     2    1
    39    37    36    1
    40    35    38    1
    41    35    36    2
    42    36    39    1
    43    12    13    1
    44    13    14    1
    45    39    40    1
    46    14    15   ar
    47    14    16   ar
    48    40    41    1
    49    41    42   ar
    50    41    43   ar
