@<TRIPOS>MOLECULE
1a3o_HEM_A_1.pdb
 43 50 0 0 0
SMALL
GASTEIGER

@<TRIPOS>ATOM
      1 FE          8.5630   11.8020   27.6200 Fe    142  HEM142      0.0000
      2  CHA        8.3720   12.6130   30.9680 C.2   142  HEM142      0.0000
      3  CHB        6.8180   14.6520   26.8620 C.2   142  HEM142      0.0000
      4  CHC        8.0230   10.7160   24.3970 C.2   142  HEM142      0.0000
      5  CHD        9.3220    8.5310   28.5420 C.2   142  HEM142      0.0000
      6  NA         7.7790   13.3140   28.6950 N.ar  142  HEM142      0.0000
      7  C1A        7.8120   13.4870   30.0450 C.ar  142  HEM142      0.0000
      8  C2A        7.1630   14.7380   30.3820 C.ar  142  HEM142      0.0000
      9  C3A        6.7370   15.2900   29.2710 C.ar  142  HEM142      0.0000
     10  C4A        7.1120   14.4010   28.1910 C.ar  142  HEM142      0.0000
     11  CMA        5.9890   16.5860   28.9820 C.3   142  HEM142      0.0000
     12  CAA        7.0460   15.2620   31.8350 C.3   142  HEM142      0.0000
     13  CBA        8.1840   16.2360   32.1660 C.3   142  HEM142      0.0000
     14  CGA        8.2560   16.7090   33.5930 C.2   142  HEM142      0.0000
     15  O1A        8.8800   17.7630   33.8310 O.co2 142  HEM142      0.0000
     16  O2A        7.7210   16.0060   34.4640 O.co2 142  HEM142      0.0000
     17  NB         7.5840   12.5150   25.9840 N.2   142  HEM142      0.0000
     18  C1B        6.9970   13.7520   25.8440 C.2   142  HEM142      0.0000
     19  C2B        6.5760   13.9320   24.4840 C.2   142  HEM142      0.0000
     20  C3B        6.9150   12.8630   23.7960 C.2   142  HEM142      0.0000
     21  C4B        7.5560   11.9560   24.7330 C.2   142  HEM142      0.0000
     22  CMB        5.8880   15.2120   23.9690 C.3   142  HEM142      0.0000
     23  CAB        6.6990   12.5170   22.3080 C.2   142  HEM142      0.0000
     24  CBB        5.6230   13.0700   21.6780 C.2   142  HEM142      0.0000
     25  NC         8.6340   10.0230   26.6740 N.ar  142  HEM142      0.0000
     26  C1C        8.4150    9.8050   25.3430 C.ar  142  HEM142      0.0000
     27  C2C        8.6710    8.4100   25.0540 C.ar  142  HEM142      0.0000
     28  C3C        9.0250    7.8180   26.1820 C.ar  142  HEM142      0.0000
     29  C4C        9.0240    8.8170   27.2150 C.ar  142  HEM142      0.0000
     30  CMC        8.5540    7.8000   23.6550 C.3   142  HEM142      0.0000
     31  CAC        9.3860    6.3610   26.5030 C.2   142  HEM142      0.0000
     32  CBC        8.7980    5.3170   25.9790 C.2   142  HEM142      0.0000
     33  ND         8.7700   10.7830   29.3470 N.2   142  HEM142      0.0000
     34  C1D        9.1260    9.4750   29.5100 C.2   142  HEM142      0.0000
     35  C2D        9.3110    9.1770   30.9050 C.2   142  HEM142      0.0000
     36  C3D        9.0480   10.3140   31.5780 C.2   142  HEM142      0.0000
     37  C4D        8.6970   11.3200   30.6420 C.2   142  HEM142      0.0000
     38  CMD        9.7300    7.8220   31.4930 C.3   142  HEM142      0.0000
     39  CAD        9.0720   10.4720   33.1110 C.3   142  HEM142      0.0000
     40  CBD        7.6740   10.1490   33.6850 C.3   142  HEM142      0.0000
     41  CGD        7.5740   10.1810   35.2110 C.2   142  HEM142      0.0000
     42  O1D        6.6270   10.8360   35.6860 O.co2 142  HEM142      0.0000
     43  O2D        8.4010    9.5140   35.8600 O.co2 142  HEM142      0.0000
@<TRIPOS>BOND
     1    24    23    2
     2    23    20    1
     3    30    27    1
     4    20    19    2
     5    20    21    1
     6    22    19    1
     7     4    21    2
     8     4    26    1
     9    19    18    1
    10    21    17    1
    11    27    26   ar
    12    27    28   ar
    13    26    25   ar
    14    18    17    2
    15    18     3    1
    16    32    31    2
    17    17     1    1
    18    28    31    1
    19    28    29   ar
    20    25    29   ar
    21    25     1    1
    22     3    10    2
    23    29     5    1
    24     1     6    1
    25     1    33    1
    26    10     6   ar
    27    10     9   ar
    28     5    34    2
    29     6     7   ar
    30    11     9    1
    31     9     8   ar
    32    33    34    1
    33    33    37    2
    34    34    35    1
    35     7     8   ar
    36     7     2    2
    37     8    12    1
    38    37     2    1
    39    37    36    1
    40    35    38    1
    41    35    36    2
    42    36    39    1
    43    12    13    1
    44    13    14    1
    45    39    40    1
    46    14    15   ar
    47    14    16   ar
    48    40    41    1
    49    41    42   ar
    50    41    43   ar
