@<TRIPOS>MOLECULE
1a3t_THP_A_1.pdb
 26 27 0 0 0
SMALL
GASTEIGER

@<TRIPOS>ATOM
      1  P2         6.3390   14.1260   20.4230 P.3   151  THP151      0.5327
      2  O4P        5.4290   14.0850   19.2370 O.2   151  THP151     -0.2224
      3  O5P        7.5880   14.8690   20.1150 O.3   151  THP151     -0.1145
      4  O6P        6.4780   12.8350   21.0810 O.3   151  THP151     -0.1145
      5  P1         4.8220   11.8090   26.1180 P.3   151  THP151      0.5326
      6  O1P        4.5240   11.6570   27.5410 O.3   151  THP151     -0.1145
      7  O2P        6.2040   11.5790   25.7290 O.3   151  THP151     -0.1145
      8  O3P        3.8130   11.1570   25.2340 O.2   151  THP151     -0.2224
      9  O5'        5.6070   14.9720   21.5320 O.3   151  THP151     -0.2675
     10  C5'        4.5550   14.4790   22.3570 C.3   151  THP151      0.1857
     11  C4'        5.0190   14.4500   23.8150 C.3   151  THP151      0.1750
     12  O4'        5.3410   15.7630   24.3160 O.3   151  THP151     -0.3327
     13  C3'        3.9480   13.9740   24.7620 C.3   151  THP151      0.1602
     14  O3'        4.6540   13.4190   25.8940 O.3   151  THP151     -0.2700
     15  C2'        3.1680   15.1790   25.1520 C.3   151  THP151      0.0867
     16  C1'        4.2610   16.2160   25.1450 C.3   151  THP151      0.2106
     17  N1         3.7970   17.5470   24.7190 N.ar  151  THP151     -0.2574
     18  C2         3.3750   18.3170   25.7420 C.ar  151  THP151      0.3322
     19  O2         3.7540   18.0970   26.8910 O.2   151  THP151     -0.2464
     20  N3         2.6500   19.4260   25.4100 N.ar  151  THP151     -0.2746
     21  C4         2.5410   19.9530   24.1290 C.ar  151  THP151      0.2584
     22  O4         1.9400   21.0200   23.9580 O.2   151  THP151     -0.2674
     23  C5         3.1450   19.1390   23.0910 C.ar  151  THP151      0.0515
     24  C5M        2.9940   19.5860   21.6130 C.3   151  THP151      0.0376
     25  C6         3.7900   18.0000   23.4240 C.ar  151  THP151      0.0823
     26  H3         2.1240   19.8760   26.1500 H     151  THP151      0.1734
@<TRIPOS>BOND
     1     2     1    2
     2     3     1    1
     3     1     4    1
     4     1     9    1
     5     9    10    1
     6    24    23    1
     7    10    11    1
     8    23    25   ar
     9    23    21   ar
    10    25    17   ar
    11    11    12    1
    12    11    13    1
    13    22    21    2
    14    21    20   ar
    15    12    16    1
    16    17    16    1
    17    17    18   ar
    18    13    15    1
    19    13    14    1
    20    16    15    1
    21     8     5    2
    22    20    18   ar
    23    20    26    1
    24     7     5    1
    25    18    19    2
    26    14     5    1
    27     5     6    1
