@<TRIPOS>MOLECULE
1a3u_THP_A_1.pdb
 26 27 0 0 0
SMALL
GASTEIGER

@<TRIPOS>ATOM
      1  P2         6.4290   14.1910   20.3670 P.3   151  THP151      0.5327
      2  O4P        5.3010   14.2350   19.4190 O.2   151  THP151     -0.2224
      3  O5P        7.5730   14.9980   19.8710 O.3   151  THP151     -0.1145
      4  O6P        6.7750   12.8190   20.7790 O.3   151  THP151     -0.1145
      5  P1         5.1050   11.8360   25.9300 P.3   151  THP151      0.5326
      6  O1P        5.1300   11.5720   27.3620 O.3   151  THP151     -0.1145
      7  O2P        6.4170   11.9140   25.2990 O.3   151  THP151     -0.1145
      8  O3P        4.0910   11.0840   25.1410 O.2   151  THP151     -0.2224
      9  O5'        5.9130   14.9270   21.6870 O.3   151  THP151     -0.2675
     10  C5'        4.8100   14.4640   22.4750 C.3   151  THP151      0.1857
     11  C4'        5.2040   14.3990   23.9350 C.3   151  THP151      0.1750
     12  O4'        5.5370   15.6920   24.4200 O.3   151  THP151     -0.3327
     13  C3'        4.0390   13.9840   24.8060 C.3   151  THP151      0.1602
     14  O3'        4.5390   13.3630   25.9760 O.3   151  THP151     -0.2700
     15  C2'        3.3480   15.2240   25.2460 C.3   151  THP151      0.0867
     16  C1'        4.4390   16.2240   25.2040 C.3   151  THP151      0.2106
     17  N1         3.9260   17.5650   24.7330 N.ar  151  THP151     -0.2574
     18  C2         3.6220   18.4280   25.7210 C.ar  151  THP151      0.3322
     19  O2         3.8470   18.1880   26.9110 O.2   151  THP151     -0.2464
     20  N3         3.0750   19.6070   25.3480 N.ar  151  THP151     -0.2746
     21  C4         2.8240   20.0260   24.0980 C.ar  151  THP151      0.2584
     22  O4         2.2130   21.0760   23.9860 O.2   151  THP151     -0.2674
     23  C5         3.3060   19.1480   23.0600 C.ar  151  THP151      0.0515
     24  C5M        3.1820   19.5600   21.5870 C.3   151  THP151      0.0376
     25  C6         3.8600   17.9730   23.4060 C.ar  151  THP151      0.0823
     26  H3         2.8380   20.2410   26.0930 H     151  THP151      0.1734
@<TRIPOS>BOND
     1     2     1    2
     2     3     1    1
     3     1     4    1
     4     1     9    1
     5    24    23    1
     6     9    10    1
     7    10    11    1
     8    23    25   ar
     9    23    21   ar
    10    25    17   ar
    11    11    12    1
    12    11    13    1
    13    22    21    2
    14    21    20   ar
    15    12    16    1
    16    17    16    1
    17    17    18   ar
    18    13    15    1
    19    13    14    1
    20     8     5    2
    21    16    15    1
    22     7     5    1
    23    20    18   ar
    24    20    26    1
    25    18    19    2
    26     5    14    1
    27     5     6    1
