@<TRIPOS>MOLECULE
1a3v_THP_A_1.pdb
 26 28 0 0 0
SMALL
GASTEIGER

@<TRIPOS>ATOM
      1  P2         6.3010   14.1050   20.2900 P.3   151  THP151      0.5327
      2  O4P        6.5790   12.7780   19.8050 O.3   151  THP151     -0.1145
      3  O5P        7.5270   14.9190   20.0340 O.2   151  THP151     -0.2224
      4  O6P        6.3010   13.0880   21.4480 O.3   151  THP151     -0.1145
      5  P1         4.8300   11.6630   26.1600 P.3   151  THP151      0.5326
      6  O1P        5.0380   11.4580   27.5890 O.3   151  THP151     -0.1145
      7  O2P        6.0690   11.5800   25.3910 O.2   151  THP151     -0.2224
      8  O3P        3.6080   11.0200   25.6040 O.3   151  THP151     -0.1145
      9  O5'        5.7730   14.8660   21.6690 O.3   151  THP151     -0.2675
     10  C5'        4.6910   14.3160   22.4980 C.3   151  THP151      0.1857
     11  C4'        5.1380   14.2940   23.9610 C.3   151  THP151      0.1750
     12  O4'        5.4400   15.6420   24.4100 O.3   151  THP151     -0.3327
     13  C3'        3.9670   13.8540   24.8250 C.3   151  THP151      0.1602
     14  O3'        4.4350   13.2650   26.0780 O.3   151  THP151     -0.2700
     15  C2'        3.2030   15.0970   25.0880 C.3   151  THP151      0.0867
     16  C1'        4.3040   16.0980   25.1700 C.3   151  THP151      0.2106
     17  N1         3.8620   17.4360   24.7350 N.ar  151  THP151     -0.2574
     18  C2         3.4250   18.2340   25.7800 C.ar  151  THP151      0.3322
     19  O2         3.5960   17.9430   26.9780 O.2   151  THP151     -0.2464
     20  N3         2.8060   19.4040   25.3750 N.ar  151  THP151     -0.2746
     21  C4         2.6310   19.8830   24.0990 C.ar  151  THP151      0.2584
     22  O4         2.1190   20.9710   23.9270 O.2   151  THP151     -0.2674
     23  C5         3.1050   18.9950   23.0680 C.ar  151  THP151      0.0515
     24  C5M        3.0530   19.4860   21.6040 C.3   151  THP151      0.0376
     25  C6         3.7020   17.8190   23.4040 C.ar  151  THP151      0.0823
     26  H3         2.4090   19.9140   26.0810 H     151  THP151      0.1734
@<TRIPOS>BOND
     1     2     1    1
     2     2     4    1
     3     3     1    2
     4     1     4    1
     5     1     9    1
     6    24    23    1
     7     9    10    1
     8    10    11    1
     9    23    25   ar
    10    23    21   ar
    11    25    17   ar
    12    22    21    2
    13    11    12    1
    14    11    13    1
    15    21    20   ar
    16    12    16    1
    17    17    16    1
    18    17    18   ar
    19    13    15    1
    20    13    14    1
    21    15    16    1
    22    20    18   ar
    23    20    26    1
    24     7     5    2
    25     8     5    1
    26    18    19    2
    27    14     5    1
    28     5     6    1
