@<TRIPOS>MOLECULE
1a3w_FBP_A_1.pdb
 20 20 0 0 0
SMALL
GASTEIGER

@<TRIPOS>ATOM
      1  P1        34.5440   23.3040   37.9300 P.3   1007  FBP1007     0.5328
      2  O1P       35.7200   23.9050   37.2510 O.3   1007  FBP1007    -0.1145
      3  O2P       33.5310   22.9020   36.9170 O.2   1007  FBP1007    -0.2224
      4  O3P       33.9660   24.2460   38.9240 O.3   1007  FBP1007    -0.1145
      5  O1        35.0360   22.0100   38.7100 O.3   1007  FBP1007    -0.2648
      6  C1        34.1590   21.2450   39.5430 C.3   1007  FBP1007     0.2152
      7  C2        34.7300   19.8230   39.6440 C.3   1007  FBP1007     0.2780
      8  O2        33.8840   19.0080   40.4630 O.3   1007  FBP1007    -0.1897
      9  C3        36.1600   19.8410   40.2070 C.3   1007  FBP1007     0.2408
     10  O3        36.2270   19.8800   41.6100 O.3   1007  FBP1007    -0.2149
     11  C4        36.8010   18.5900   39.6390 C.3   1007  FBP1007     0.2167
     12  O4        38.1950   18.8020   39.4140 O.3   1007  FBP1007    -0.2175
     13  C5        36.0780   18.4790   38.2730 C.3   1007  FBP1007     0.1808
     14  O5        34.8410   19.2280   38.3200 O.3   1007  FBP1007    -0.3255
     15  C6        35.7470   17.0400   37.9040 C.3   1007  FBP1007     0.1859
     16  O6        36.8290   16.5140   37.1130 O.3   1007  FBP1007    -0.2675
     17  P2        36.4900   15.4990   35.9190 P.3   1007  FBP1007     0.5327
     18  O4P       35.7780   14.3320   36.4840 O.3   1007  FBP1007    -0.1145
     19  O5P       35.6440   16.1950   34.9340 O.2   1007  FBP1007    -0.2224
     20  O6P       37.7480   15.0770   35.2610 O.3   1007  FBP1007    -0.1145
@<TRIPOS>BOND
     1    19    17    2
     2    20    17    1
     3    17    18    1
     4    17    16    1
     5     3     1    2
     6    16    15    1
     7     2     1    1
     8    15    13    1
     9     1     5    1
    10     1     4    1
    11    13    14    1
    12    13    11    1
    13    14     7    1
    14     5     6    1
    15    12    11    1
    16     6     7    1
    17    11     9    1
    18     7     9    1
    19     7     8    1
    20     9    10    1
