@<TRIPOS>MOLECULE
1a42_BZU_A_1.pdb
 23 24 0 0 0
SMALL
GASTEIGER

@<TRIPOS>ATOM
      1  C3        -5.4450    2.0670   16.0490 C.ar  555  BZU555      0.1554
      2  C9        -3.3940    5.2050   13.0190 C.3   555  BZU555      0.1177
      3  C10       -3.0550    3.8670   13.7100 C.3   555  BZU555      0.1144
      4  C11       -3.3490    7.4080   13.9350 C.3   555  BZU555      0.1279
      5  C12       -2.0760    7.4260   14.7640 C.3   555  BZU555      0.1612
      6  C14       -1.9150    9.7690   15.0590 C.3   555  BZU555      0.1423
      7  C15       -0.8780   10.9030   15.1780 C.3   555  BZU555      0.0346
      8  O1A       -5.4250    0.9940   18.2870 O.2   555  BZU555     -0.1498
      9  O2A       -7.3980    0.8170   16.9950 O.2   555  BZU555     -0.1498
     10  N21       -5.4860   -0.5450   16.4610 N.3   555  BZU555      0.0397
     11  S1        -5.9660    0.7500   16.9970 S.O2  555  BZU555      0.0992
     12  C4        -4.3210    2.1520   15.2920 C.ar  555  BZU555      0.0257
     13  C5        -4.1650    3.3450   14.6420 C.ar  555  BZU555      0.0216
     14  C6        -5.2160    4.2000   14.9310 C.ar  555  BZU555      0.1502
     15  S2        -6.3790    3.5010   15.9790 S.2   555  BZU555     -0.0477
     16  S7        -5.2950    5.8270   14.3680 S.O2  555  BZU555      0.0689
     17  O3B       -6.1600    5.8730   13.2440 O.2   555  BZU555     -0.1523
     18  O4B       -5.8580    6.6800   15.3730 O.2   555  BZU555     -0.1523
     19  N8        -3.8480    6.0650   14.0900 N.3   555  BZU555     -0.1507
     20  N16       -2.7760    2.8950   12.6490 N.3   555  BZU555     -0.2135
     21  O13       -1.3070    8.5960   14.5330 O.3   555  BZU555     -0.3522
     22  C17       -1.5640    3.0110   11.8410 C.3   555  BZU555      0.0891
     23  C18       -1.4630    1.9270   10.7540 C.3   555  BZU555      0.0203
@<TRIPOS>BOND
     1    23    22    1
     2    22    20    1
     3    20     3    1
     4     2     3    1
     5     2    19    1
     6    17    16    2
     7     3    13    1
     8     4    19    1
     9     4     5    1
    10    19    16    1
    11    16    14    1
    12    16    18    2
    13    21     5    1
    14    21     6    1
    15    13    14   ar
    16    13    12   ar
    17    14    15   ar
    18     6     7    1
    19    12     1   ar
    20    15     1   ar
    21     1    11    1
    22    10    11    1
    23     9    11    2
    24    11     8    2
