@<TRIPOS>MOLECULE
1a46_00K_H_1.pdb
 38 41 0 0 0
SMALL
GASTEIGER

@<TRIPOS>ATOM
      1  C1        17.8330  -13.0420   21.6620 C.3   372  00K372      0.1709
      2  N1        18.8520  -15.2420   21.4440 N.3   372  00K372     -0.2021
      3  O1        15.9850  -14.2900   23.3800 O.2   372  00K372     -0.2721
      4  C2        18.8870  -13.0710   20.5870 C.3   372  00K372      0.0499
      5  N2        17.7750  -14.5090   22.0480 N.am  372  00K372     -0.2129
      6  O2        16.4620  -13.9620   19.8370 O.2   372  00K372     -0.2715
      7  C3        19.8510  -14.2200   21.1170 C.3   372  00K372      0.0944
      8  N3        15.8090  -16.7300   23.6610 N.3   372  00K372     -0.1246
      9  C4        19.3270  -16.4440   22.1560 C.3   372  00K372      0.0941
     10  C5        18.1340  -17.2300   22.7620 C.3   372  00K372      0.0459
     11  C6        17.2230  -16.3290   23.5970 C.3   372  00K372      0.1519
     12  C7        17.0320  -14.9230   23.0460 C.2   372  00K372      0.2551
     13  C8        16.6380  -13.0610   20.7550 C.2   372  00K372      0.2613
     14  C9        17.4150  -16.4170   25.1230 C.3   372  00K372      0.0529
     15  C10       18.7640  -15.9840   25.5820 C.ar  372  00K372     -0.0203
     16  C11       19.0510  -14.6340   25.7600 C.ar  372  00K372     -0.0042
     17  C12       20.3910  -14.2520   26.0760 C.ar  372  00K372     -0.0003
     18  C13       21.4290  -15.1780   26.2150 C.ar  372  00K372     -0.0000
     19  C14       21.0990  -16.5480   26.0980 C.ar  372  00K372     -0.0003
     20  C15       19.7890  -16.9510   25.7560 C.ar  372  00K372     -0.0042
     21  C         14.4960  -10.9450   18.7130 C.3   372  00K372      0.2528
     22  N         15.6470  -12.0890   20.7690 N.am  372  00K372     -0.1981
     23  O         13.3800  -10.6840   18.0770 O.3   372  00K372     -0.2109
     24  CA        14.4940  -11.8920   19.9090 C.3   372  00K372      0.1563
     25  CB        13.1950  -11.6150   20.6280 C.2   372  00K372     -0.0064
     26  CD        11.5610  -12.2200   22.4370 C.3   372  00K372      0.0462
     27  CE        11.1700  -13.3510   23.3530 C.3   372  00K372      0.1140
     28  CG        12.8670  -12.5040   21.7570 C.2   372  00K372     -0.0274
     29  CX        15.3450  -11.4350   17.5510 C.2   372  00K372      0.2739
     30  OX        16.4740  -11.0890   17.7310 O.2   372  00K372     -0.2705
     31  NZ        10.0380  -13.1110   24.2350 N.3   372  00K372     -0.1310
     32  C1X       15.6510  -12.3330   15.3350 C.3   372  00K372      0.0954
     33  C6X       15.2770  -11.7400   13.9980 C.3   372  00K372      0.0217
     34  C5X       14.1680  -12.5610   13.3540 C.3   372  00K372      0.0018
     35  C4X       14.5990  -13.9990   13.1800 C.3   372  00K372      0.0001
     36  C3X       14.9560  -14.6030   14.5390 C.3   372  00K372      0.0018
     37  C2X       16.0390  -13.7960   15.2500 C.3   372  00K372      0.0217
     38  NX        14.8040  -11.9210   16.4570 N.am  372  00K372     -0.2050
@<TRIPOS>BOND
     1    35    34    1
     2    35    36    1
     3    34    33    1
     4    33    32    1
     5    36    37    1
     6    37    32    1
     7    32    38    1
     8    38    29   am
     9    29    30    2
    10    29    21    1
    11    23    21    1
    12    21    24    1
    13     6    13    2
    14    24    25    1
    15    24    22    1
    16     4     7    1
    17     4     1    1
    18    25    28    2
    19    13    22   am
    20    13     1    1
    21     7     2    1
    22     2     5    1
    23     2     9    1
    24     1     5    1
    25    28    26    1
    26     5    12   am
    27     9    10    1
    28    26    27    1
    29    10    11    1
    30    12     3    2
    31    12    11    1
    32    27    31    1
    33    11     8    1
    34    11    14    1
    35    14    15    1
    36    15    20   ar
    37    15    16   ar
    38    20    19   ar
    39    16    17   ar
    40    17    18   ar
    41    19    18   ar
