@<TRIPOS>MOLECULE
1a47_ACI_A_1.pdb
 11 10 0 0 0
SMALL
GASTEIGER

@<TRIPOS>ATOM
      1  C1        43.2660    7.9380    8.3720 C.3   694  ACI694      0.0356
      2  C2        44.1270    6.7030    8.3380 C.3   694  ACI694      0.1821
      3  C3        44.2480    6.2020    6.9390 C.3   694  ACI694      0.1822
      4  C4        42.8990    5.8210    6.3960 C.3   694  ACI694      0.0382
      5  C5        41.9350    6.8230    6.5730 C.3   694  ACI694      0.0357
      6  C6        40.5710    6.2370    6.8180 C.3   694  ACI694      0.1821
      7  C7        42.1080    7.8530    7.5390 C.3   694  ACI694      0.0054
      8  N1        43.9410    9.7790    7.1640 N.3   694  ACI694      0.0000
      9  O2        45.4080    7.0550    8.8250 O.3   694  ACI694     -0.2204
     10  O3        45.0800    5.0440    6.8890 O.3   694  ACI694     -0.2204
     11  O6        40.3520    5.8700    8.1830 O.3   694  ACI694     -0.2204
@<TRIPOS>BOND
     1     4     5    1
     2     4     3    1
     3     5     6    1
     4     5     7    1
     5     6    11    1
     6    10     3    1
     7     3     2    1
     8     7     1    1
     9     2     1    1
    10     2     9    1
