@<TRIPOS>MOLECULE
1a47_GLC_A_1.pdb
 11 11 0 0 0
SMALL
GASTEIGER

@<TRIPOS>ATOM
      1  C1        75.8930   31.5040   18.0080 C.3   687  GLC687      0.3022
      2  C2        74.4510   31.0430   18.0660 C.3   687  GLC687      0.2409
      3  C3        73.7150   31.4360   19.3300 C.3   687  GLC687      0.1899
      4  C4        74.5640   31.4600   20.5910 C.3   687  GLC687      0.0681
      5  C5        75.9330   32.0510   20.3260 C.3   687  GLC687      0.1534
      6  C6        76.8260   31.9240   21.5240 C.3   687  GLC687      0.2116
      7  O1        75.8940   32.8580   17.6150 O.3   687  GLC687     -0.1869
      8  O2        73.7700   31.5810   16.9410 O.3   687  GLC687     -0.2149
      9  O3        72.6500   30.5130   19.5700 O.3   687  GLC687     -0.2201
     10  O5        76.5560   31.3470   19.2530 O.3   687  GLC687     -0.3263
     11  O6        77.5290   33.1450   21.7710 O.3   687  GLC687     -0.2177
@<TRIPOS>BOND
     1     8     2    1
     2     7     1    1
     3     1     2    1
     4     1    10    1
     5     2     3    1
     6    10     5    1
     7     3     9    1
     8     3     4    1
     9     5     4    1
    10     5     6    1
    11     6    11    1
