@<TRIPOS>MOLECULE
1a47_G6D_A_1.pdb
 10 10 0 0 0
SMALL
GASTEIGER

@<TRIPOS>ATOM
      1  C1        43.3970   12.8150    4.3440 C.3   693  G6D693      0.3021
      2  O2        42.5860   14.2730    6.0550 O.3   693  G6D693     -0.2149
      3  C2        42.5850   12.9210    5.6180 C.3   693  G6D693      0.2409
      4  C3A       43.1290   12.0260    6.7040 C.3   693  G6D693      0.1898
      5  O3A       42.2140   11.8960    7.7950 O.3   693  G6D693     -0.2201
      6  C4A       43.3490   10.6400    6.1370 C.3   693  G6D693      0.0653
      7  C5A       44.3730   10.7260    5.0270 C.3   693  G6D693      0.1206
      8  O5        43.7810   11.4940    3.9780 O.3   693  G6D693     -0.3290
      9  C6A       44.6920    9.3750    4.4610 C.3   693  G6D693      0.0322
     10  O1        44.5370   13.6250    4.4770 O.3   693  G6D693     -0.1869
@<TRIPOS>BOND
     1     8     1    1
     2     8     7    1
     3     1    10    1
     4     1     3    1
     5     9     7    1
     6     7     6    1
     7     3     2    1
     8     3     4    1
     9     6     4    1
    10     4     5    1
