@<TRIPOS>MOLECULE
1a49_ATP_A_1.pdb
 31 33 0 0 0
SMALL
GASTEIGER

@<TRIPOS>ATOM
      1  PG        10.4900   64.7450   11.0850 P.3   535  ATP535      0.5373
      2  O1G       10.4830   65.3080   12.5380 O.3   535  ATP535     -0.1143
      3  O2G       11.3600   65.6660   10.3540 O.2   535  ATP535     -0.2221
      4  O3G        9.1980   64.6340   10.5390 O.3   535  ATP535     -0.1143
      5  PB        12.3400   62.7030   11.8710 P.3   535  ATP535      0.2277
      6  O1B       12.9030   61.6660   11.0260 O.2   535  ATP535     -0.5168
      7  O2B       13.5250   63.3380   12.4360 O.3   535  ATP535     -0.4368
      8  O3B       11.2620   63.3510   11.0710 O.3   535  ATP535     -0.2258
      9  PA        11.1640   62.5840   14.4560 P.3   535  ATP535      0.2189
     10  O1A       11.8780   63.8860   14.7410 O.3   535  ATP535     -0.4371
     11  O2A        9.6730   62.5120   14.7010 O.2   535  ATP535     -0.5170
     12  O3A       11.5270   62.0030   13.0840 O.3   535  ATP535     -0.2700
     13  O5'       11.9100   61.4270   15.3070 O.3   535  ATP535     -0.3112
     14  C5'       13.3450   61.4090   15.2230 C.3   535  ATP535      0.1813
     15  C4'       13.7900   59.9600   15.0280 C.3   535  ATP535      0.1821
     16  O4'       13.1480   59.1310   16.0330 O.3   535  ATP535     -0.3135
     17  C3'       13.3190   59.3730   13.7090 C.3   535  ATP535      0.2184
     18  O3'       14.2560   59.6980   12.6670 O.3   535  ATP535     -0.2174
     19  C2'       13.2620   57.8890   14.0550 C.3   535  ATP535      0.2570
     20  O2'       14.6000   57.3400   14.0510 O.3   535  ATP535     -0.2130
     21  C1'       12.7510   57.9090   15.4560 C.3   535  ATP535      0.3186
     22  N9        11.3050   57.7560   15.5380 N.pl3 535  ATP535     -0.1439
     23  C8        10.3390   58.7100   15.7360 C.3   535  ATP535      0.3377
     24  N7         9.0920   58.1920   15.7940 N.2   535  ATP535     -0.2095
     25  C5         9.3240   56.8210   15.6800 C.2   535  ATP535      0.2526
     26  C6         8.4250   55.7260   15.5140 C.2   535  ATP535      0.4393
     27  N6         7.0810   55.7800   15.5400 N.pl3 535  ATP535      0.2180
     28  N1         8.9680   54.5190   15.1790 N.2   535  ATP535      0.0021
     29  C2        10.3690   54.3960   15.1150 C.3   535  ATP535      0.5254
     30  N3        11.2620   55.3220   15.2650 N.2   535  ATP535     -0.0055
     31  C4        10.6670   56.5540   15.4750 C.2   535  ATP535      0.3518
@<TRIPOS>BOND
     1     3     1    2
     2     4     1    1
     3     6     5    2
     4     8     1    1
     5     8     5    1
     6     1     2    1
     7     5     7    1
     8     5    12    1
     9    18    17    1
    10    12     9    1
    11    17    19    1
    12    17    15    1
    13    20    19    1
    14    19    21    1
    15     9    11    2
    16     9    10    1
    17     9    13    1
    18    15    14    1
    19    15    16    1
    20    29    28    1
    21    29    30    1
    22    28    26    2
    23    14    13    1
    24    30    31    2
    25    21    22    1
    26    21    16    1
    27    31    22    1
    28    31    25    1
    29    26    27    1
    30    26    25    1
    31    22    23    1
    32    25    24    2
    33    23    24    1
