@<TRIPOS>MOLECULE
1a4e_HEM_A_1.pdb
 43 50 0 0 0
SMALL
GASTEIGER

@<TRIPOS>ATOM
      1 FE        130.5810   41.5410   38.3500 Fe    503  HEM503      0.0000
      2  CHA      129.6590   38.9560   40.3440 C.2   503  HEM503      0.0000
      3  CHB      129.3570   39.8840   35.6470 C.2   503  HEM503      0.0000
      4  CHC      131.7630   43.9950   36.3350 C.2   503  HEM503      0.0000
      5  CHD      131.1310   43.4900   41.0610 C.2   503  HEM503      0.0000
      6  NA       129.7750   39.7610   38.0510 N.ar  503  HEM503      0.0000
      7  C1A      129.4850   38.7880   38.9910 C.ar  503  HEM503      0.0000
      8  C2A      128.7550   37.6920   38.3990 C.ar  503  HEM503      0.0000
      9  C3A      128.6150   37.9810   37.0840 C.ar  503  HEM503      0.0000
     10  C4A      129.2710   39.2450   36.8690 C.ar  503  HEM503      0.0000
     11  CMA      127.8480   37.1840   36.0410 C.3   503  HEM503      0.0000
     12  CAA      128.1760   36.4980   39.1230 C.3   503  HEM503      0.0000
     13  CBA      126.7100   36.7110   39.4820 C.3   503  HEM503      0.0000
     14  CGA      126.0060   35.4740   40.0220 C.2   503  HEM503      0.0000
     15  O1A      126.1870   34.3880   39.4760 O.co2 503  HEM503      0.0000
     16  O2A      125.2630   35.5890   40.9900 O.co2 503  HEM503      0.0000
     17  NB       130.5810   41.8650   36.4090 N.2   503  HEM503      0.0000
     18  C1B      129.9740   41.1070   35.4250 C.2   503  HEM503      0.0000
     19  C2B      130.1530   41.6850   34.1140 C.2   503  HEM503      0.0000
     20  C3B      130.9260   42.8010   34.2800 C.2   503  HEM503      0.0000
     21  C4B      131.1620   42.9060   35.7190 C.2   503  HEM503      0.0000
     22  CMB      129.5530   41.1010   32.8430 C.3   503  HEM503      0.0000
     23  CAB      131.4530   43.6790   33.3280 C.3   503  HEM503      0.0000
     24  CBB      130.9060   43.9910   32.0180 C.3   503  HEM503      0.0000
     25  NC       131.3200   43.3480   38.6390 N.ar  503  HEM503      0.0000
     26  C1C      131.8070   44.2260   37.6950 C.ar  503  HEM503      0.0000
     27  C2C      132.1570   45.5040   38.2890 C.ar  503  HEM503      0.0000
     28  C3C      131.8700   45.4100   39.6180 C.ar  503  HEM503      0.0000
     29  C4C      131.4050   44.0470   39.8250 C.ar  503  HEM503      0.0000
     30  CMC      132.7210   46.7000   37.5300 C.3   503  HEM503      0.0000
     31  CAC      131.9340   46.3940   40.6040 C.3   503  HEM503      0.0000
     32  CBC      131.3990   47.7430   40.5020 C.3   503  HEM503      0.0000
     33  ND       130.4690   41.2670   40.2730 N.2   503  HEM503      0.0000
     34  C1D      130.7140   42.1880   41.2740 C.2   503  HEM503      0.0000
     35  C2D      130.4560   41.6190   42.5730 C.2   503  HEM503      0.0000
     36  C3D      130.0610   40.3390   42.3620 C.2   503  HEM503      0.0000
     37  C4D      130.0810   40.1250   40.9440 C.2   503  HEM503      0.0000
     38  CMD      130.5810   42.3360   43.9070 C.3   503  HEM503      0.0000
     39  CAD      129.6880   39.2990   43.4010 C.3   503  HEM503      0.0000
     40  CBD      128.2660   39.3720   43.9140 C.3   503  HEM503      0.0000
     41  CGD      128.0400   38.2800   44.9450 C.2   503  HEM503      0.0000
     42  O1D      128.6050   38.3580   46.0300 O.co2 503  HEM503      0.0000
     43  O2D      127.3100   37.3380   44.6660 O.co2 503  HEM503      0.0000
@<TRIPOS>BOND
     1    24    23    1
     2    22    19    1
     3    23    20    1
     4    19    20    2
     5    19    18    1
     6    20    21    1
     7    18     3    1
     8    18    17    2
     9     3    10    2
    10    21     4    2
    11    21    17    1
    12    11     9    1
    13     4    26    1
    14    17     1    1
    15    10     9   ar
    16    10     6   ar
    17     9     8   ar
    18    30    27    1
    19    26    27   ar
    20    26    25   ar
    21     6     1    1
    22     6     7   ar
    23    27    28   ar
    24     1    25    1
    25     1    33    1
    26     8     7   ar
    27     8    12    1
    28    25    29   ar
    29     7     2    2
    30    12    13    1
    31    15    14   ar
    32    13    14    1
    33    28    29   ar
    34    28    31    1
    35    29     5    1
    36    14    16   ar
    37    33    37    2
    38    33    34    1
    39     2    37    1
    40    32    31    1
    41    37    36    1
    42     5    34    2
    43    34    35    1
    44    36    35    2
    45    36    39    1
    46    35    38    1
    47    39    40    1
    48    40    41    1
    49    43    41   ar
    50    41    42   ar
