@<TRIPOS>MOLECULE
1a4f_HEM_A_1.pdb
 43 50 0 0 0
SMALL
GASTEIGER

@<TRIPOS>ATOM
      1 FE         36.6930   17.5480   40.5390 Fe    150  HEM150      0.0000
      2  CHA       34.5860   19.7580   41.6940 C.2   150  HEM150      0.0000
      3  CHB       38.9570   18.1710   43.1260 C.2   150  HEM150      0.0000
      4  CHC       38.8780   15.1260   39.3000 C.2   150  HEM150      0.0000
      5  CHD       34.9060   17.3850   37.4930 C.2   150  HEM150      0.0000
      6  NA        36.7520   18.7320   42.0990 N.2   150  HEM150      0.0000
      7  C1A       35.7120   19.6000   42.4940 C.2   150  HEM150      0.0000
      8  C2A       36.0740   20.2130   43.7330 C.2   150  HEM150      0.0000
      9  C3A       37.3020   19.8330   44.0550 C.2   150  HEM150      0.0000
     10  C4A       37.7530   18.8880   43.0570 C.2   150  HEM150      0.0000
     11  CMA       38.1620   20.1950   45.2570 C.3   150  HEM150      0.0000
     12  CAA       35.1530   21.1720   44.5190 C.3   150  HEM150      0.0000
     13  CBA       35.4030   22.6300   44.2010 C.3   150  HEM150      0.0000
     14  CGA       34.6120   23.6760   44.9790 C.2   150  HEM150      0.0000
     15  O1A       34.1380   23.3030   46.0740 O.co2 150  HEM150      0.0000
     16  O2A       34.5740   24.8110   44.4100 O.co2 150  HEM150      0.0000
     17  NB        38.5420   16.8130   41.0580 N.ar  150  HEM150      0.0000
     18  C1B       39.1900   17.0820   42.2800 C.ar  150  HEM150      0.0000
     19  C2B       40.2460   16.1390   42.4390 C.ar  150  HEM150      0.0000
     20  C3B       40.2400   15.3110   41.3870 C.ar  150  HEM150      0.0000
     21  C4B       39.2140   15.7660   40.4780 C.ar  150  HEM150      0.0000
     22  CMB       41.0890   16.2120   43.7370 C.3   150  HEM150      0.0000
     23  CAB       41.0800   14.0720   40.9990 C.2   150  HEM150      0.0000
     24  CBB       42.3230   13.9860   41.4440 C.2   150  HEM150      0.0000
     25  NC        36.8290   16.4680   38.8020 N.2   150  HEM150      0.0000
     26  C1C       37.8170   15.4900   38.4810 C.2   150  HEM150      0.0000
     27  C2C       37.6060   15.0450   37.1540 C.2   150  HEM150      0.0000
     28  C3C       36.5290   15.6960   36.6720 C.2   150  HEM150      0.0000
     29  C4C       36.0280   16.5690   37.6880 C.2   150  HEM150      0.0000
     30  CMC       38.5000   14.0280   36.4260 C.3   150  HEM150      0.0000
     31  CAC       35.8140   15.6240   35.3010 C.2   150  HEM150      0.0000
     32  CBC       36.5350   15.5550   34.1930 C.2   150  HEM150      0.0000
     33  ND        35.0610   18.4270   39.7040 N.ar  150  HEM150      0.0000
     34  C1D       34.4990   18.3000   38.4390 C.ar  150  HEM150      0.0000
     35  C2D       33.4870   19.3290   38.2330 C.ar  150  HEM150      0.0000
     36  C3D       33.3920   19.9880   39.3920 C.ar  150  HEM150      0.0000
     37  C4D       34.3510   19.4710   40.3300 C.ar  150  HEM150      0.0000
     38  CMD       32.7180   19.5430   36.9240 C.3   150  HEM150      0.0000
     39  CAD       32.4660   21.1980   39.7470 C.3   150  HEM150      0.0000
     40  CBD       33.1830   22.5480   39.5390 C.3   150  HEM150      0.0000
     41  CGD       32.3080   23.7670   39.7170 C.2   150  HEM150      0.0000
     42  O1D       31.1210   23.4590   39.9070 O.co2 150  HEM150      0.0000
     43  O2D       32.7880   24.9170   39.5980 O.co2 150  HEM150      0.0000
@<TRIPOS>BOND
     1    32    31    2
     2    31    28    1
     3    30    27    1
     4    28    27    2
     5    28    29    1
     6    38    35    1
     7    27    26    1
     8     5    29    1
     9     5    34    2
    10    29    25    2
    11    35    34   ar
    12    35    36   ar
    13    34    33   ar
    14    26    25    1
    15    26     4    2
    16    25     1    1
    17     4    21    1
    18    36    39    1
    19    36    37   ar
    20    40    41    1
    21    40    39    1
    22    43    41   ar
    23    33    37   ar
    24    33     1    1
    25    41    42   ar
    26    37     2    2
    27    21    17   ar
    28    21    20   ar
    29     1    17    1
    30     1     6    1
    31    23    20    1
    32    23    24    2
    33    17    18   ar
    34    20    19   ar
    35     2     7    1
    36     6     7    2
    37     6    10    1
    38    18    19   ar
    39    18     3    1
    40    19    22    1
    41     7     8    1
    42    10     3    2
    43    10     9    1
    44     8     9    2
    45     8    12    1
    46     9    11    1
    47    13    12    1
    48    13    14    1
    49    16    14   ar
    50    14    15   ar
