@<TRIPOS>MOLECULE
1a4g_ZMR_A_1.pdb
 23 23 0 0 0
SMALL
GASTEIGER

@<TRIPOS>ATOM
      1  C1        -2.2500   58.2420   -5.5910 C.2   466  ZMR466      0.4208
      2  O1A       -3.1720   59.1980   -5.4520 O.co2 466  ZMR466     -0.2371
      3  O1B       -1.3720   58.0410   -4.8130 O.co2 466  ZMR466     -0.2371
      4  C2        -2.3300   57.4010   -6.7980 C.2   466  ZMR466      0.2172
      5  C3        -1.4680   56.3850   -6.9670 C.2   466  ZMR466      0.0619
      6  C4        -1.5020   55.5410   -8.2050 C.3   466  ZMR466      0.2297
      7  C5        -2.2900   56.1690   -9.2970 C.3   466  ZMR466      0.1816
      8  N5        -2.6540   55.1780  -10.2990 N.am  466  ZMR466     -0.1994
      9  C10       -2.1140   55.1230  -11.5200 C.2   466  ZMR466      0.2420
     10  O10       -1.3800   55.9770  -11.9750 O.2   466  ZMR466     -0.2733
     11  C11       -2.4680   53.8830  -12.3160 C.3   466  ZMR466      0.0964
     12  C6        -3.5940   56.7640   -8.6860 C.3   466  ZMR466      0.2224
     13  O6        -3.2710   57.7090   -7.6700 O.2   466  ZMR466     -0.4683
     14  C7        -4.6460   57.3120   -9.6380 C.3   466  ZMR466      0.2262
     15  O7        -3.8180   57.8920  -10.0820 O.3   466  ZMR466     -0.2164
     16  C8        -5.8270   57.8570   -9.0220 C.3   466  ZMR466      0.2185
     17  O8        -6.4010   56.6980   -8.4110 O.3   466  ZMR466     -0.2174
     18  C9        -6.8360   58.4830   -9.9830 C.3   466  ZMR466      0.2175
     19  O9        -7.4390   57.4730  -10.7910 O.3   466  ZMR466     -0.2175
     20  NE        -0.1890   55.1810   -8.6950 N.pl3 466  ZMR466     -0.0835
     21  CZ         0.0430   54.0300   -9.3200 C.cat 466  ZMR466      0.5348
     22  NH1       -0.8960   53.0810   -9.4020 N.pl3 466  ZMR466      0.1354
     23  NH2        1.2160   53.8670   -9.9260 N.pl3 466  ZMR466      0.1354
@<TRIPOS>BOND
     1    11     9    1
     2    10     9    2
     3     9     8   am
     4    19    18    1
     5     8     7    1
     6    15    14    1
     7    18    16    1
     8    23    21    1
     9    14    16    1
    10    14    12    1
    11    22    21    1
    12    21    20    2
    13     7    12    1
    14     7     6    1
    15    16    17    1
    16    20     6    1
    17    12    13    1
    18     6     5    1
    19    13     4    1
    20     5     4    2
    21     4     1    1
    22     1     2   ar
    23     1     3   ar
