@<TRIPOS>MOLECULE
1a4h_GDM_A_1.pdb
 40 41 0 0 0
SMALL
GASTEIGER

@<TRIPOS>ATOM
      1  O1        11.8980   -4.1060   -0.0770 O.2   300  GDM300     -0.2096
      2  O2        18.3160   -2.7340   -2.3380 O.3   300  GDM300     -0.3455
      3  O3        18.3060   -4.3960   -4.5700 O.3   300  GDM300     -0.4333
      4  O4        19.8210   -3.2570   -5.7130 O.2   300  GDM300     -0.2228
      5  O5        14.6760   -1.0450   -9.5010 O.3   300  GDM300     -0.2205
      6  O6        14.5630    1.4480   -7.6390 O.3   300  GDM300     -0.3510
      7  O7        11.4380   -4.4140   -8.2560 O.3   300  GDM300     -0.3457
      8  O8        13.2010   -6.3020   -6.5970 O.2   300  GDM300     -0.2931
      9  O9        10.4770   -2.6280   -3.8990 O.2   300  GDM300     -0.2888
     10  N1        11.4190   -4.6210   -2.3080 N.2   300  GDM300     -0.3342
     11  N2        20.4610   -5.0930   -4.8510 N.am  300  GDM300     -0.0475
     12  C1        11.9460   -3.7710   -1.2720 C.1   300  GDM300      0.2003
     13  C2        12.5870   -2.3550   -1.4050 C.2   300  GDM300      0.0728
     14  C3        13.8180   -2.4080   -2.0340 C.2   300  GDM300      0.0081
     15  C4        14.9020   -1.4030   -2.2370 C.2   300  GDM300     -0.0016
     16  C5        16.1950   -1.7270   -2.5680 C.2   300  GDM300      0.0065
     17  C6        17.0050   -3.0090   -2.8250 C.3   300  GDM300      0.1771
     18  C7        17.4520   -3.2520   -4.2950 C.3   300  GDM300      0.2015
     19  C8        16.4810   -3.2080   -5.4570 C.3   300  GDM300      0.0432
     20  C9        16.6800   -2.3600   -6.4830 C.3   300  GDM300      0.0063
     21  C10       16.0410   -1.9750   -7.8000 C.3   300  GDM300      0.0330
     22  C11       15.4340   -0.6540   -8.3270 C.3   300  GDM300      0.1788
     23  C12       14.4320    0.0620   -7.3810 C.3   300  GDM300      0.1455
     24  C13       12.9420   -0.2680   -7.5260 C.3   300  GDM300      0.0322
     25  C14       12.3710   -0.8080   -6.1990 C.3   300  GDM300      0.0030
     26  C15       11.2230   -1.8470   -6.5040 C.3   300  GDM300      0.0108
     27  C16       11.3620   -3.2860   -6.0250 C.3   300  GDM300      0.0986
     28  C17       11.7230   -4.3680   -6.8230 C.3   300  GDM300      0.1798
     29  C18       12.4560   -5.5300   -6.0180 C.2   300  GDM300      0.1851
     30  C19       12.2040   -5.6850   -4.5400 C.3   300  GDM300      0.1299
     31  C20       11.5380   -4.7180   -3.8510 C.2   300  GDM300      0.1639
     32  C21       11.0800   -3.4780   -4.5510 C.2   300  GDM300      0.2019
     33  C22       12.0120   -1.0670   -0.6620 C.3   300  GDM300      0.0447
     34  C23       18.5220   -2.7580   -0.9420 C.3   300  GDM300      0.1746
     35  C24       19.5210   -4.1680   -5.0030 C.2   300  GDM300      0.4410
     36  C25       15.7880   -4.5240   -5.3980 C.3   300  GDM300      0.0038
     37  C26       17.2630   -2.2560   -8.6650 C.3   300  GDM300      0.0027
     38  C27       15.1580    2.2530   -6.6380 C.3   300  GDM300      0.1741
     39  C28       12.3020    0.2910   -5.0710 C.3   300  GDM300      0.0001
     40  C29       10.6420   -5.3620   -9.1330 C.3   300  GDM300      0.1746
@<TRIPOS>BOND
     1     5    22    1
     2    40     7    1
     3    37    21    1
     4    22    21    1
     5    22    23    1
     6     7    28    1
     7    21    20    1
     8     6    23    1
     9     6    38    1
    10    24    23    1
    11    24    25    1
    12    28    27    1
    13    28    29    1
    14     8    29    2
    15    26    25    1
    16    26    27    1
    17    20    19    1
    18    25    39    1
    19    27    32    1
    20    29    30    1
    21     4    35    2
    22    19    36    1
    23    19    18    1
    24    35    11   am
    25    35     3    1
    26     3    18    1
    27    32     9    2
    28    32    31    1
    29    30    31    1
    30    18    17    1
    31    31    10    2
    32    17    16    1
    33    17     2    1
    34    16    15    2
    35     2    34    1
    36    10    12    2
    37    15    14    1
    38    14    13    2
    39    13    12    1
    40    13    33    1
    41    12     1    2
