@<TRIPOS>MOLECULE
1a4i_NDP_A_1.pdb
 48 52 0 0 0
SMALL
GASTEIGER

@<TRIPOS>ATOM
      1  PA        -5.7120   47.2840   25.5380 P.3   302  NDP302      0.2189
      2  O1A       -5.6060   46.3770   24.4310 O.2   302  NDP302     -0.5170
      3  O2A       -7.0050   47.9580   25.9070 O.3   302  NDP302     -0.4371
      4  O5B       -5.2150   46.4240   26.8470 O.3   302  NDP302     -0.3112
      5  C5B       -5.3020   47.0410   28.1290 C.3   302  NDP302      0.1813
      6  C4B       -4.8090   45.9540   29.0640 C.3   302  NDP302      0.1820
      7  O4B       -4.9450   46.4990   30.3960 O.3   302  NDP302     -0.3136
      8  C3B       -5.4630   44.6160   29.0020 C.3   302  NDP302      0.2157
      9  O3B       -4.4870   43.5740   29.2200 O.3   302  NDP302     -0.2175
     10  C2B       -6.3700   44.6120   30.1950 C.3   302  NDP302      0.2314
     11  O2B       -6.7040   43.3560   30.7840 O.3   302  NDP302     -0.2630
     12  C1B       -5.6710   45.5440   31.1230 C.3   302  NDP302      0.3158
     13  N9A       -6.5560   46.1490   32.1320 N.pl3 302  NDP302     -0.1439
     14  C8A       -7.7250   46.9020   31.9310 C.3   302  NDP302      0.3377
     15  N7A       -8.2600   47.2410   33.0830 N.2   302  NDP302     -0.2095
     16  C5A       -7.4440   46.7300   34.0570 C.2   302  NDP302      0.2526
     17  C6A       -7.4720   46.7570   35.4480 C.2   302  NDP302      0.4393
     18  N6A       -8.4770   47.3470   36.0920 N.pl3 302  NDP302      0.2180
     19  N1A       -6.5010   46.1470   36.1220 N.2   302  NDP302      0.0021
     20  C2A       -5.5150   45.5410   35.4590 C.3   302  NDP302      0.5254
     21  N3A       -5.3880   45.4590   34.1510 N.2   302  NDP302     -0.0055
     22  C4A       -6.4050   46.0750   33.4970 C.2   302  NDP302      0.3518
     23  O3        -4.6410   48.4370   25.5110 O.3   302  NDP302     -0.2703
     24  PN        -3.2150   48.7610   24.8610 P.3   302  NDP302      0.2189
     25  O1N       -3.4020   48.6660   23.4050 O.2   302  NDP302     -0.5170
     26  O2N       -2.2050   47.9300   25.5840 O.3   302  NDP302     -0.4371
     27  O5D       -3.0240   50.2530   25.4260 O.3   302  NDP302     -0.3112
     28  C5D       -2.9430   50.5140   26.8700 C.3   302  NDP302      0.1813
     29  C4D       -2.6530   52.0300   27.0580 C.3   302  NDP302      0.1799
     30  O4D       -1.4580   52.2910   26.3530 O.3   302  NDP302     -0.3327
     31  C3D       -3.7150   52.8670   26.3260 C.3   302  NDP302      0.2158
     32  O3D       -3.9920   54.0460   27.0770 O.3   302  NDP302     -0.2175
     33  C2D       -3.1340   53.1600   24.9770 C.3   302  NDP302      0.2309
     34  O2D       -3.6750   54.3790   24.5000 O.3   302  NDP302     -0.2158
     35  C1D       -1.6460   53.3780   25.4630 C.3   302  NDP302      0.2263
     36  N1N       -0.7230   53.1850   24.3300 N.pl3 302  NDP302     -0.2787
     37  C2N       -0.0340   54.3110   23.9220 C.3   302  NDP302      0.1244
     38  C3N        0.8250   54.1550   22.7990 C.2   302  NDP302      0.0544
     39  C7N        1.5750   55.3060   22.3180 C.2   302  NDP302      0.2818
     40  O7N        1.9860   55.4130   21.1480 O.2   302  NDP302     -0.2670
     41  N7N        1.7890   56.3520   23.1390 N.am  302  NDP302     -0.0839
     42  C4N        0.8870   52.9390   22.1580 C.2   302  NDP302      0.0033
     43  C5N        0.1790   51.8670   22.5600 C.2   302  NDP302      0.0157
     44  C6N       -0.6320   51.9900   23.6470 C.2   302  NDP302      0.0633
     45  P2B       -7.3690   42.1870   30.0360 P.3   302  NDP302      0.5328
     46  O1X       -7.8020   41.2980   31.1280 O.3   302  NDP302     -0.1145
     47  O2X       -6.3700   41.5830   29.1220 O.2   302  NDP302     -0.2224
     48  O3X       -8.5710   42.7110   29.2500 O.3   302  NDP302     -0.1145
@<TRIPOS>BOND
     1    40    39    2
     2    42    43    1
     3    42    38    2
     4    39    38    1
     5    39    41   am
     6    43    44    2
     7    38    37    1
     8    25    24    2
     9    44    36    1
    10    37    36    1
    11    36    35    1
    12     2     1    2
    13    34    33    1
    14    24    27    1
    15    24    23    1
    16    24    26    1
    17    33    35    1
    18    33    31    1
    19    27    28    1
    20    35    30    1
    21    23     1    1
    22     1     3    1
    23     1     4    1
    24    31    29    1
    25    31    32    1
    26    30    29    1
    27     4     5    1
    28    28    29    1
    29     5     6    1
    30     8     6    1
    31     8     9    1
    32     8    10    1
    33     6     7    1
    34    47    45    2
    35    48    45    1
    36    45    11    1
    37    45    46    1
    38    10    11    1
    39    10    12    1
    40     7    12    1
    41    12    13    1
    42    14    13    1
    43    14    15    1
    44    13    22    1
    45    15    16    2
    46    22    16    1
    47    22    21    2
    48    16    17    1
    49    21    20    1
    50    17    18    1
    51    17    19    2
    52    20    19    1
