@<TRIPOS>MOLECULE
1a4k_FRA_B_1.pdb
 31 34 0 0 0
SMALL
GASTEIGER

@<TRIPOS>ATOM
      1  C22       15.6040    7.0570   -2.2840 C.3   3083  FRA3083     0.0968
      2  C1        15.9760    5.7400   -1.5940 C.2   3083  FRA3083     0.2461
      3  O3        15.4720    4.6940   -1.9840 O.2   3083  FRA3083    -0.2730
      4  N1        16.8250    5.6200   -0.5830 N.am  3083  FRA3083    -0.1792
      5  C2        17.8010    6.4300    0.1030 C.ar  3083  FRA3083     0.0734
      6  C7        17.4160    7.6830    0.6260 C.ar  3083  FRA3083     0.0179
      7  C6        18.3390    8.4880    1.2940 C.ar  3083  FRA3083     0.0167
      8  C5        19.6990    8.0850    1.4790 C.ar  3083  FRA3083     0.0607
      9  C4        20.0900    6.8050    0.9420 C.ar  3083  FRA3083     0.0167
     10  C3        19.1510    5.9910    0.2640 C.ar  3083  FRA3083     0.0179
     11  N5        20.6510    9.0020    2.2090 N.am  3083  FRA3083    -0.2081
     12  C11       20.3460    9.7660    3.3110 C.2   3083  FRA3083     0.2352
     13  C10       21.5050   10.6030    3.7940 C.3   3083  FRA3083     0.0877
     14  C9        22.6620   10.2210    2.8080 C.3   3083  FRA3083     0.1044
     15  C8        21.9530    9.2230    1.8830 C.2   3083  FRA3083     0.2367
     16  O11       19.2670    9.8250    3.8880 O.2   3083  FRA3083    -0.2741
     17  O8        22.5660    8.7090    0.9450 O.2   3083  FRA3083    -0.2741
     18  C12       21.3110   12.2290    3.7910 C.3   3083  FRA3083     0.0093
     19  C17       21.0230   12.7550    2.2910 C.3   3083  FRA3083     0.0022
     20  C16       22.2250   12.3000    1.3290 C.3   3083  FRA3083     0.0206
     21  C14       23.7240   12.4530    3.4150 C.3   3083  FRA3083     0.0206
     22  C13       22.6700   12.8440    4.2460 C.3   3083  FRA3083     0.0022
     23  C15       23.3440   11.4890    2.1610 C.3   3083  FRA3083     0.0905
     24  N15       24.4370   10.9940    1.2860 N.am  3083  FRA3083    -0.1716
     25  C18       25.7120   10.8320    1.5630 C.2   3083  FRA3083     0.4216
     26  O18       26.2400   11.0850    2.6430 O.2   3083  FRA3083    -0.2246
     27  O19       26.3270   10.3200    0.4320 O.3   3083  FRA3083    -0.4210
     28  C19       27.7520   10.0260    0.4470 C.3   3083  FRA3083     0.3229
     29  C20       28.2080    9.2280   -0.7690 C.2   3083  FRA3083     0.4086
     30  O20       29.1480    8.4040   -0.6340 O.co2 3083  FRA3083    -0.2415
     31  O21       27.6260    9.4150   -1.8690 O.co2 3083  FRA3083    -0.2415
@<TRIPOS>BOND
     1     1     2    1
     2     3     2    2
     3    31    29   ar
     4     2     4   am
     5    29    30   ar
     6    29    28    1
     7     4     5    1
     8     5    10   ar
     9     5     6   ar
    10    10     9   ar
    11    27    28    1
    12    27    25    1
    13     6     7   ar
    14     9     8   ar
    15    17    15    2
    16    24    25   am
    17    24    23    1
    18     7     8   ar
    19    20    23    1
    20    20    19    1
    21     8    11    1
    22    25    26    2
    23    15    11   am
    24    15    14    1
    25    23    14    1
    26    23    21    1
    27    11    12   am
    28    19    18    1
    29    14    13    1
    30    12    13    1
    31    12    16    2
    32    21    22    1
    33    18    13    1
    34    18    22    1
