@<TRIPOS>MOLECULE
1a4l_DCF_A_1.pdb
 19 21 0 0 0
SMALL
GASTEIGER

@<TRIPOS>ATOM
      1  N1        39.5010   21.0630   51.2720 N.2   353  DCF353     -0.2182
      2  C2        39.9670   20.5750   50.1440 C.3   353  DCF353      0.3372
      3  N3        41.3090   20.4420   50.1800 N.pl3 353  DCF353     -0.1465
      4  C9        40.6040   21.2500   52.0920 C.2   353  DCF353      0.1710
      5  C10       41.7330   20.8770   51.4470 C.2   353  DCF353      0.3392
      6  N4        43.0700   21.1440   51.6320 N.2   353  DCF353     -0.0431
      7  C5        43.5490   21.3890   52.7960 C.3   353  DCF353      0.3566
      8  N6        42.9290   21.8420   53.8960 N.3   353  DCF353     -0.1639
      9  C7        41.5500   21.6160   54.3390 C.3   353  DCF353      0.1324
     10  C8        40.4940   22.0270   53.3370 C.3   353  DCF353      0.2160
     11  O8        40.5630   23.6200   53.1220 O.3   353  DCF353     -0.2148
     12  C2S       41.3820   18.5660   48.4590 C.3   353  DCF353      0.1151
     13  C3S       41.4080   18.9730   47.0100 C.3   353  DCF353      0.1884
     14  O3S       41.6990   17.8380   46.1880 O.3   353  DCF353     -0.2202
     15  O5S       41.0540   21.5740   45.8390 O.3   353  DCF353     -0.2176
     16  C5S       42.3240   20.9600   45.7770 C.3   353  DCF353      0.2142
     17  C4S       42.5400   19.9790   46.9340 C.3   353  DCF353      0.1824
     18  O4S       42.5820   20.6340   48.2120 O.3   353  DCF353     -0.3154
     19  C1S       42.1280   19.6950   49.2100 C.3   353  DCF353      0.2873
@<TRIPOS>BOND
     1    16    15    1
     2    16    17    1
     3    14    13    1
     4    17    13    1
     5    17    18    1
     6    13    12    1
     7    18    19    1
     8    12    19    1
     9    19     3    1
    10     2     3    1
    11     2     1    1
    12     3     5    1
    13     1     4    2
    14     5     6    2
    15     5     4    1
    16     6     7    1
    17     4    10    1
    18     7     8    1
    19    11    10    1
    20    10     9    1
    21     8     9    1
