@<TRIPOS>MOLECULE
1a4m_PRH_A_1.pdb
 19 21 0 0 0
SMALL
GASTEIGER

@<TRIPOS>ATOM
      1  N1        42.5180   21.8840   54.0210 N.2   354  PRH354     -0.1458
      2  C2        43.5210   21.4580   53.2580 C.3   354  PRH354      0.4017
      3  N3        43.3100   20.9690   52.0350 N.2   354  PRH354     -0.0334
      4  C4        42.0220   20.8840   51.5120 C.2   354  PRH354      0.3528
      5  C5        40.9670   21.3010   52.2440 C.2   354  PRH354      0.2446
      6  C6        41.2000   21.8320   53.5610 C.1   354  PRH354      0.1792
      7  O6        40.5460   23.2950   53.6830 O.2   354  PRH354     -0.2203
      8  N7        39.8430   21.1100   51.5070 N.2   354  PRH354     -0.2054
      9  C8        40.1960   20.5780   50.3350 C.3   354  PRH354      0.3382
     10  N9        41.5390   20.4300   50.3160 N.pl3 354  PRH354     -0.1435
     11  C1'       42.3350   19.8660   49.2340 C.3   354  PRH354      0.3186
     12  C2'       41.6760   18.5710   48.6820 C.3   354  PRH354      0.2570
     13  O2'       42.6470   17.5160   48.5850 O.3   354  PRH354     -0.2130
     14  C3'       41.0570   18.8410   47.2770 C.3   354  PRH354      0.2186
     15  O3'       41.2670   17.7040   46.4350 O.3   354  PRH354     -0.2174
     16  C4'       42.1750   19.9560   47.0240 C.3   354  PRH354      0.1851
     17  O4'       42.3620   20.7420   48.1390 O.3   354  PRH354     -0.3134
     18  C5'       41.8650   20.8400   45.7960 C.3   354  PRH354      0.2143
     19  O5'       40.6550   21.5940   45.9760 O.3   354  PRH354     -0.2176
@<TRIPOS>BOND
     1    18    19    1
     2    18    16    1
     3    15    14    1
     4    16    14    1
     5    16    17    1
     6    14    12    1
     7    17    11    1
     8    13    12    1
     9    12    11    1
    10    11    10    1
    11    10     9    1
    12    10     4    1
    13     9     8    1
    14     8     5    2
    15     4     3    2
    16     4     5    1
    17     3     2    1
    18     5     6    1
    19     2     1    1
    20     6     7    2
    21     6     1    2
