@<TRIPOS>MOLECULE
1a4q_DPC_A_1.pdb
 28 29 0 0 0
SMALL
GASTEIGER

@<TRIPOS>ATOM
      1  C1        -2.4160   58.3090   -5.4640 C.2   466  DPC466      0.4208
      2  O1A       -3.3710   59.0640   -5.3230 O.co2 466  DPC466     -0.2371
      3  O1B       -1.5990   58.1890   -4.5610 O.co2 466  DPC466     -0.2371
      4  C2        -2.3440   57.4690   -6.6730 C.2   466  DPC466      0.2157
      5  C3        -1.4120   56.5180   -6.7960 C.2   466  DPC466      0.0381
      6  C4        -1.3790   55.6270   -8.0080 C.3   466  DPC466      0.1409
      7  C5        -2.2120   56.1910   -9.1560 C.3   466  DPC466      0.1658
      8  N5        -2.4990   55.1260  -10.1100 N.am  466  DPC466     -0.2011
      9  C10       -2.1370   55.1410  -11.4020 C.2   466  DPC466      0.2420
     10  O10       -1.5630   56.1000  -11.8890 O.2   466  DPC466     -0.2733
     11  C11       -2.4430   53.8710  -12.2170 C.3   466  DPC466      0.0964
     12  C6        -3.5280   56.7290   -8.5990 C.3   466  DPC466      0.2629
     13  O6        -3.2930   57.6710   -7.5870 O.2   466  DPC466     -0.4618
     14  C7        -4.2550   57.5050   -9.6740 C.2   466  DPC466      0.2677
     15  O7        -3.7430   58.2630   -9.9970 O.2   466  DPC466     -0.2709
     16  N8        -5.3800   57.0300  -10.1910 N.am  466  DPC466     -0.2762
     17  C81       -5.9710   57.8100  -11.3010 C.3   466  DPC466      0.0982
     18  C82       -5.3950   57.4170  -12.6650 C.3   466  DPC466      0.0478
     19  CG        -6.0130   58.3010  -13.7300 C.ar  466  DPC466     -0.0205
     20  CD1       -5.5860   59.6390  -13.8840 C.ar  466  DPC466     -0.0042
     21  CD2       -7.0380   57.8160  -14.5550 C.ar  466  DPC466     -0.0042
     22  CE1       -6.2020   60.4850  -14.8230 C.ar  466  DPC466     -0.0003
     23  CE2       -7.6510   58.6560  -15.4900 C.ar  466  DPC466     -0.0003
     24  CZ        -7.2490   59.9920  -15.6230 C.ar  466  DPC466     -0.0000
     25  C9        -6.0810   55.8520   -9.6850 C.3   466  DPC466      0.0935
     26  C91       -6.9620   56.1710   -8.4650 C.3   466  DPC466      0.0215
     27  C92       -7.8370   57.4310   -8.6020 C.3   466  DPC466      0.0018
     28  NE        -0.0140   55.4590   -8.4300 N.3   466  DPC466     -0.1260
@<TRIPOS>BOND
     1    24    23   ar
     2    24    22   ar
     3    23    21   ar
     4    22    20   ar
     5    21    19   ar
     6    20    19   ar
     7    19    18    1
     8    18    17    1
     9    11     9    1
    10    10     9    2
    11     9     8   am
    12    17    16    1
    13    16    25    1
    14    16    14   am
    15     8     7    1
    16    15    14    2
    17    25    26    1
    18    14    12    1
    19     7    12    1
    20     7     6    1
    21    27    26    1
    22    12    13    1
    23    28     6    1
    24     6     5    1
    25    13     4    1
    26     5     4    2
    27     4     1    1
    28     1     2   ar
    29     1     3   ar
