@<TRIPOS>MOLECULE
1a4r_GDP_A_1.pdb
 28 30 0 0 0
SMALL
GASTEIGER

@<TRIPOS>ATOM
      1  PB        81.4050   64.4710    1.2270 P.3   200  GDP200      0.5373
      2  O1B       80.8770   65.8370    1.2190 O.3   200  GDP200     -0.1143
      3  O2B       81.3110   63.6590    2.4760 O.3   200  GDP200     -0.1143
      4  O3B       80.7860   63.6540    0.1250 O.2   200  GDP200     -0.2221
      5  O3A       82.8830   64.6290    0.7620 O.3   200  GDP200     -0.2261
      6  PA        83.6130   64.6160   -0.6770 P.3   200  GDP200      0.2231
      7  O1A       83.1620   65.7830   -1.4270 O.2   200  GDP200     -0.5169
      8  O2A       83.4940   63.2870   -1.3180 O.3   200  GDP200     -0.4370
      9  O5'       85.0530   64.8540   -0.0840 O.3   200  GDP200     -0.3111
     10  C5'       85.4230   66.0670    0.6050 C.3   200  GDP200      0.1813
     11  C4'       86.9420   66.3350    0.5060 C.3   200  GDP200      0.1799
     12  O4'       87.6140   65.1270    0.8660 O.3   200  GDP200     -0.3326
     13  C3'       87.5010   66.6380   -0.8760 C.3   200  GDP200      0.2158
     14  O3'       88.5610   67.5800   -0.8050 O.3   200  GDP200     -0.2175
     15  C2'       87.9560   65.3070   -1.4100 C.3   200  GDP200      0.2310
     16  O2'       88.8210   65.3330   -2.4950 O.3   200  GDP200     -0.2158
     17  C1'       88.5240   64.7030   -0.1790 C.3   200  GDP200      0.2293
     18  N9        88.5670   63.2100   -0.1010 N.pl3 200  GDP200     -0.2354
     19  C8        87.5580   62.2850   -0.2350 C.3   200  GDP200      0.2246
     20  N7        87.9130   61.0310   -0.1080 N.2   200  GDP200     -0.2322
     21  C5        89.2850   61.1040    0.1320 C.2   200  GDP200      0.2182
     22  C6        90.2830   60.0540    0.3640 C.1   200  GDP200      0.2372
     23  O6        90.0810   58.8390    0.3950 O.2   200  GDP200     -0.2069
     24  N1        91.6120   60.5490    0.5730 N.2   200  GDP200     -0.2485
     25  C2        91.9750   61.9120    0.5660 C.1   200  GDP200      0.2531
     26  N2        93.2430   62.2280    0.7720 N.pl3 200  GDP200     -0.0226
     27  N3        91.0600   62.9080    0.3530 N.2   200  GDP200     -0.3074
     28  C4        89.7170   62.4350    0.1400 C.2   200  GDP200      0.2300
@<TRIPOS>BOND
     1    16    15    1
     2     7     6    2
     3    15    13    1
     4    15    17    1
     5     8     6    1
     6    13    14    1
     7    13    11    1
     8     6     9    1
     9     6     5    1
    10    19    20    1
    11    19    18    1
    12    17    18    1
    13    17    12    1
    14    20    21    2
    15    18    28    1
    16     9    10    1
    17     4     1    2
    18    21    28    1
    19    21    22    1
    20    28    27    2
    21    27    25    2
    22    22    23    2
    23    22    24    2
    24    11    10    1
    25    11    12    1
    26    25    24    2
    27    25    26    1
    28     5     1    1
    29     2     1    1
    30     1     3    1
