@<TRIPOS>MOLECULE
1a4r_GNH_B_1.pdb
 28 30 0 0 0
SMALL
GASTEIGER

@<TRIPOS>ATOM
      1  N3B      102.4860   24.8700   -2.9090 N.3   400  GNH400     -0.0178
      2  PB       101.5220   25.8860   -2.4280 P.3   400  GNH400      0.4738
      3  O1B      100.9830   25.4700   -1.0790 O.3   400  GNH400     -0.1247
      4  O2B      100.3500   26.2500   -3.2730 O.2   400  GNH400     -0.2343
      5  O3A      102.4090   27.1490   -2.1360 O.3   400  GNH400     -0.2354
      6  PA       102.9800   27.8190   -0.7750 P.3   400  GNH400      0.2220
      7  O1A      103.9320   26.8730   -0.1570 O.2   400  GNH400     -0.5170
      8  O2A      101.8500   28.3180    0.0570 O.3   400  GNH400     -0.4370
      9  O5'      103.7180   29.0170   -1.4980 O.3   400  GNH400     -0.3111
     10  C5'      104.8640   28.8490   -2.3670 C.3   400  GNH400      0.1813
     11  C4'      105.9930   29.8990   -2.1000 C.3   400  GNH400      0.1799
     12  O4'      105.4820   31.1830   -2.4390 O.3   400  GNH400     -0.3326
     13  C3'      106.4630   30.0620   -0.6570 C.3   400  GNH400      0.2158
     14  O3'      107.8730   30.1930   -0.5940 O.3   400  GNH400     -0.2175
     15  C2'      105.7350   31.2660   -0.0960 C.3   400  GNH400      0.2310
     16  O2'      106.2980   31.8890    1.0590 O.3   400  GNH400     -0.2158
     17  C1'      105.5820   32.1390   -1.3490 C.3   400  GNH400      0.2293
     18  N9       104.3150   32.9430   -1.5100 N.pl3 400  GNH400     -0.2354
     19  C8       103.0000   32.5360   -1.3540 C.3   400  GNH400      0.2246
     20  N7       102.0730   33.4460   -1.5560 N.2   400  GNH400     -0.2322
     21  C5       102.8070   34.5960   -1.8890 C.2   400  GNH400      0.2182
     22  C6       102.3660   35.9710   -2.2360 C.1   400  GNH400      0.2372
     23  O6       101.2060   36.3850   -2.3060 O.2   400  GNH400     -0.2069
     24  N1       103.4480   36.8880   -2.5220 N.2   400  GNH400     -0.2485
     25  C2       104.8390   36.5560   -2.4810 C.1   400  GNH400      0.2531
     26  N2       105.7330   37.5170   -2.7670 N.pl3 400  GNH400     -0.0226
     27  N3       105.2800   35.2710   -2.1570 N.2   400  GNH400     -0.3074
     28  C4       104.2050   34.3230   -1.8660 C.2   400  GNH400      0.2300
@<TRIPOS>BOND
     1     4     2    2
     2     1     2    1
     3    26    25    1
     4    24    25    2
     5    24    22    2
     6    25    27    2
     7    12    11    1
     8    12    17    1
     9     2     5    1
    10     2     3    1
    11    10    11    1
    12    10     9    1
    13    23    22    2
    14    22    21    1
    15    27    28    2
    16     5     6    1
    17    11    13    1
    18    21    28    1
    19    21    20    2
    20    28    18    1
    21    20    19    1
    22    18    19    1
    23    18    17    1
    24     9     6    1
    25    17    15    1
    26     6     7    2
    27     6     8    1
    28    13    14    1
    29    13    15    1
    30    15    16    1
