@<TRIPOS>MOLECULE
1a4w_QWE_H_1.pdb
 42 45 0 0 0
SMALL
GASTEIGER

@<TRIPOS>ATOM
      1  C1        17.7350  -17.1780   22.6120 C.ar  373  QWE373      0.1236
      2  C2        18.5430  -17.3500   21.4620 C.ar  373  QWE373      0.0200
      3  C3        19.8770  -17.0460   21.5580 C.ar  373  QWE373      0.0014
      4  C4        20.4010  -16.5660   22.7660 C.ar  373  QWE373      0.0013
      5  C4A       19.6130  -16.3580   23.8930 C.ar  373  QWE373      0.0146
      6  C5        20.0840  -15.7910   25.0460 C.ar  373  QWE373      0.0479
      7  C6        19.2410  -15.5680   26.1140 C.ar  373  QWE373      0.0145
      8  C7        17.8930  -15.9710   26.0280 C.ar  373  QWE373      0.0013
      9  C8        17.3700  -16.5100   24.8790 C.ar  373  QWE373      0.0014
     10  C8A       18.2050  -16.6890   23.8090 C.ar  373  QWE373      0.0199
     11  N         21.3830  -15.2850   25.1040 N.pl3 373  QWE373     -0.3041
     12  CM1       21.8980  -14.2170   24.2140 C.3   373  QWE373      0.1122
     13  CM2       22.6350  -16.2130   25.4960 C.3   373  QWE373      0.1122
     14  S         15.9090  -17.5810   22.4170 S.O2  373  QWE373      0.0772
     15  O1S       15.9880  -18.0130   21.0100 O.2   373  QWE373     -0.1516
     16  O2S       14.9980  -18.1910   23.4020 O.2   373  QWE373     -0.1516
     17  N1        14.8930  -15.9700   22.4850 N.3   373  QWE373     -0.0700
     18  CA        15.1930  -15.1140   21.2960 C.3   373  QWE373      0.1738
     19  C         16.3070  -14.1670   21.7520 C.2   373  QWE373      0.2433
     20  O         16.2120  -13.7810   22.9140 O.2   373  QWE373     -0.2733
     21  CB        13.9420  -14.3540   20.8790 C.3   373  QWE373      0.0324
     22  CG        13.2320  -13.6860   22.0580 C.3   373  QWE373      0.0489
     23  CD        11.8920  -13.1330   21.5950 C.3   373  QWE373      0.2205
     24  NE        11.2180  -12.6470   22.7800 N.pl3 373  QWE373     -0.0865
     25  CZ        11.4570  -11.5540   23.4830 C.cat 373  QWE373      0.5346
     26  NH1       12.3590  -10.6740   23.0450 N.pl3 373  QWE373      0.1354
     27  NH2       10.7230  -11.3360   24.5660 N.pl3 373  QWE373      0.1354
     28  N11       17.2800  -13.6920   20.8300 N.am  373  QWE373     -0.2800
     29  C21       17.0430  -14.0330   19.3270 C.3   373  QWE373      0.0758
     30  C31       18.4210  -14.4720   18.8090 C.3   373  QWE373      0.0199
     31  C41       19.6100  -13.4170   19.1940 C.3   373  QWE373      0.0035
     32  C51       19.6960  -13.0830   20.7650 C.3   373  QWE373      0.0216
     33  C61       18.3510  -12.6800   21.3100 C.3   373  QWE373      0.0934
     34  C1'       16.5930  -13.0140   18.5500 C.3   373  QWE373      0.0280
     35  C2'       15.9410  -13.4250   17.1790 C.3   373  QWE373      0.0730
     36  S1        15.7830  -14.9040   14.4580 S.2   373  QWE373     -0.0631
     37  O2        17.4880  -11.9220   16.2870 O.2   373  QWE373     -0.2892
     38  C52       17.0590  -15.5830   13.5080 C.ar  373  QWE373      0.0576
     39  C22       16.8640  -13.5560   14.7390 C.ar  373  QWE373      0.1454
     40 C2'1       16.8250  -12.9030   16.1070 C.2   373  QWE373      0.1967
     41  C42       18.1460  -14.7340   13.4510 C.ar  373  QWE373      0.1065
     42  N3        18.0490  -13.5540   14.1060 N.ar  373  QWE373     -0.2339
@<TRIPOS>BOND
     1    41    38   ar
     2    41    42   ar
     3    38    36   ar
     4    42    39   ar
     5    36    39   ar
     6    39    40    1
     7    40    37    2
     8    40    35    1
     9    35    34    1
    10    34    29    1
    11    30    31    1
    12    30    29    1
    13    31    32    1
    14    29    28    1
    15    32    33    1
    16    28    33    1
    17    28    19   am
    18    21    18    1
    19    21    22    1
    20    15    14    2
    21    18    19    1
    22    18    17    1
    23     2     3   ar
    24     2     1   ar
    25     3     4   ar
    26    23    22    1
    27    23    24    1
    28    19    20    2
    29    14    17    1
    30    14     1    1
    31    14    16    2
    32     1    10   ar
    33     4     5   ar
    34    24    25    2
    35    26    25    1
    36    25    27    1
    37    10     5   ar
    38    10     9   ar
    39     5     6   ar
    40    12    11    1
    41     9     8   ar
    42     6    11    1
    43     6     7   ar
    44    11    13    1
    45     8     7   ar
