@<TRIPOS>MOLECULE
1a4z_NAD_A_1.pdb
 44 48 0 0 0
SMALL
GASTEIGER

@<TRIPOS>ATOM
      1  PA        44.0080  102.3310    5.4910 P.3   501  NAD501      0.2189
      2  O1A       43.2950  103.1400    6.5070 O.3   501  NAD501     -0.4371
      3  O2A       42.9390  101.4070    4.9190 O.2   501  NAD501     -0.5170
      4  O5B       45.0520  101.3970    6.1660 O.3   501  NAD501     -0.3112
      5  C5B       46.4230  101.8800    6.2600 C.3   501  NAD501      0.1813
      6  C4B       47.2660  101.0380    7.2140 C.3   501  NAD501      0.1821
      7  O4B       46.4660  100.7130    8.3710 O.3   501  NAD501     -0.3135
      8  C3B       47.6590   99.6890    6.5670 C.3   501  NAD501      0.2184
      9  O3B       48.8350   99.1820    7.2020 O.3   501  NAD501     -0.2174
     10  C2B       46.4470   98.8350    6.9880 C.3   501  NAD501      0.2570
     11  O2B       46.8230   97.4580    6.9980 O.3   501  NAD501     -0.2130
     12  C1B       46.2210   99.3000    8.4260 C.3   501  NAD501      0.3186
     13  N9A       44.8440   99.0420    8.8310 N.pl3 501  NAD501     -0.1439
     14  C8A       43.6960   99.0000    8.0670 C.3   501  NAD501      0.3377
     15  N7A       42.5480   98.7720    8.8130 N.2   501  NAD501     -0.2095
     16  C5A       43.0350   98.6750   10.0940 C.2   501  NAD501      0.2526
     17  C6A       42.3360   98.5550   11.2800 C.2   501  NAD501      0.4393
     18  N6A       40.9980   98.4300   11.3560 N.pl3 501  NAD501      0.2180
     19  N1A       43.0500   98.5960   12.4640 N.2   501  NAD501      0.0021
     20  C2A       44.4270   98.7590   12.4370 C.3   501  NAD501      0.5254
     21  N3A       45.1430   98.8810   11.2580 N.2   501  NAD501     -0.0055
     22  C4A       44.3850   98.8330   10.1050 C.2   501  NAD501      0.3518
     23  O3        44.7900  103.3850    4.5390 O.3   501  NAD501     -0.2703
     24  PN        45.4660  103.1580    3.0700 P.3   501  NAD501      0.2189
     25  O1N       44.3310  102.7440    2.1450 O.2   501  NAD501     -0.5170
     26  O2N       46.5000  102.0860    3.0260 O.3   501  NAD501     -0.4371
     27  O5D       46.2410  104.5760    2.4920 O.3   501  NAD501     -0.3112
     28  C5D       45.4930  105.7650    2.0030 C.3   501  NAD501      0.1813
     29  C4D       45.0250  106.6320    3.1790 C.3   501  NAD501      0.1799
     30  O4D       46.1710  107.0010    3.9810 O.3   501  NAD501     -0.3327
     31  C3D       44.4800  108.0000    2.6850 C.3   501  NAD501      0.2158
     32  O3D       43.5820  108.5560    3.6570 O.3   501  NAD501     -0.2175
     33  C2D       45.7580  108.8550    2.6490 C.3   501  NAD501      0.2309
     34  O2D       45.3960  110.2410    2.7140 O.3   501  NAD501     -0.2158
     35  C1D       46.3390  108.4200    3.9990 C.3   501  NAD501      0.2263
     36  N1N       47.7280  108.8760    4.0520 N.pl3 501  NAD501     -0.2787
     37  C2N       48.1090  109.7280    5.0180 C.3   501  NAD501      0.1244
     38  C3N       49.3950  110.1620    5.0700 C.2   501  NAD501      0.0544
     39  C7N       49.8620  111.0210    6.0140 C.2   501  NAD501      0.2818
     40  O7N       51.0910  111.1240    6.2520 O.2   501  NAD501     -0.2670
     41  N7N       49.0260  111.7870    6.7190 N.am  501  NAD501     -0.0839
     42  C4N       50.2600  109.7290    4.1380 C.2   501  NAD501      0.0033
     43  C5N       49.9000  108.8810    3.1620 C.2   501  NAD501      0.0157
     44  C6N       48.5810  108.4500    3.1400 C.2   501  NAD501      0.0633
@<TRIPOS>BOND
     1    28    27    1
     2    28    29    1
     3    25    24    2
     4    27    24    1
     5    33    31    1
     6    33    34    1
     7    33    35    1
     8    31    29    1
     9    31    32    1
    10    26    24    1
    11    24    23    1
    12    44    43    2
    13    44    36    1
    14    43    42    1
    15    29    30    1
    16    30    35    1
    17    35    36    1
    18    36    37    1
    19    42    38    2
    20    23     1    1
    21     3     1    2
    22    37    38    1
    23    38    39    1
    24     1     4    1
    25     1     2    1
    26    39    40    2
    27    39    41   am
    28     4     5    1
    29     5     6    1
    30     8    10    1
    31     8     9    1
    32     8     6    1
    33    10    11    1
    34    10    12    1
    35     6     7    1
    36    14    15    1
    37    14    13    1
    38     7    12    1
    39    12    13    1
    40    15    16    2
    41    13    22    1
    42    16    22    1
    43    16    17    1
    44    22    21    2
    45    21    20    1
    46    17    18    1
    47    17    19    2
    48    20    19    1
