@<TRIPOS>MOLECULE
1a50_FIP_A_1.pdb
 18 19 0 0 0
SMALL
GASTEIGER

@<TRIPOS>ATOM
      1  C3        49.7220   27.4730   14.9290 C.2   270  FIP270     -0.0157
      2  C9        50.2740   26.1560   14.8240 C.3   270  FIP270      0.0841
      3  C8        51.6700   26.2730   14.9920 C.2   270  FIP270      0.0666
      4  C4        49.7210   24.8860   14.6110 C.2   270  FIP270      0.0132
      5  C2        50.7710   28.3140   15.1330 C.2   270  FIP270      0.0906
      6  N1        51.9490   27.5990   15.1840 N.2   270  FIP270     -0.2482
      7  C7        52.5230   25.1710   14.9480 C.2   270  FIP270      0.0176
      8  C5        50.5670   23.7870   14.5810 C.2   270  FIP270      0.1366
      9  C6        51.9560   23.9400   14.7480 C.2   270  FIP270      0.0306
     10  F         50.0480   22.5650   14.4030 F     270  FIP270     -0.2045
     11  C3P       48.2850   27.8430   14.8110 C.3   270  FIP270      0.0269
     12  C2P       47.8320   27.6530   13.3730 C.3   270  FIP270      0.0371
     13  C1P       48.4220   28.7450   12.4910 C.3   270  FIP270      0.1541
     14  P         48.3710   29.6250    9.9940 P.3   270  FIP270      0.5326
     15  OP1       49.5210   30.4410   10.4790 O.3   270  FIP270     -0.1145
     16  OP2       47.1010   30.4380    9.9660 O.3   270  FIP270     -0.1145
     17  OP3       48.5940   28.7240    8.8500 O.2   270  FIP270     -0.2224
     18  OP4       48.0430   28.5310   11.1480 O.3   270  FIP270     -0.2702
@<TRIPOS>BOND
     1    17    14    2
     2    16    14    1
     3    14    15    1
     4    14    18    1
     5    18    13    1
     6    13    12    1
     7    12    11    1
     8    10     8    1
     9     8     4    2
    10     8     9    1
    11     4     2    1
    12     9     7    2
    13    11     1    1
    14     2     1    1
    15     2     3    1
    16     1     5    2
    17     7     3    1
    18     3     6    2
    19     5     6    1
