@<TRIPOS>MOLECULE
1a50_PLP_B_1.pdb
 15 15 0 0 0
SMALL
GASTEIGER

@<TRIPOS>ATOM
      1  N1        84.5890   13.9280   12.1100 N.ar  901  PLP901     -0.2452
      2  C2        84.5030   14.2420   10.7800 C.ar  901  PLP901      0.0978
      3  C2A       85.7840   14.2590    9.9110 C.3   901  PLP901      0.0555
      4  C3        83.2950   14.5900   10.2390 C.ar  901  PLP901      0.2049
      5  O3        83.2140   14.9030    8.9080 O.3   901  PLP901     -0.2857
      6  C4        82.1740   14.6380   11.0280 C.ar  901  PLP901      0.0182
      7  C4A       80.7830   14.9200   10.3980 C.3   901  PLP901      0.0342
      8  C5        82.2730   14.3490   12.3700 C.ar  901  PLP901      0.0261
      9  C6        83.4770   13.9860   12.8990 C.ar  901  PLP901      0.0965
     10  C5A       81.0700   14.5460   13.2990 C.3   901  PLP901      0.1815
     11  O4P       79.9690   13.7200   13.1270 O.3   901  PLP901     -0.2653
     12  P         79.6310   12.5130   13.9750 P.3   901  PLP901      0.5329
     13  O1P       78.2050   12.2940   13.5510 O.3   901  PLP901     -0.1145
     14  O2P       79.8280   12.9860   15.3650 O.3   901  PLP901     -0.1145
     15  O3P       80.5260   11.3930   13.5250 O.2   901  PLP901     -0.2224
@<TRIPOS>BOND
     1     5     4    1
     2     3     2    1
     3     4     2   ar
     4     4     6   ar
     5     7     6    1
     6     2     1   ar
     7     6     8   ar
     8     1     9   ar
     9     8     9   ar
    10     8    10    1
    11    11    10    1
    12    11    12    1
    13    15    12    2
    14    13    12    1
    15    12    14    1
