@<TRIPOS>MOLECULE
1a52_EST_A_1.pdb
 20 23 0 0 0
SMALL
GASTEIGER

@<TRIPOS>ATOM
      1  C1       107.0080   15.8600   99.4560 C.ar    1  EST1       -0.0013
      2  C2       106.9320   16.9300  100.3660 C.ar    1  EST1        0.0417
      3  C3       106.8330   18.2290   99.8920 C.ar    1  EST1        0.1954
      4  O3       106.8010   19.2390  100.8130 O.3     1  EST1       -0.2866
      5  C4       106.7930   18.5030   98.4870 C.ar    1  EST1        0.0375
      6  C5       106.8760   17.4240   97.5440 C.ar    1  EST1       -0.0230
      7  C6       106.9380   17.7140   96.0430 C.3     1  EST1        0.0261
      8  C7       107.3090   16.5030   95.1650 C.3     1  EST1        0.0050
      9  C8       106.6720   15.1910   95.6810 C.3     1  EST1        0.0044
     10  C9       107.1900   14.8700   97.1230 C.3     1  EST1        0.0220
     11  C10      106.9980   16.0650   98.0500 C.ar    1  EST1       -0.0263
     12  C11      106.5900   13.5520   97.6420 C.3     1  EST1        0.0044
     13  C12      106.7820   12.3640   96.6670 C.3     1  EST1        0.0028
     14  C13      106.3220   12.6680   95.2400 C.3     1  EST1        0.0282
     15  C14      107.0200   13.9910   94.7660 C.3     1  EST1        0.0028
     16  C15      106.7430   14.0160   93.2620 C.3     1  EST1        0.0027
     17  C16      106.9650   12.5440   92.8370 C.3     1  EST1        0.0329
     18  C17      106.8760   11.6910   94.1710 C.3     1  EST1        0.1519
     19  O17      106.1970   10.4170   93.9680 O.3     1  EST1       -0.2232
     20  C18      104.7600   12.6910   95.1400 C.3     1  EST1        0.0025
@<TRIPOS>BOND
     1    17    16    1
     2    17    18    1
     3    16    15    1
     4    19    18    1
     5    18    14    1
     6    15    14    1
     7    15     9    1
     8    20    14    1
     9     8     9    1
    10     8     7    1
    11    14    13    1
    12     9    10    1
    13     7     6    1
    14    13    12    1
    15    10    12    1
    16    10    11    1
    17     6    11   ar
    18     6     5   ar
    19    11     1   ar
    20     5     3   ar
    21     1     2   ar
    22     3     2   ar
    23     3     4    1
