@<TRIPOS>MOLECULE
1a53_IGP_A_1.pdb
 19 20 0 0 0
SMALL
GASTEIGER

@<TRIPOS>ATOM
      1  C1        -5.2940  -22.1510   30.2990 C.3   300  IGP300      0.1894
      2  P         -6.3250  -23.1540   28.2720 P.3   300  IGP300      0.5327
      3  OP1       -6.4440  -24.5020   28.7700 O.3   300  IGP300     -0.1145
      4  OP2       -7.4990  -22.7130   27.5150 O.2   300  IGP300     -0.2224
      5  OP3       -5.0570  -23.0310   27.5290 O.3   300  IGP300     -0.1145
      6  OP4       -6.2700  -22.2370   29.4800 O.3   300  IGP300     -0.2674
      7  C2        -5.4330  -21.3770   31.6070 C.3   300  IGP300      0.2160
      8  O2        -4.7690  -20.0840   31.4720 O.3   300  IGP300     -0.2173
      9  C3        -6.7980  -21.3590   32.2140 C.3   300  IGP300      0.2052
     10  O3        -6.4290  -22.5690   32.9220 O.3   300  IGP300     -0.2157
     11  CG        -7.0860  -20.5030   33.3960 C.2   300  IGP300      0.0166
     12  CD2       -7.4520  -20.8510   34.7380 C.3   300  IGP300      0.0843
     13  CE2       -7.2840  -19.6650   35.5220 C.2   300  IGP300      0.0666
     14  CE3       -7.8450  -22.0410   35.4360 C.2   300  IGP300     -0.0163
     15  CD1       -6.8330  -19.1680   33.3650 C.2   300  IGP300      0.0931
     16  NE1       -6.9340  -18.6430   34.6510 N.2   300  IGP300     -0.2481
     17  CZ2       -7.4520  -19.6030   36.9340 C.2   300  IGP300      0.0153
     18  CZ3       -8.0240  -21.9940   36.8340 C.2   300  IGP300     -0.0038
     19  CH2       -7.8250  -20.7700   37.5740 C.2   300  IGP300      0.0009
@<TRIPOS>BOND
     1     4     2    2
     2     5     2    1
     3     2     3    1
     4     2     6    1
     5     6     1    1
     6     1     7    1
     7     8     7    1
     8     7     9    1
     9     9    10    1
    10     9    11    1
    11    15    11    2
    12    15    16    1
    13    11    12    1
    14    16    13    2
    15    12    14    1
    16    12    13    1
    17    14    18    2
    18    13    17    1
    19    18    19    1
    20    17    19    2
