@<TRIPOS>MOLECULE
1a54_MDC_A_1.pdb
 28 30 0 0 0
SMALL
GASTEIGER

@<TRIPOS>ATOM
      1  C1        13.8840   33.2700   25.9780 C.3   323  MDC323      0.0953
      2  C2        13.9920   31.7150   26.0700 C.3   323  MDC323      0.0953
      3  C3        12.9940   31.3540   27.1770 C.2   323  MDC323      0.2319
      4  O3        12.8440   30.2330   27.6510 O.2   323  MDC323     -0.2745
      5  N4        12.5900   32.5200   27.7840 N.am  323  MDC323     -0.2281
      6  C5        12.8770   33.6570   27.0490 C.2   323  MDC323      0.2319
      7  O5        12.6200   34.8090   27.3750 O.2   323  MDC323     -0.2745
      8  C6        11.8900   32.6000   29.0910 C.3   323  MDC323      0.1242
      9  C7        10.5860   32.8900   29.3010 C.3   323  MDC323      0.1374
     10  N8        10.5070   33.6990   28.0640 N.am  323  MDC323     -0.1996
     11  C9        10.4730   35.1720   28.1870 C.2   323  MDC323      0.2712
     12  O9        10.8110   35.5950   29.2980 O.2   323  MDC323     -0.2681
     13  O11        9.4230   37.0020   24.7560 O.2   323  MDC323     -0.4209
     14  C12        9.6930   35.9620   25.6850 C.ar  323  MDC323      0.3502
     15  O12        9.5360   34.8270   25.2580 O.2   323  MDC323     -0.2443
     16  C13       10.1430   36.2350   27.1290 C.ar  323  MDC323      0.1309
     17  C14       10.2970   37.5170   27.5000 C.ar  323  MDC323      0.0141
     18  C24       10.0280   38.6940   26.5610 C.ar  323  MDC323      0.0351
     19  C28        9.5680   38.3510   25.1390 C.ar  323  MDC323      0.1499
     20  C15       10.1720   39.9720   26.9160 C.ar  323  MDC323      0.0043
     21  C16        9.8760   41.0940   25.9010 C.ar  323  MDC323      0.0147
     22  C17        9.4730   40.8230   24.6410 C.ar  323  MDC323      0.0509
     23  N17        9.1840   41.8820   23.6500 N.pl3 323  MDC323     -0.3074
     24  C18        9.3110   39.3320   24.2550 C.ar  323  MDC323      0.0521
     25  C19        9.8340   43.2340   23.7260 C.3   323  MDC323      0.0908
     26  C20        9.3820   43.9580   22.4250 C.3   323  MDC323      0.0232
     27  C21        8.3920   41.6580   22.4320 C.3   323  MDC323      0.0908
     28  C22        8.4490   40.3040   21.8150 C.3   323  MDC323      0.0232
@<TRIPOS>BOND
     1    28    27    1
     2    26    25    1
     3    27    23    1
     4    23    25    1
     5    23    22    1
     6    24    22   ar
     7    24    19   ar
     8    22    21   ar
     9    13    19   ar
    10    13    14   ar
    11    19    18   ar
    12    15    14    2
    13    14    16   ar
    14    21    20   ar
    15     1     2    1
    16     1     6    1
    17     2     3    1
    18    18    20   ar
    19    18    17   ar
    20     6     7    2
    21     6     5   am
    22    16    17   ar
    23    16    11    1
    24     3     4    2
    25     3     5   am
    26     5     8    1
    27    10    11   am
    28    10     9    1
    29    11    12    2
    30     8     9    1
