@<TRIPOS>MOLECULE
1a59_CIT_A_1.pdb
 13 12 0 0 0
SMALL
GASTEIGER

@<TRIPOS>ATOM
      1  C1       -22.0080   57.8640  100.8620 C.2   379  CIT379      0.3680
      2  O1       -21.2360   57.9480  101.7890 O.co2 379  CIT379     -0.2455
      3  O2       -22.3160   58.9680  100.2070 O.co2 379  CIT379     -0.2455
      4  C2       -22.6610   56.6120  100.4140 C.3   379  CIT379      0.1560
      5  C3       -21.7410   55.3180  100.3830 C.3   379  CIT379      0.2402
      6  O7       -20.3650   55.4010  100.7930 O.3   379  CIT379     -0.2129
      7  C4       -22.4040   54.0200  100.1570 C.3   379  CIT379      0.1560
      8  C5       -22.5430   53.8190   98.6580 C.2   379  CIT379      0.3680
      9  O3       -23.1240   54.6920   98.0060 O.co2 379  CIT379     -0.2455
     10  O4       -22.4180   52.6530   98.2150 O.co2 379  CIT379     -0.2455
     11  C6       -22.1170   55.0180  101.9510 C.2   379  CIT379      0.3927
     12  O5       -21.2610   54.5560  102.7690 O.co2 379  CIT379     -0.2429
     13  O6       -23.2920   55.2150  102.3960 O.co2 379  CIT379     -0.2429
@<TRIPOS>BOND
     1     9     8   ar
     2    10     8   ar
     3     8     7    1
     4     7     5    1
     5     3     1   ar
     6     5     4    1
     7     5     6    1
     8     5    11    1
     9     4     1    1
    10     1     2   ar
    11    11    13   ar
    12    11    12   ar
