@<TRIPOS>MOLECULE
1a59_COA_A_1.pdb
 46 48 0 0 0
SMALL
GASTEIGER

@<TRIPOS>ATOM
      1  N1A      -18.0260   57.2940   86.1850 N.2   380  COA380      0.0021
      2  C2A      -17.7980   58.2850   85.2860 C.3   380  COA380      0.5254
      3  N3A      -17.7930   59.6160   85.5480 N.2   380  COA380     -0.0055
      4  C4A      -17.9270   59.9860   86.8210 C.2   380  COA380      0.3518
      5  C5A      -18.0590   59.0080   87.7840 C.2   380  COA380      0.2526
      6  C6A      -18.1150   57.6180   87.4780 C.2   380  COA380      0.4393
      7  N6A      -18.2570   56.7490   88.4790 N.pl3 380  COA380      0.2180
      8  N7A      -18.1330   59.4500   88.9650 N.2   380  COA380     -0.2095
      9  C8A      -18.2060   60.8560   88.8260 C.3   380  COA380      0.3377
     10  N9A      -17.9720   61.1120   87.4610 N.pl3 380  COA380     -0.1439
     11  C1B      -17.8980   62.3800   86.7100 C.3   380  COA380      0.3185
     12  C2B      -19.3180   62.8950   86.3700 C.3   380  COA380      0.2543
     13  O2B      -19.8560   62.4370   85.1100 O.3   380  COA380     -0.2131
     14  C3B      -19.1910   64.4240   86.5170 C.3   380  COA380      0.1928
     15  O3B      -18.6020   64.8620   85.2860 O.3   380  COA380     -0.2673
     16  P3B      -18.6140   66.5230   84.8480 P.3   380  COA380      0.5327
     17  O7A      -19.4470   67.3220   85.9740 O.3   380  COA380     -0.1145
     18  O8A      -17.0830   67.0200   84.7960 O.3   380  COA380     -0.1145
     19  O9A      -19.3250   66.6400   83.4070 O.2   380  COA380     -0.2224
     20  C4B      -18.0800   64.6080   87.5690 C.3   380  COA380      0.1795
     21  O4B      -17.2760   63.4180   87.4950 O.3   380  COA380     -0.3136
     22  C5B      -18.6320   64.7590   88.9850 C.3   380  COA380      0.1812
     23  O5B      -19.5380   63.6810   89.3470 O.3   380  COA380     -0.3112
     24  P1A      -21.1490   63.9790   89.6820 P.3   380  COA380      0.2189
     25  O1A      -21.4330   65.5040   89.8140 O.3   380  COA380     -0.4371
     26  O2A      -22.0770   63.3190   88.6340 O.2   380  COA380     -0.5170
     27  O3A      -21.3100   63.2300   91.1310 O.3   380  COA380     -0.2703
     28  P2A      -20.7120   63.7770   92.5510 P.3   380  COA380      0.2188
     29  O4A      -21.5170   64.9970   93.0460 O.3   380  COA380     -0.4371
     30  O5A      -19.1860   64.0800   92.4450 O.2   380  COA380     -0.5170
     31  O6A      -21.0090   62.4550   93.5010 O.3   380  COA380     -0.3138
     32  CBP      -21.0230   60.0120   92.8990 C.3   380  COA380      0.0645
     33  CCP      -20.2100   61.2650   93.3610 C.3   380  COA380      0.1519
     34  CDP      -22.5200   60.3840   92.7450 C.3   380  COA380      0.0056
     35  CEP      -20.8720   58.9190   93.9780 C.3   380  COA380      0.0056
     36  CAP      -20.4330   59.5320   91.5280 C.3   380  COA380      0.2312
     37  OAP      -19.0020   59.4140   91.5750 O.3   380  COA380     -0.2131
     38  C9P      -21.1210   58.2560   90.9240 C.2   380  COA380      0.2719
     39  O9P      -22.2430   58.3780   90.3380 O.2   380  COA380     -0.2706
     40  N8P      -20.4940   57.0780   91.0520 N.am  380  COA380     -0.2028
     41  C7P      -21.1020   55.8400   90.5510 C.3   380  COA380      0.1248
     42  C6P      -22.1300   55.3100   91.5650 C.3   380  COA380      0.1102
     43  C5P      -21.4020   54.6940   92.7350 C.2   380  COA380      0.2432
     44  O5P      -20.4310   53.9150   92.5700 O.2   380  COA380     -0.2733
     45  N4P      -22.0030   54.7700   93.8870 N.am  380  COA380     -0.2035
     46  C3P      -21.2740   55.2250   95.1360 C.3   380  COA380      0.1385
@<TRIPOS>BOND
     1    19    16    2
     2    18    16    1
     3    16    15    1
     4    16    17    1
     5    13    12    1
     6     2     3    1
     7     2     1    1
     8    15    14    1
     9     3     4    2
    10     1     6    2
    11    12    14    1
    12    12    11    1
    13    14    20    1
    14    11    10    1
    15    11    21    1
    16     4    10    1
    17     4     5    1
    18    10     9    1
    19     6     5    1
    20     6     7    1
    21    21    20    1
    22    20    22    1
    23     5     8    2
    24    26    24    2
    25     9     8    1
    26    22    23    1
    27    23    24    1
    28    24    25    1
    29    24    27    1
    30    39    38    2
    31    41    40    1
    32    41    42    1
    33    38    40   am
    34    38    36    1
    35    27    28    1
    36    36    37    1
    37    36    32    1
    38    42    43    1
    39    30    28    2
    40    28    29    1
    41    28    31    1
    42    44    43    2
    43    43    45   am
    44    34    32    1
    45    32    33    1
    46    32    35    1
    47    33    31    1
    48    45    46    1
