@<TRIPOS>MOLECULE
1a5a_PLP_B_1.pdb
 15 15 0 0 0
SMALL
GASTEIGER

@<TRIPOS>ATOM
      1  N1        84.8210   13.7150   11.8930 N.2   501  PLP501     -0.2505
      2  C2        84.8620   14.1610   10.5500 C.2   501  PLP501      0.0675
      3  C2A       86.1730   14.0340    9.8400 C.3   501  PLP501      0.0499
      4  C3        83.6760   14.8100   10.0400 C.3   501  PLP501      0.1913
      5  O3        83.7040   15.3340    8.7800 O.3   501  PLP501     -0.2167
      6  C4        82.4250   14.9790   11.0050 C.3   501  PLP501      0.0581
      7  C4A       80.9520   15.3130   10.3560 C.3   501  PLP501      0.0075
      8  C5        82.5230   14.5100   12.3790 C.2   501  PLP501      0.0073
      9  C6        83.7440   13.8380   12.7770 C.2   501  PLP501      0.0921
     10  C5A       81.5520   14.8850   13.4570 C.3   501  PLP501      0.1776
     11  O4P       80.3900   14.1140   13.5310 O.3   501  PLP501     -0.2656
     12  P         80.0380   12.7410   13.9710 P.3   501  PLP501      0.5329
     13  O1P       78.6430   12.5360   13.6010 O.3   501  PLP501     -0.1145
     14  O2P       80.1900   12.8190   15.4510 O.3   501  PLP501     -0.1145
     15  O3P       80.7790   11.6460   13.5520 O.2   501  PLP501     -0.2224
@<TRIPOS>BOND
     1     5     4    1
     2     3     2    1
     3     4     2    1
     4     4     6    1
     5     7     6    1
     6     2     1    2
     7     6     8    1
     8     1     9    1
     9     8     9    2
    10     8    10    1
    11    10    11    1
    12    11    12    1
    13    15    12    2
    14    13    12    1
    15    12    14    1
