@<TRIPOS>MOLECULE
1a5b_PLP_B_1.pdb
 15 15 0 0 0
SMALL
GASTEIGER

@<TRIPOS>ATOM
      1  N1        84.5420   13.7910   11.8870 N.2   501  PLP501     -0.2505
      2  C2        84.5720   14.2770   10.5470 C.2   501  PLP501      0.0675
      3  C2A       85.9160   14.2420    9.8360 C.3   501  PLP501      0.0499
      4  C3        83.3350   14.8810   10.0260 C.3   501  PLP501      0.1913
      5  O3        83.3390   15.3910    8.7670 O.3   501  PLP501     -0.2167
      6  C4        82.0580   14.9790   10.9600 C.3   501  PLP501      0.0581
      7  C4A       80.6040   15.3460   10.2720 C.3   501  PLP501      0.0075
      8  C5        82.1410   14.4780   12.3430 C.2   501  PLP501      0.0073
      9  C6        83.4130   13.8460   12.7670 C.2   501  PLP501      0.0921
     10  C5A       81.1680   14.8120   13.4140 C.3   501  PLP501      0.1776
     11  O4P       80.0320   14.0520   13.4720 O.3   501  PLP501     -0.2656
     12  P         79.6600   12.7040   13.8890 P.3   501  PLP501      0.5329
     13  O1P       78.2660   12.6020   13.5480 O.3   501  PLP501     -0.1145
     14  O2P       79.8910   12.6790   15.3470 O.3   501  PLP501     -0.1145
     15  O3P       80.3390   11.6260   13.3960 O.2   501  PLP501     -0.2224
@<TRIPOS>BOND
     1     5     4    1
     2     3     2    1
     3     4     2    1
     4     4     6    1
     5     7     6    1
     6     2     1    2
     7     6     8    1
     8     1     9    1
     9     8     9    2
    10     8    10    1
    11    15    12    2
    12    10    11    1
    13    11    12    1
    14    13    12    1
    15    12    14    1
