@<TRIPOS>MOLECULE
1a5b_IGP_A_1.pdb
 19 20 0 0 0
SMALL
GASTEIGER

@<TRIPOS>ATOM
      1  C1        47.6220   28.6690   12.2510 C.3   271  IGP271      0.1894
      2  P         47.7240   29.1730    9.6450 P.3   271  IGP271      0.5327
      3  OP1       49.0270   30.0110    9.9090 O.3   271  IGP271     -0.1145
      4  OP2       46.4620   30.1750    9.4850 O.3   271  IGP271     -0.1145
      5  OP3       47.7810   28.4350    8.3050 O.2   271  IGP271     -0.2224
      6  OP4       47.4280   28.1810   10.8610 O.3   271  IGP271     -0.2674
      7  C2        48.9790   28.1750   12.7770 C.3   271  IGP271      0.2160
      8  O2        50.0340   29.0180   12.3100 O.3   271  IGP271     -0.2173
      9  C3        49.0430   28.0650   14.3080 C.3   271  IGP271      0.2052
     10  O3        47.8910   27.3730   14.8460 O.3   271  IGP271     -0.2157
     11  CG        50.3300   27.3370   14.7010 C.2   271  IGP271      0.0166
     12  CD2       50.6660   25.9280   14.4880 C.3   271  IGP271      0.0843
     13  CE2       51.9960   25.7800   14.9010 C.2   271  IGP271      0.0666
     14  CE3       49.9610   24.7620   14.0050 C.2   271  IGP271     -0.0163
     15  CD1       51.4160   27.9240   15.1840 C.2   271  IGP271      0.0931
     16  NE1       52.4360   26.9350   15.3060 N.2   271  IGP271     -0.2481
     17  CZ2       52.6810   24.5580   14.8720 C.2   271  IGP271      0.0153
     18  CZ3       50.6770   23.5030   13.9890 C.2   271  IGP271     -0.0038
     19  CH2       52.0090   23.4160   14.4040 C.2   271  IGP271      0.0009
@<TRIPOS>BOND
     1     5     2    2
     2     4     2    1
     3     2     3    1
     4     2     6    1
     5     6     1    1
     6     1     7    1
     7     8     7    1
     8     7     9    1
     9    18    14    2
    10    18    19    1
    11    14    12    1
    12     9    11    1
    13     9    10    1
    14    19    17    2
    15    12    11    1
    16    12    13    1
    17    11    15    2
    18    17    13    1
    19    13    16    2
    20    15    16    1
