@<TRIPOS>MOLECULE
1a5g_00L_H_1.pdb
 42 45 0 0 0
SMALL
GASTEIGER

@<TRIPOS>ATOM
      1  C1        17.9370  -13.0140   20.9460 C.3   372  00L372      0.1709
      2  N1        19.1030  -15.1160   20.9130 N.3   372  00L372     -0.2021
      3  O1        16.3830  -14.0860   22.9910 O.2   372  00L372     -0.2721
      4  C2        19.1340  -12.9300   19.9920 C.3   372  00L372      0.0499
      5  N2        18.1770  -14.3160   21.6160 N.am  372  00L372     -0.2129
      6  O2        16.0150  -13.9840   20.0560 O.2   372  00L372     -0.2715
      7  C3        20.0460  -14.1410   20.3410 C.3   372  00L372      0.0944
      8  N3        16.1250  -16.7390   23.2510 N.3   372  00L372     -0.1246
      9  C4        19.6110  -16.2000   21.7990 C.3   372  00L372      0.0941
     10  C5        18.4750  -17.0050   22.4910 C.3   372  00L372      0.0459
     11  C6        17.5080  -16.1580   23.2780 C.3   372  00L372      0.1519
     12  C7        17.3450  -14.7490   22.6440 C.2   372  00L372      0.2551
     13  C8        16.5330  -12.8940   20.3820 C.2   372  00L372      0.2613
     14  C9        17.7600  -16.1380   24.8070 C.3   372  00L372      0.0529
     15  C10       19.1990  -15.7640   25.1780 C.ar  372  00L372     -0.0203
     16  C15       19.5940  -14.4370   25.4480 C.ar  372  00L372     -0.0042
     17  C14       20.9110  -14.1170   25.8250 C.ar  372  00L372     -0.0003
     18  C13       21.9080  -15.0910   25.8400 C.ar  372  00L372     -0.0000
     19  C12       21.5340  -16.4000   25.5810 C.ar  372  00L372     -0.0003
     20  C11       20.2050  -16.7560   25.2760 C.ar  372  00L372     -0.0042
     21  C         14.3520  -10.9100   18.4500 C.2   372  00L372      0.2471
     22  N         15.8030  -11.7310   20.2580 N.am  372  00L372     -0.1977
     23  O         13.2810  -10.5340   17.8590 O.2   372  00L372     -0.2846
     24  CA        14.3880  -11.6800   19.7870 C.3   372  00L372      0.1615
     25  CB        13.4550  -10.9210   20.7580 C.3   372  00L372      0.0335
     26  CD        12.1100  -11.3370   22.8370 C.3   372  00L372      0.2205
     27  NE        11.3720  -12.3250   23.5590 N.pl3 372  00L372     -0.0865
     28  CG        12.9150  -11.8770   21.7720 C.3   372  00L372      0.0492
     29  CZ        10.5880  -12.1520   24.5860 C.cat 372  00L372      0.5346
     30  O1X       16.5140  -11.1040   17.4890 O.2   372  00L372     -0.2652
     31  C9X       15.3770  -11.4490   17.4510 C.2   372  00L372      0.3014
     32  NH1       10.4390  -10.8990   25.0790 N.pl3 372  00L372      0.1354
     33  NH2        9.8600  -13.1360   25.1200 N.pl3 372  00L372      0.1354
     34  C1X       14.2810  -12.2460   13.6500 C.ar  372  00L372     -0.0204
     35  C6X       13.5280  -13.3270   14.1320 C.ar  372  00L372     -0.0042
     36  C5X       12.2160  -13.5230   13.6610 C.ar  372  00L372     -0.0003
     37  C4X       11.6740  -12.6230   12.7000 C.ar  372  00L372     -0.0000
     38  C3X       12.4400  -11.5240   12.2560 C.ar  372  00L372     -0.0003
     39  C2X       13.7470  -11.3090   12.7470 C.ar  372  00L372     -0.0042
     40  C7X       15.7270  -12.0380   14.2340 C.3   372  00L372      0.0498
     41  C8X       15.7100  -12.9260   15.5360 C.3   372  00L372      0.1202
     42  N1X       14.7320  -12.3470   16.4930 N.am  372  00L372     -0.1988
@<TRIPOS>BOND
     1    38    37   ar
     2    38    39   ar
     3    37    36   ar
     4    39    34   ar
     5    34    35   ar
     6    34    40    1
     7    36    35   ar
     8    40    41    1
     9    41    42    1
    10    42    31   am
    11    31    30    2
    12    31    21    1
    13    23    21    2
    14    21    24    1
    15    24    22    1
    16    24    25    1
    17     4     7    1
    18     4     1    1
    19     6    13    2
    20    22    13   am
    21     7     2    1
    22    13     1    1
    23    25    28    1
    24     2     5    1
    25     2     9    1
    26     1     5    1
    27     5    12   am
    28    28    26    1
    29     9    10    1
    30    10    11    1
    31    12     3    2
    32    12    11    1
    33    26    27    1
    34     8    11    1
    35    11    14    1
    36    27    29    2
    37    29    32    1
    38    29    33    1
    39    14    15    1
    40    15    20   ar
    41    15    16   ar
    42    20    19   ar
    43    16    17   ar
    44    19    18   ar
    45    17    18   ar
