@<TRIPOS>MOLECULE
1a5h_BBA_A_1.pdb
 36 38 0 0 0
SMALL
GASTEIGER

@<TRIPOS>ATOM
      1  C8         8.4810   35.8070   50.2760 C.3   250  BBA250      0.0337
      2  C9         9.1000   35.4640   51.5700 C.ar  250  BBA250     -0.0218
      3  C14       10.4600   35.7740   51.8880 C.ar  250  BBA250     -0.0040
      4  C13       11.0140   35.4690   53.1420 C.ar  250  BBA250      0.0069
      5  C10        8.3130   34.8240   52.5680 C.ar  250  BBA250     -0.0040
      6  C11        8.8980   34.5100   53.8360 C.ar  250  BBA250      0.0069
      7  C12       10.2610   34.8430   54.1380 C.ar  250  BBA250      0.0774
      8  C15       10.8760   34.5370   55.4290 C.2   250  BBA250      0.2674
      9  N16       10.1400   34.3220   56.5320 N.pl3 250  BBA250     -0.2497
     10  N17       12.1890   34.4820   55.5170 N.2   250  BBA250     -0.2884
     11  C18        9.9760   40.5170   49.8350 C.3   250  BBA250      0.0380
     12  C19        9.4930   41.6470   50.7110 C.ar  250  BBA250     -0.0214
     13  C20       10.4320   42.3560   51.5290 C.ar  250  BBA250     -0.0040
     14  C21       10.0100   43.4220   52.3620 C.ar  250  BBA250      0.0069
     15  C24        8.1300   42.0650   50.7780 C.ar  250  BBA250     -0.0040
     16  C23        7.7150   43.1270   51.6200 C.ar  250  BBA250      0.0069
     17  C22        8.6350   43.8260   52.4220 C.ar  250  BBA250      0.0774
     18  C25        8.1710   44.9550   53.2970 C.2   250  BBA250      0.2674
     19  N26        6.9990   44.8800   53.9500 N.pl3 250  BBA250     -0.2497
     20  N27        8.9180   46.0720   53.4570 N.2   250  BBA250     -0.2884
     21  C1         8.6350   36.9440   49.5610 C.3   250  BBA250      0.0626
     22  C2         8.9920   36.6130   48.1270 C.3   250  BBA250      0.0123
     23  C3         8.9120   37.7020   47.0690 C.3   250  BBA250      0.0261
     24  C          7.8270   38.7330   47.2910 C.2   250  BBA250     -0.0303
     25  C4         8.0340   39.6540   48.5120 C.2   250  BBA250     -0.0233
     26  C5         9.2990   39.4260   49.3370 C.3   250  BBA250      0.0835
     27  C6         9.2100   38.2110   50.1790 C.2   250  BBA250      0.1545
     28  O7         9.4500   38.2990   51.3520 O.2   250  BBA250     -0.2957
     29 HG11       10.5760   34.1120   57.4110 H     250  BBA250      0.2883
     30 HG12        9.1420   34.3570   56.4800 H     250  BBA250      0.2883
     31  HG2       12.7530   34.6530   54.6990 H     250  BBA250      0.3009
     32 HG31        6.6800   45.6270   54.5380 H     250  BBA250      0.2883
     33 HG32        6.4230   44.0650   53.8540 H     250  BBA250      0.2883
     34  HG4        8.6110   46.8240   54.0360 H     250  BBA250      0.3009
     35 HG22       12.6430   34.2860   56.3800 H     250  BBA250      0.3009
     36 HG42        9.7940   46.1480   52.9790 H     250  BBA250      0.3009
@<TRIPOS>BOND
     1    23    24    1
     2    23    22    1
     3    24    25    2
     4    22    21    1
     5    25    26    1
     6    26    11    1
     7    26    27    1
     8    21    27    1
     9    21     1    1
    10    11    12    1
    11    27    28    2
    12     1     2    1
    13    12    15   ar
    14    12    13   ar
    15    15    16   ar
    16    13    14   ar
    17     2     3   ar
    18     2     5   ar
    19    16    17   ar
    20     3     4   ar
    21    14    17   ar
    22    17    18    1
    23     5     6   ar
    24    36    20    1
    25     4     7   ar
    26    18    20    2
    27    18    19    1
    28    20    34    1
    29     6     7   ar
    30    33    19    1
    31    19    32    1
    32     7     8    1
    33    31    10    1
    34     8    10    2
    35     8     9    1
    36    10    35    1
    37    30     9    1
    38     9    29    1
