@<TRIPOS>MOLECULE
1a5i_0GJ_A_1.pdb
 25 24 0 0 0
SMALL
GASTEIGER

@<TRIPOS>ATOM
      1  N         33.6680   45.8660   41.1700 N.3   245  0GJ245     -0.1231
      2  CA        33.2650   44.9110   42.2470 C.3   245  0GJ245      0.1699
      3  C         34.4600   43.9880   42.5180 C.2   245  0GJ245      0.2593
      4  O         35.0520   43.4760   41.5720 O.2   245  0GJ245     -0.2718
      5  CB        32.0820   44.0610   41.7680 C.3   245  0GJ245      0.0402
      6  CG        31.1010   44.7970   40.8600 C.3   245  0GJ245      0.1161
      7  CD        30.4810   43.9030   39.7830 C.2   245  0GJ245      0.3649
      8  OE1       30.1610   42.7210   40.0760 O.co2 245  0GJ245     -0.2457
      9  OE2       30.3120   44.3940   38.6390 O.co2 245  0GJ245     -0.2457
     10  N1        34.8510   43.8240   43.7830 N.am  245  0GJ245     -0.1942
     11  CA1       35.9560   42.9380   44.1010 C.3   245  0GJ245      0.2014
     12  C1        35.5220   41.5190   43.7800 C.2   245  0GJ245      0.2635
     13  O1        34.3320   41.2750   43.6360 O.2   245  0GJ245     -0.2714
     14  N2        36.4710   40.6060   43.5980 N.am  245  0GJ245     -0.2031
     15  CA2       36.1590   39.2060   43.2930 C.3   245  0GJ245      0.1257
     16  C2        36.8510   38.4470   44.3880 C.3   245  0GJ245      0.1718
     17  O2        36.4480   37.1080   44.1240 O.3   245  0GJ245     -0.2213
     18  CB1       36.7600   38.7730   41.9430 C.3   245  0GJ245      0.0280
     19  CG1       36.1650   39.4650   40.7300 C.3   245  0GJ245      0.0488
     20  CD1       37.1650   39.5640   39.6120 C.3   245  0GJ245      0.2205
     21  NE        36.6730   40.3450   38.4740 N.pl3 245  0GJ245     -0.0865
     22  CZ        37.3000   40.4140   37.2990 C.cat 245  0GJ245      0.5346
     23  NH1       38.4470   39.7670   37.1050 N.pl3 245  0GJ245      0.1354
     24  NH2       36.7380   41.0380   36.2800 N.pl3 245  0GJ245      0.1354
     25  C3        36.5100   39.0130   45.7720 C.3   245  0GJ245      0.0373
@<TRIPOS>BOND
     1    24    22    1
     2    23    22    1
     3    22    21    2
     4    21    20    1
     5     9     7   ar
     6    20    19    1
     7     7     8   ar
     8     7     6    1
     9    19    18    1
    10     6     5    1
    11     1     2    1
    12     4     3    2
    13     5     2    1
    14    18    15    1
    15     2     3    1
    16     3    10   am
    17    15    14    1
    18    15    16    1
    19    14    12   am
    20    13    12    2
    21    12    11    1
    22    10    11    1
    23    17    16    1
    24    16    25    1
