@<TRIPOS>MOLECULE
1a5s_FIP_A_1.pdb
 18 19 0 0 0
SMALL
GASTEIGER

@<TRIPOS>ATOM
      1  C3        49.8770   27.4540   15.0370 C.2   270  FIP270     -0.0157
      2  C9        50.4380   26.1340   15.0010 C.3   270  FIP270      0.0841
      3  C8        51.8280   26.2680   15.1820 C.2   270  FIP270      0.0666
      4  C4        49.8970   24.8510   14.8390 C.2   270  FIP270      0.0132
      5  C2        50.9230   28.3090   15.2160 C.2   270  FIP270      0.0906
      6  N1        52.0990   27.6040   15.3150 N.2   270  FIP270     -0.2482
      7  C7        52.6870   25.1710   15.2000 C.2   270  FIP270      0.0176
      8  C5        50.7530   23.7610   14.8730 C.2   270  FIP270      0.1366
      9  C6        52.1320   23.9320   15.0510 C.2   270  FIP270      0.0306
     10  F         50.2530   22.5380   14.7450 F     270  FIP270     -0.2045
     11  C3P       48.4370   27.8190   14.8880 C.3   270  FIP270      0.0269
     12  C2P       47.9950   27.6850   13.4480 C.3   270  FIP270      0.0371
     13  C1P       48.6770   28.7270   12.5740 C.3   270  FIP270      0.1541
     14  P         48.6890   29.5790   10.0410 P.3   270  FIP270      0.5326
     15  OP1       49.9050   30.2960   10.5020 O.3   270  FIP270     -0.1145
     16  OP2       47.5070   30.4810    9.9230 O.3   270  FIP270     -0.1145
     17  OP3       48.8400   28.5610    8.9530 O.2   270  FIP270     -0.2224
     18  OP4       48.2780   28.5360   11.2340 O.3   270  FIP270     -0.2702
@<TRIPOS>BOND
     1    17    14    2
     2    16    14    1
     3    14    15    1
     4    14    18    1
     5    18    13    1
     6    13    12    1
     7    12    11    1
     8    10     8    1
     9     4     8    2
    10     4     2    1
    11     8     9    1
    12    11     1    1
    13     2     1    1
    14     2     3    1
    15     1     5    2
    16     9     7    2
    17     3     7    1
    18     3     6    2
    19     5     6    1
