@<TRIPOS>MOLECULE
1a5s_PLP_B_1.pdb
 15 15 0 0 0
SMALL
GASTEIGER

@<TRIPOS>ATOM
      1  N1        84.1800   13.6190   11.8070 N.2   901  PLP901     -0.2716
      2  C2        83.9590   14.2850   10.6320 C.2   901  PLP901      0.0661
      3  C2A       85.0180   14.2450    9.5240 C.3   901  PLP901      0.0498
      4  C3        82.8020   15.0030   10.4570 C.3   901  PLP901      0.2051
      5  O3        82.5760   15.6570    9.2720 O.3   901  PLP901     -0.2125
      6  C4        81.8690   15.0590   11.4630 C.2   901  PLP901     -0.0124
      7  C4A       80.5700   15.8940   11.2890 C.3   901  PLP901      0.0288
      8  C5        82.0930   14.3960   12.6380 C.2   901  PLP901      0.0046
      9  C6        83.2470   13.6730   12.8090 C.3   901  PLP901      0.1488
     10  C5A       81.0680   14.4770   13.7710 C.3   901  PLP901      0.1774
     11  O4P       79.8930   13.7240   13.4930 O.3   901  PLP901     -0.2656
     12  P         79.5860   12.3030   14.0660 P.3   901  PLP901      0.5329
     13  O1P       78.2180   12.0800   13.5520 O.2   901  PLP901     -0.2224
     14  O2P       79.7230   12.5400   15.5140 O.3   901  PLP901     -0.1145
     15  O3P       80.5480   11.3060   13.5520 O.3   901  PLP901     -0.1145
@<TRIPOS>BOND
     1     5     4    1
     2     3     2    1
     3     4     2    1
     4     4     6    1
     5     2     1    2
     6     7     6    1
     7     6     8    2
     8     1     9    1
     9     8     9    1
    10     8    10    1
    11    11    10    1
    12    11    12    1
    13    13    12    2
    14    15    12    1
    15    12    14    1
