@<TRIPOS>MOLECULE
1a5u_ATP_A_1.pdb
 31 33 0 0 0
SMALL
GASTEIGER

@<TRIPOS>ATOM
      1  PG        10.5030   64.9780   11.3110 P.3   535  ATP535      0.5373
      2  O1G       10.4390   65.3560   12.6880 O.3   535  ATP535     -0.1143
      3  O2G       11.3240   65.6060   10.3170 O.2   535  ATP535     -0.2221
      4  O3G        9.2800   64.6910   10.7090 O.3   535  ATP535     -0.1143
      5  PB        12.3360   62.7050   11.8730 P.3   535  ATP535      0.2277
      6  O1B       12.8190   61.6500   10.9700 O.2   535  ATP535     -0.5168
      7  O2B       13.5040   63.4230   12.4250 O.3   535  ATP535     -0.4368
      8  O3B       11.0730   63.3170   11.2580 O.3   535  ATP535     -0.2258
      9  PA        11.1870   62.6180   14.5350 P.3   535  ATP535      0.2189
     10  O1A       11.8510   63.9190   14.7800 O.2   535  ATP535     -0.5170
     11  O2A        9.7400   62.6580   14.8010 O.3   535  ATP535     -0.4371
     12  O3A       11.4340   62.0790   13.0980 O.3   535  ATP535     -0.2700
     13  O5'       11.9900   61.5330   15.5420 O.3   535  ATP535     -0.3112
     14  C5'       13.4160   61.4190   15.3400 C.3   535  ATP535      0.1813
     15  C4'       13.7950   59.9840   15.0860 C.3   535  ATP535      0.1821
     16  O4'       13.1400   59.1730   16.0920 O.3   535  ATP535     -0.3135
     17  C3'       13.3380   59.3900   13.7610 C.3   535  ATP535      0.2184
     18  O3'       14.2230   59.7610   12.6930 O.3   535  ATP535     -0.2174
     19  C2'       13.3440   57.9070   14.1480 C.3   535  ATP535      0.2570
     20  O2'       14.7050   57.4090   14.2250 O.3   535  ATP535     -0.2130
     21  C1'       12.7610   57.9640   15.5540 C.3   535  ATP535      0.3186
     22  N9        11.3060   57.8040   15.6610 N.pl3 535  ATP535     -0.1439
     23  C8        10.3240   58.7410   15.8690 C.3   535  ATP535      0.3377
     24  N7         9.0470   58.1960   15.8860 N.2   535  ATP535     -0.2095
     25  C5         9.2840   56.8290   15.7080 C.2   535  ATP535      0.2526
     26  C6         8.3810   55.7420   15.5800 C.2   535  ATP535      0.4393
     27  N6         7.0430   55.8560   15.6410 N.pl3 535  ATP535      0.2180
     28  N1         8.9600   54.5270   15.3070 N.2   535  ATP535      0.0021
     29  C2        10.3410   54.4260   15.2290 C.3   535  ATP535      0.5254
     30  N3        11.2350   55.3610   15.3440 N.2   535  ATP535     -0.0055
     31  C4        10.6500   56.5720   15.6030 C.2   535  ATP535      0.3518
@<TRIPOS>BOND
     1     3     1    2
     2     4     1    1
     3     6     5    2
     4     8     1    1
     5     8     5    1
     6     1     2    1
     7     5     7    1
     8     5    12    1
     9    18    17    1
    10    12     9    1
    11    17    19    1
    12    17    15    1
    13    19    20    1
    14    19    21    1
    15     9    10    2
    16     9    11    1
    17     9    13    1
    18    15    14    1
    19    15    16    1
    20    29    28    1
    21    29    30    1
    22    28    26    2
    23    14    13    1
    24    30    31    2
    25    21    22    1
    26    21    16    1
    27    26    27    1
    28    26    25    1
    29    31    22    1
    30    31    25    1
    31    22    23    1
    32    25    24    2
    33    23    24    1
