@<TRIPOS>MOLECULE
1a5v_Y3_A_1.pdb
 23 24 0 0 0
SMALL
GASTEIGER

@<TRIPOS>ATOM
      1  C1        37.2550   26.6020   58.5650 C.ar    1  Y31         0.1982
      2  C2        36.7650   25.3980   58.1140 C.ar    1  Y31         0.0609
      3  C3        37.6340   24.3720   57.8150 C.ar    1  Y31         0.1155
      4  C4        38.9990   24.5560   57.9280 C.ar    1  Y31         0.0192
      5  C5        39.4930   25.7680   58.3650 C.ar    1  Y31         0.0069
      6  C6        38.6250   26.8000   58.6820 C.ar    1  Y31         0.0544
      7  C7        39.1290   28.0210   59.1110 C.ar    1  Y31         0.0777
      8  C8        40.5050   28.1920   59.2220 C.ar    1  Y31         0.0356
      9  C9        41.3660   27.1500   58.9090 C.ar    1  Y31         0.1136
     10  C10       40.8580   25.9420   58.4820 C.ar    1  Y31         0.0191
     11  S11       36.9840   22.7880   57.2870 S.3     1  Y31         0.0422
     12  O12       36.2700   22.2070   58.3790 O.3     1  Y31        -0.0650
     13  O13       38.0650   21.9290   56.9130 O.3     1  Y31        -0.0650
     14  O14       36.1060   22.9840   56.1740 O.3     1  Y31        -0.0650
     15  N15       38.2810   29.0120   59.4140 N.am    1  Y31        -0.1791
     16  C16       38.6060   30.3040   59.4440 C.2     1  Y31         0.2461
     17  O17       39.7330   30.7300   59.1980 O.2     1  Y31        -0.2730
     18  C18       37.4790   31.2650   59.8130 C.3     1  Y31         0.0968
     19  S19       43.1540   27.3440   59.0480 S.3     1  Y31         0.0421
     20  O20       43.7810   26.2680   58.3560 O.3     1  Y31        -0.0650
     21  O21       43.5280   27.3100   60.4180 O.3     1  Y31        -0.0650
     22  O22       43.5620   28.5970   58.4910 O.3     1  Y31        -0.0650
     23  O23       36.3780   27.6000   58.8850 O.3     1  Y31        -0.2865
@<TRIPOS>BOND
     1    14    11    1
     2    13    11    1
     3    11     3    1
     4    11    12    1
     5     3     4   ar
     6     3     2   ar
     7     4     5   ar
     8     2     1   ar
     9    20    19    1
    10     5    10   ar
    11     5     6   ar
    12    10     9   ar
    13    22    19    1
    14     1     6   ar
    15     1    23    1
    16     6     7   ar
    17     9    19    1
    18     9     8   ar
    19    19    21    1
    20     7     8   ar
    21     7    15    1
    22    17    16    2
    23    15    16   am
    24    16    18    1
