@<TRIPOS>MOLECULE
1a5w_Y3_A_1.pdb
 23 24 0 0 0
SMALL
GASTEIGER

@<TRIPOS>ATOM
      1  C1        37.3830   26.7780   58.6160 C.ar    1  Y31         0.1982
      2  C2        36.8890   25.5430   58.2310 C.ar    1  Y31         0.0609
      3  C3        37.7480   24.4910   57.9880 C.ar    1  Y31         0.1155
      4  C4        39.1210   24.6780   58.1100 C.ar    1  Y31         0.0192
      5  C5        39.6200   25.9230   58.4780 C.ar    1  Y31         0.0069
      6  C6        38.7550   26.9790   58.7310 C.ar    1  Y31         0.0544
      7  C7        39.2590   28.2230   59.0970 C.ar    1  Y31         0.0777
      8  C8        40.6310   28.3960   59.2270 C.ar    1  Y31         0.0356
      9  C9        41.4810   27.3270   58.9820 C.ar    1  Y31         0.1136
     10  C10       40.9780   26.1030   58.5960 C.ar    1  Y31         0.0191
     11  S11       37.0750   22.8870   57.5070 S.3     1  Y31         0.0422
     12  O12       36.2190   22.4170   58.5480 O.3     1  Y31        -0.0650
     13  O13       38.1400   21.9520   57.3220 O.3     1  Y31        -0.0650
     14  O14       36.3270   23.0340   56.2990 O.3     1  Y31        -0.0650
     15  N15       38.4110   29.2350   59.3340 N.am    1  Y31        -0.1791
     16  C16       38.7450   30.5310   59.3910 C.2     1  Y31         0.2461
     17  O17       39.8840   30.9510   59.2370 O.2     1  Y31        -0.2730
     18  C18       37.6020   31.5020   59.6690 C.3     1  Y31         0.0968
     19  S19       43.2580   27.5080   59.1510 S.3     1  Y31         0.0421
     20  O20       43.8620   26.4090   58.4740 O.3     1  Y31        -0.0650
     21  O21       43.6270   27.5040   60.5320 O.3     1  Y31        -0.0650
     22  O22       43.6820   28.7510   58.5730 O.3     1  Y31        -0.0650
     23  O23       36.5080   27.7980   58.8770 O.3     1  Y31        -0.2865
@<TRIPOS>BOND
     1    14    11    1
     2    13    11    1
     3    11     3    1
     4    11    12    1
     5     3     4   ar
     6     3     2   ar
     7     4     5   ar
     8     2     1   ar
     9    20    19    1
    10     5    10   ar
    11     5     6   ar
    12    22    19    1
    13    10     9   ar
    14     1     6   ar
    15     1    23    1
    16     6     7   ar
    17     9    19    1
    18     9     8   ar
    19     7     8   ar
    20     7    15    1
    21    19    21    1
    22    17    16    2
    23    15    16   am
    24    16    18    1
