@<TRIPOS>MOLECULE
1a5x_Y3_A_1.pdb
 23 24 0 0 0
SMALL
GASTEIGER

@<TRIPOS>ATOM
      1  C1        37.2630   26.4800   58.8550 C.ar    1  Y31         0.1982
      2  C2        36.7680   25.2470   58.5010 C.ar    1  Y31         0.0609
      3  C3        37.6260   24.2030   58.2390 C.ar    1  Y31         0.1155
      4  C4        39.0050   24.3940   58.3040 C.ar    1  Y31         0.0192
      5  C5        39.5140   25.6390   58.6560 C.ar    1  Y31         0.0069
      6  C6        38.6410   26.6890   58.9320 C.ar    1  Y31         0.0544
      7  C7        39.1380   27.9390   59.2790 C.ar    1  Y31         0.0777
      8  C8        40.5160   28.1400   59.3650 C.ar    1  Y31         0.0356
      9  C9        41.3850   27.0940   59.0880 C.ar    1  Y31         0.1136
     10  C10       40.8860   25.8450   58.7360 C.ar    1  Y31         0.0191
     11  S11       36.9170   22.6020   57.8160 S.3     1  Y31         0.0422
     12  O12       35.6930   22.4370   58.5480 O.3     1  Y31        -0.0650
     13  O13       37.8230   21.5510   58.1760 O.3     1  Y31        -0.0650
     14  O14       36.6450   22.5600   56.4110 O.3     1  Y31        -0.0650
     15  N15       38.2780   28.9270   59.5370 N.am    1  Y31        -0.1791
     16  C16       38.5860   30.2190   59.5460 C.2     1  Y31         0.2461
     17  O17       39.7190   30.6520   59.3210 O.2     1  Y31        -0.2730
     18  C18       37.4300   31.1630   59.8660 C.3     1  Y31         0.0968
     19  S19       43.1740   27.3450   59.1800 S.3     1  Y31         0.0421
     20  O20       43.8120   26.2130   58.5760 O.3     1  Y31        -0.0650
     21  O21       43.5680   27.4650   60.5480 O.3     1  Y31        -0.0650
     22  O22       43.5520   28.5420   58.4910 O.3     1  Y31        -0.0650
     23  O23       36.3830   27.4960   59.1250 O.3     1  Y31        -0.2865
@<TRIPOS>BOND
     1    14    11    1
     2    11    13    1
     3    11     3    1
     4    11    12    1
     5     3     4   ar
     6     3     2   ar
     7     4     5   ar
     8    22    19    1
     9     2     1   ar
    10    20    19    1
    11     5    10   ar
    12     5     6   ar
    13    10     9   ar
    14     1     6   ar
    15     1    23    1
    16     6     7   ar
    17     9    19    1
    18     9     8   ar
    19    19    21    1
    20     7     8   ar
    21     7    15    1
    22    17    16    2
    23    15    16   am
    24    16    18    1
