@<TRIPOS>MOLECULE
1a5z_FBP_A_1.pdb
 20 21 0 0 0
SMALL
GASTEIGER

@<TRIPOS>ATOM
      1  P1       105.3770   58.0310   68.9690 P.3   353  FBP353      0.5346
      2  O1P      104.8850   59.2830   69.7480 O.3   353  FBP353     -0.1145
      3  O2P      106.8380   58.0540   68.8920 O.3   353  FBP353     -0.1145
      4  O3P      104.6170   58.0230   67.7110 O.2   353  FBP353     -0.2223
      5  O1       105.0190   56.8570   69.8750 O.3   353  FBP353     -0.2391
      6  C1       106.0240   56.3720   70.7250 C.3   353  FBP353      0.3024
      7  C2       105.3740   55.3070   71.4980 C.3   353  FBP353      0.3024
      8  O2       104.2020   55.7740   72.1010 O.3   353  FBP353     -0.1869
      9  C3       106.3820   54.7540   72.5100 C.3   353  FBP353      0.2402
     10  O3       105.7860   53.7370   73.3500 O.3   353  FBP353     -0.2149
     11  C4       107.2990   54.3260   71.4370 C.3   353  FBP353      0.1829
     12  O4       107.5480   55.4430   70.5840 O.3   353  FBP353     -0.3236
     13  C5       106.3980   53.3210   70.8100 C.3   353  FBP353      0.1777
     14  O5       105.1560   54.1010   70.7560 O.3   353  FBP353     -0.3238
     15  C6       106.2560   52.2530   71.8930 C.3   353  FBP353      0.1858
     16  O6       105.3630   51.0830   71.6210 O.3   353  FBP353     -0.2675
     17  P2       105.0370   50.3910   70.3050 P.3   353  FBP353      0.5327
     18  O4P      103.8610   51.1320   69.7290 O.3   353  FBP353     -0.1145
     19  O5P      104.7400   48.9900   70.7120 O.3   353  FBP353     -0.1145
     20  O6P      106.2770   50.5330   69.4680 O.2   353  FBP353     -0.2224
@<TRIPOS>BOND
     1     4     1    2
     2     3     1    1
     3     1     2    1
     4     1     5    1
     5    20    17    2
     6    18    17    1
     7     5     6    1
     8    17    19    1
     9    17    16    1
    10    12     6    1
    11    12    11    1
    12     6     7    1
    13    14    13    1
    14    14     7    1
    15    13    11    1
    16    13    15    1
    17    11     9    1
    18     7     8    1
    19     7     9    1
    20    16    15    1
    21     9    10    1
