@<TRIPOS>MOLECULE
1a5z_NAD_A_1.pdb
 44 48 0 0 0
SMALL
GASTEIGER

@<TRIPOS>ATOM
      1  PA        88.7760   26.0840   52.9440 P.3   352  NAD352      0.2189
      2  O1A       89.1760   26.6490   51.6620 O.2   352  NAD352     -0.5170
      3  O2A       87.3270   26.0710   53.1640 O.3   352  NAD352     -0.4371
      4  O5B       89.3550   24.5690   53.0770 O.3   352  NAD352     -0.3112
      5  C5B       90.7400   24.1060   52.9750 C.3   352  NAD352      0.1813
      6  C4B       91.4320   24.1580   51.6580 C.3   352  NAD352      0.1821
      7  O4B       92.6970   23.5190   52.0050 O.3   352  NAD352     -0.3135
      8  C3B       90.8180   23.3410   50.5010 C.3   352  NAD352      0.2184
      9  O3B       91.1370   23.8140   49.1730 O.3   352  NAD352     -0.2174
     10  C2B       91.4770   22.0270   50.6350 C.3   352  NAD352      0.2570
     11  O2B       91.4590   21.2660   49.4300 O.3   352  NAD352     -0.2130
     12  C1B       92.8680   22.4160   51.0750 C.3   352  NAD352      0.3186
     13  N9A       93.5400   21.2470   51.6780 N.pl3 352  NAD352     -0.1439
     14  C8A       93.0130   20.4250   52.6060 C.3   352  NAD352      0.3377
     15  N7A       93.8580   19.4360   52.9510 N.2   352  NAD352     -0.2095
     16  C5A       94.9230   19.6710   52.2000 C.2   352  NAD352      0.2526
     17  C6A       96.1170   18.8930   52.1920 C.2   352  NAD352      0.4393
     18  N6A       96.2440   17.8240   52.9690 N.pl3 352  NAD352      0.2180
     19  N1A       97.1070   19.2900   51.3480 N.2   352  NAD352      0.0021
     20  C2A       96.9320   20.3850   50.5750 C.3   352  NAD352      0.5254
     21  N3A       95.8030   21.1210   50.5850 N.2   352  NAD352     -0.0055
     22  C4A       94.7660   20.8010   51.3930 C.2   352  NAD352      0.3518
     23  O3        89.5440   26.8310   54.1220 O.3   352  NAD352     -0.2703
     24  PN        89.6910   28.3450   54.6080 P.3   352  NAD352      0.2189
     25  O1N       88.3410   28.9670   54.7040 O.3   352  NAD352     -0.4371
     26  O2N       90.7280   29.0660   53.8060 O.2   352  NAD352     -0.5170
     27  O5D       90.2440   28.1870   56.1420 O.3   352  NAD352     -0.3112
     28  C5D       91.5640   27.7670   56.5220 C.3   352  NAD352      0.1813
     29  C4D       91.4160   26.6420   57.5840 C.3   352  NAD352      0.1799
     30  O4D       91.3500   27.2010   58.9340 O.3   352  NAD352     -0.3327
     31  C3D       90.1640   25.7100   57.4470 C.3   352  NAD352      0.2158
     32  O3D       90.4270   24.5030   56.6940 O.3   352  NAD352     -0.2175
     33  C2D       89.7610   25.3680   58.8780 C.3   352  NAD352      0.2309
     34  O2D       90.2860   24.1250   59.3720 O.3   352  NAD352     -0.2158
     35  C1D       90.1930   26.6190   59.6450 C.3   352  NAD352      0.2263
     36  N1N       89.0930   27.6010   59.7930 N.pl3 352  NAD352     -0.2787
     37  C2N       88.9580   28.7320   58.9730 C.3   352  NAD352      0.1244
     38  C3N       87.8830   29.6080   59.1820 C.2   352  NAD352      0.0544
     39  C7N       87.6750   30.8660   58.3290 C.2   352  NAD352      0.2818
     40  O7N       88.5600   31.2220   57.5520 O.2   352  NAD352     -0.2670
     41  N7N       86.5300   31.5340   58.4730 N.am  352  NAD352     -0.0839
     42  C4N       86.9610   29.3400   60.2070 C.2   352  NAD352      0.0033
     43  C5N       87.1040   28.2140   61.0160 C.2   352  NAD352      0.0157
     44  C6N       88.1670   27.3420   60.8150 C.2   352  NAD352      0.0633
@<TRIPOS>BOND
     1     9     8    1
     2    11    10    1
     3     8    10    1
     4     8     6    1
     5    20    21    1
     6    20    19    1
     7    21    22    2
     8    10    12    1
     9    12    13    1
    10    12     7    1
    11    19    17    2
    12    22    13    1
    13    22    16    1
    14     6     7    1
    15     6     5    1
    16     2     1    2
    17    13    14    1
    18    17    16    1
    19    17    18    1
    20    16    15    2
    21    14    15    1
    22     1     4    1
    23     1     3    1
    24     1    23    1
    25     5     4    1
    26    26    24    2
    27    23    24    1
    28    24    25    1
    29    24    27    1
    30    27    28    1
    31    28    29    1
    32    32    31    1
    33    31    29    1
    34    31    33    1
    35    40    39    2
    36    29    30    1
    37    39    41   am
    38    39    38    1
    39    33    34    1
    40    33    35    1
    41    30    35    1
    42    37    38    1
    43    37    36    1
    44    38    42    2
    45    35    36    1
    46    36    44    1
    47    42    43    1
    48    44    43    2
