@<TRIPOS>MOLECULE
1a61_00N_H_1.pdb
 36 39 0 0 0
SMALL
GASTEIGER

@<TRIPOS>ATOM
      1  C1        17.7120  -13.0190   21.1530 C.3   372  00N372      0.1709
      2  N1        18.7100  -15.2140   21.0630 N.3   372  00N372     -0.2021
      3  O1        16.0220  -14.0220   23.2360 O.2   372  00N372     -0.2721
      4  C2        18.6360  -13.2090   20.0030 C.3   372  00N372      0.0499
      5  N2        17.6880  -14.4220   21.7280 N.am  372  00N372     -0.2129
      6  O2        15.9560  -13.9920   19.7990 O.2   372  00N372     -0.2715
      7  C3        19.6960  -14.1920   20.7210 C.3   372  00N372      0.0944
      8  N3        15.5860  -16.5550   23.3450 N.3   372  00N372     -0.1246
      9  C4        19.0630  -16.4860   21.7100 C.3   372  00N372      0.0941
     10  C5        17.9490  -17.0910   22.5950 C.3   372  00N372      0.0459
     11  C6        17.0120  -16.1670   23.3240 C.3   372  00N372      0.1519
     12  C7        16.9120  -14.7780   22.7140 C.2   372  00N372      0.2551
     13  C8        16.4450  -12.9930   20.5090 C.2   372  00N372      0.2613
     14  C9        17.6720  -16.2780   24.8000 C.3   372  00N372      0.0529
     15  C10       19.0370  -15.6150   25.1650 C.ar  372  00N372     -0.0203
     16  C11       19.3550  -14.2880   25.4280 C.ar  372  00N372     -0.0042
     17  C12       20.7080  -13.9430   25.7400 C.ar  372  00N372     -0.0003
     18  C13       21.7440  -14.8830   25.7230 C.ar  372  00N372     -0.0000
     19  C14       21.3830  -16.2100   25.4730 C.ar  372  00N372     -0.0003
     20  C15       20.0690  -16.5970   25.1350 C.ar  372  00N372     -0.0042
     21  C         14.3350  -10.5940   18.7500 C.2   372  00N372      0.2162
     22  N         15.3260  -12.0680   20.5520 N.am  372  00N372     -0.1978
     23  O         13.4310  -10.0020   18.1220 O.2   372  00N372     -0.2874
     24  CA        14.1450  -11.3480   20.0420 C.3   372  00N372      0.1588
     25  CB        13.1790  -10.7500   21.0510 C.3   372  00N372      0.0334
     26  CD        11.8340  -11.2710   23.0490 C.3   372  00N372      0.2205
     27  NE        11.3950  -12.3040   23.9700 N.pl3 372  00N372     -0.0865
     28  CG        12.7560  -11.8500   21.9990 C.3   372  00N372      0.0492
     29  CZ        10.5320  -12.0930   24.9790 C.cat 372  00N372      0.5346
     30  C1X       15.2430  -11.1340   17.6010 C.ar  372  00N372      0.1471
     31  N1X       16.6190  -10.9610   17.4630 N.ar  372  00N372     -0.2338
     32  S1X       14.8770  -12.0620   16.1050 S.2   372  00N372     -0.0630
     33  C2X       17.4270  -11.3970   16.3700 C.ar  372  00N372      0.1065
     34  C3X       16.5370  -11.9990   15.5410 C.ar  372  00N372      0.0576
     35  NH1       10.2130  -10.7730   25.0850 N.pl3 372  00N372      0.1354
     36  NH2        9.5290  -12.9890   25.2030 N.pl3 372  00N372      0.1354
@<TRIPOS>BOND
     1    34    32   ar
     2    34    33   ar
     3    32    30   ar
     4    33    31   ar
     5    31    30   ar
     6    30    21    1
     7    23    21    2
     8    21    24    1
     9     6    13    2
    10     4     7    1
    11     4     1    1
    12    24    22    1
    13    24    25    1
    14    13    22   am
    15    13     1    1
    16     7     2    1
    17    25    28    1
    18     2     9    1
    19     2     5    1
    20     1     5    1
    21     9    10    1
    22     5    12   am
    23    28    26    1
    24    10    11    1
    25    12     3    2
    26    12    11    1
    27    26    27    1
    28    11     8    1
    29    11    14    1
    30    27    29    2
    31    14    15    1
    32    29    35    1
    33    29    36    1
    34    20    15   ar
    35    20    19   ar
    36    15    16   ar
    37    16    17   ar
    38    19    18   ar
    39    18    17   ar
