@<TRIPOS>MOLECULE
1a69_FMB_A_1.pdb
 19 21 0 0 0
SMALL
GASTEIGER

@<TRIPOS>ATOM
      1  N1       -18.6290   72.4960   64.7810 N.2   240  FMB240     -0.1739
      2  C2       -17.6590   72.8430   65.6920 C.3   240  FMB240      0.2626
      3  N3       -17.4340   72.1880   66.8280 N.2   240  FMB240     -0.2399
      4  C4       -18.2650   71.1350   66.9710 C.2   240  FMB240      0.1264
      5  C5       -19.2640   70.7080   66.1180 C.2   240  FMB240      0.2032
      6  C6       -19.4960   71.4120   64.9200 C.1   240  FMB240      0.1734
      7  O6       -20.3350   71.1770   64.0460 O.2   240  FMB240     -0.2205
      8  N7       -19.9000   69.5840   66.6230 N.2   240  FMB240     -0.1347
      9  N8       -19.2890   69.3560   67.7600 N.2   240  FMB240     -0.1475
     10  C9       -18.2820   70.2630   68.0340 C.2   240  FMB240      0.1295
     11  C1'      -17.5510   69.7970   69.2390 C.3   240  FMB240      0.1910
     12  C2'      -16.4120   70.7300   69.6340 C.3   240  FMB240      0.2173
     13  O2'      -15.2040   69.9950   69.6560 O.3   240  FMB240     -0.2173
     14  C3'      -16.8460   71.3300   70.9950 C.3   240  FMB240      0.2144
     15  O3'      -16.1160   70.8000   72.1220 O.3   240  FMB240     -0.2176
     16  C4'      -18.3190   70.9540   71.1130 C.3   240  FMB240      0.1814
     17  O4'      -18.4590   69.7460   70.3290 O.3   240  FMB240     -0.3446
     18  C5'      -19.2870   72.0220   70.6090 C.3   240  FMB240      0.2141
     19  O5'      -20.6560   71.5800   70.5560 O.3   240  FMB240     -0.2176
@<TRIPOS>BOND
     1     7     6    2
     2     1     6    2
     3     1     2    1
     4     6     5    1
     5     2     3    1
     6     5     8    2
     7     5     4    1
     8     8     9    1
     9     3     4    2
    10     4    10    1
    11     9    10    2
    12    10    11    1
    13    11    12    1
    14    11    17    1
    15    12    13    1
    16    12    14    1
    17    17    16    1
    18    19    18    1
    19    18    16    1
    20    14    16    1
    21    14    15    1
