@<TRIPOS>MOLECULE
1a6e_ADP_A_1.pdb
 27 29 0 0 0
SMALL
GASTEIGER

@<TRIPOS>ATOM
      1  PB        13.8240   51.8440  -21.2590 P.3   898  ADP898      0.5373
      2  O1B       13.5450   50.4900  -21.8090 O.3   898  ADP898     -0.1143
      3  O2B       14.4260   52.8600  -22.4090 O.2   898  ADP898     -0.2221
      4  O3B       12.5960   52.4010  -20.6350 O.3   898  ADP898     -0.1143
      5  PA        16.4740   52.2970  -20.1210 P.3   898  ADP898      0.2231
      6  O1A       16.8830   52.7330  -21.4670 O.2   898  ADP898     -0.5169
      7  O2A       17.3630   51.2630  -19.5740 O.3   898  ADP898     -0.4370
      8  O3A       14.9920   51.7470  -20.2120 O.3   898  ADP898     -0.2261
      9  O5'       16.3440   53.5410  -19.1360 O.3   898  ADP898     -0.3111
     10  C5'       15.5240   54.6680  -19.5260 C.3   898  ADP898      0.1813
     11  C4'       15.6620   55.8080  -18.4940 C.3   898  ADP898      0.1821
     12  O4'       17.0490   55.9770  -18.1000 O.3   898  ADP898     -0.3135
     13  C3'       15.2540   57.1550  -19.1000 C.3   898  ADP898      0.2184
     14  O3'       14.6280   58.0640  -18.1830 O.3   898  ADP898     -0.2174
     15  C2'       16.5650   57.7220  -19.5550 C.3   898  ADP898      0.2570
     16  O2'       16.5740   59.1170  -19.8330 O.3   898  ADP898     -0.2130
     17  C1'       17.4290   57.3290  -18.4100 C.3   898  ADP898      0.3186
     18  N9        18.8450   57.4980  -18.8100 N.pl3 898  ADP898     -0.1439
     19  C8        19.4340   56.8780  -19.8300 C.3   898  ADP898      0.3377
     20  N7        20.7020   57.2820  -19.9040 N.2   898  ADP898     -0.2095
     21  C5        20.9270   58.1510  -18.9540 C.2   898  ADP898      0.2526
     22  C6        22.0140   58.9030  -18.5410 C.2   898  ADP898      0.4393
     23  N6        23.1780   58.8240  -19.1990 N.pl3 898  ADP898      0.2180
     24  N1        21.8970   59.7270  -17.4760 N.2   898  ADP898      0.0021
     25  C2        20.7390   59.8340  -16.8020 C.3   898  ADP898      0.5254
     26  N3        19.6790   59.1230  -17.1890 N.2   898  ADP898     -0.0055
     27  C4        19.7250   58.2850  -18.2370 C.2   898  ADP898      0.3518
@<TRIPOS>BOND
     1     3     1    2
     2     2     1    1
     3     6     5    2
     4     1     4    1
     5     1     8    1
     6     8     5    1
     7     5     7    1
     8     5     9    1
     9    20    19    1
    10    20    21    2
    11    16    15    1
    12    19    18    1
    13    15    13    1
    14    15    17    1
    15    10     9    1
    16    10    11    1
    17    23    22    1
    18    13    11    1
    19    13    14    1
    20    21    22    1
    21    21    27    1
    22    18    17    1
    23    18    27    1
    24    22    24    2
    25    11    12    1
    26    17    12    1
    27    27    26    2
    28    24    25    1
    29    26    25    1
