@<TRIPOS>MOLECULE
1a6g_HEM_A_1.pdb
 43 50 0 0 0
SMALL
GASTEIGER

@<TRIPOS>ATOM
      1 FE         14.6330   27.8000    4.7420 Fe    154  HEM154      0.0000
      2  CHA       15.9820   30.8760    5.0350 C.2   154  HEM154      0.0000
      3  CHB       13.8590   27.7970    8.0820 C.2   154  HEM154      0.0000
      4  CHC       13.3330   24.6990    4.4610 C.2   154  HEM154      0.0000
      5  CHD       15.4570   27.7720    1.4690 C.2   154  HEM154      0.0000
      6  NA        14.8990   29.0680    6.2630 N.2   154  HEM154      0.0000
      7  C1A       15.4220   30.3250    6.1880 C.2   154  HEM154      0.0000
      8  C2A       15.3660   30.9610    7.4890 C.2   154  HEM154      0.0000
      9  C3A       14.8090   30.0500    8.3370 C.2   154  HEM154      0.0000
     10  C4A       14.5060   28.9480    7.5970 C.2   154  HEM154      0.0000
     11  CMA       14.4920   30.2660    9.8390 C.3   154  HEM154      0.0000
     12  CAA       15.7400   32.4090    7.8220 C.3   154  HEM154      0.0000
     13  CBA       14.4790   33.2950    8.0210 C.3   154  HEM154      0.0000
     14  CGA       13.5980   33.3170    6.8140 C.2   154  HEM154      0.0000
     15  O1A       12.4220   32.8790    6.9000 O.co2 154  HEM154      0.0000
     16  O2A       14.0820   33.7650    5.7400 O.co2 154  HEM154      0.0000
     17  NB        13.7540   26.4740    5.9810 N.ar  154  HEM154      0.0000
     18  C1B       13.5210   26.6420    7.3790 C.ar  154  HEM154      0.0000
     19  C2B       12.8760   25.4920    7.9030 C.ar  154  HEM154      0.0000
     20  C3B       12.7320   24.6430    6.9000 C.ar  154  HEM154      0.0000
     21  C4B       13.2860   25.2560    5.6940 C.ar  154  HEM154      0.0000
     22  CMB       12.4160   25.3580    9.3560 C.3   154  HEM154      0.0000
     23  CAB       12.1920   23.2310    6.9410 C.2   154  HEM154      0.0000
     24  CBB       12.2980   22.3830    7.9240 C.2   154  HEM154      0.0000
     25  NC        14.3970   26.5460    3.2820 N.2   154  HEM154      0.0000
     26  C1C       13.9050   25.1940    3.2890 C.2   154  HEM154      0.0000
     27  C2C       14.0880   24.5030    2.0630 C.2   154  HEM154      0.0000
     28  C3C       14.7000   25.3770    1.2200 C.2   154  HEM154      0.0000
     29  C4C       14.9020   26.6340    1.9460 C.2   154  HEM154      0.0000
     30  CMC       13.6640   23.0540    1.7950 C.3   154  HEM154      0.0000
     31  CAC       15.2470   25.1560   -0.1670 C.2   154  HEM154      0.0000
     32  CBC       15.1550   24.0770   -0.8880 C.2   154  HEM154      0.0000
     33  ND        15.4640   29.0840    3.4810 N.ar  154  HEM154      0.0000
     34  C1D       15.7380   28.9250    2.1390 C.ar  154  HEM154      0.0000
     35  C2D       16.4520   30.0690    1.6090 C.ar  154  HEM154      0.0000
     36  C3D       16.6380   30.8980    2.6290 C.ar  154  HEM154      0.0000
     37  C4D       16.0150   30.3110    3.7620 C.ar  154  HEM154      0.0000
     38  CMD       16.9240   30.1780    0.1620 C.3   154  HEM154      0.0000
     39  CAD       17.4700   32.1860    2.6520 C.3   154  HEM154      0.0000
     40  CBD       18.9650   31.8960    2.9780 C.3   154  HEM154      0.0000
     41  CGD       19.8900   33.0450    2.8290 C.2   154  HEM154      0.0000
     42  O1D       20.2240   33.3710    1.6610 O.co2 154  HEM154      0.0000
     43  O2D       20.2690   33.5730    3.9480 O.co2 154  HEM154      0.0000
@<TRIPOS>BOND
     1    32    31    2
     2    31    28    1
     3    38    35    1
     4    28    29    1
     5    28    27    2
     6     5    29    1
     7     5    34    2
     8    35    34   ar
     9    35    36   ar
    10    42    41   ar
    11    30    27    1
    12    29    25    2
    13    27    26    1
    14    34    33   ar
    15    36    39    1
    16    36    37   ar
    17    39    40    1
    18    41    40    1
    19    41    43   ar
    20    25    26    1
    21    25     1    1
    22    26     4    2
    23    33    37   ar
    24    33     1    1
    25    37     2    2
    26     4    21    1
    27     1    17    1
    28     1     6    1
    29     2     7    1
    30    21    17   ar
    31    21    20   ar
    32    16    14   ar
    33    17    18   ar
    34     7     6    2
    35     7     8    1
    36     6    10    1
    37    14    15   ar
    38    14    13    1
    39    20    23    1
    40    20    19   ar
    41    23    24    2
    42    18    19   ar
    43    18     3    1
    44     8    12    1
    45     8     9    2
    46    10     3    2
    47    10     9    1
    48    12    13    1
    49    19    22    1
    50     9    11    1
