@<TRIPOS>MOLECULE
1a6k_HEM_A_1.pdb
 43 50 0 0 0
SMALL
GASTEIGER

@<TRIPOS>ATOM
      1 FE         14.5940   27.9680    4.7200 Fe    154  HEM154      0.0000
      2  CHA       15.9660   31.0900    4.9960 C.2   154  HEM154      0.0000
      3  CHB       13.9150   27.9360    8.0790 C.2   154  HEM154      0.0000
      4  CHC       13.4160   24.7570    4.5070 C.2   154  HEM154      0.0000
      5  CHD       15.4910   27.8670    1.4650 C.2   154  HEM154      0.0000
      6  NA        14.9460   29.2020    6.2800 N.2   154  HEM154      0.0000
      7  C1A       15.4490   30.5230    6.1830 C.2   154  HEM154      0.0000
      8  C2A       15.3630   31.1570    7.4540 C.2   154  HEM154      0.0000
      9  C3A       14.8200   30.2560    8.3530 C.2   154  HEM154      0.0000
     10  C4A       14.5340   29.1000    7.5820 C.2   154  HEM154      0.0000
     11  CMA       14.5550   30.3980    9.8340 C.3   154  HEM154      0.0000
     12  CAA       15.7640   32.6030    7.7550 C.3   154  HEM154      0.0000
     13  CBA       14.5070   33.4760    7.9660 C.3   154  HEM154      0.0000
     14  CGA       13.6200   33.5100    6.7040 C.2   154  HEM154      0.0000
     15  O1A       12.4660   33.0680    6.8320 O.co2 154  HEM154      0.0000
     16  O2A       14.1350   33.9520    5.6400 O.co2 154  HEM154      0.0000
     17  NB        13.8560   26.5950    6.0460 N.ar  154  HEM154      0.0000
     18  C1B       13.5800   26.7850    7.3940 C.ar  154  HEM154      0.0000
     19  C2B       12.9430   25.6360    7.9420 C.ar  154  HEM154      0.0000
     20  C3B       12.7960   24.7150    6.9660 C.ar  154  HEM154      0.0000
     21  C4B       13.3340   25.3340    5.7350 C.ar  154  HEM154      0.0000
     22  CMB       12.5080   25.5250    9.4030 C.3   154  HEM154      0.0000
     23  CAB       12.2520   23.3210    7.0200 C.2   154  HEM154      0.0000
     24  CBB       12.4070   22.5430    8.0690 C.2   154  HEM154      0.0000
     25  NC        14.4000   26.5980    3.2350 N.2   154  HEM154      0.0000
     26  C1C       13.9450   25.2840    3.3200 C.2   154  HEM154      0.0000
     27  C2C       14.1460   24.5890    2.1100 C.2   154  HEM154      0.0000
     28  C3C       14.7500   25.4640    1.2550 C.2   154  HEM154      0.0000
     29  C4C       14.9440   26.6990    1.9570 C.2   154  HEM154      0.0000
     30  CMC       13.7880   23.1370    1.8530 C.3   154  HEM154      0.0000
     31  CAC       15.3470   25.2370   -0.0990 C.2   154  HEM154      0.0000
     32  CBC       15.1810   24.2050   -0.8710 C.2   154  HEM154      0.0000
     33  ND        15.5200   29.2510    3.4470 N.ar  154  HEM154      0.0000
     34  C1D       15.7450   29.0180    2.1230 C.ar  154  HEM154      0.0000
     35  C2D       16.4820   30.1930    1.6050 C.ar  154  HEM154      0.0000
     36  C3D       16.6320   31.0550    2.5610 C.ar  154  HEM154      0.0000
     37  C4D       16.0170   30.5320    3.7510 C.ar  154  HEM154      0.0000
     38  CMD       16.9540   30.2980    0.1270 C.3   154  HEM154      0.0000
     39  CAD       17.4530   32.3550    2.5350 C.3   154  HEM154      0.0000
     40  CBD       18.9510   32.0590    2.7870 C.3   154  HEM154      0.0000
     41  CGD       19.8370   33.2510    2.6990 C.2   154  HEM154      0.0000
     42  O1D       20.2410   33.6170    1.5850 O.co2 154  HEM154      0.0000
     43  O2D       20.2700   33.7700    3.7220 O.co2 154  HEM154      0.0000
@<TRIPOS>BOND
     1    32    31    2
     2    31    28    1
     3    38    35    1
     4    28    29    1
     5    28    27    2
     6     5    29    1
     7     5    34    2
     8    42    41   ar
     9    35    34   ar
    10    35    36   ar
    11    30    27    1
    12    29    25    2
    13    27    26    1
    14    34    33   ar
    15    39    36    1
    16    39    40    1
    17    36    37   ar
    18    41    40    1
    19    41    43   ar
    20    25    26    1
    21    25     1    1
    22    26     4    2
    23    33    37   ar
    24    33     1    1
    25    37     2    2
    26     4    21    1
    27     1    17    1
    28     1     6    1
    29     2     7    1
    30    16    14   ar
    31    21    17   ar
    32    21    20   ar
    33    17    18   ar
    34     7     6    2
    35     7     8    1
    36     6    10    1
    37    14    15   ar
    38    14    13    1
    39    20    23    1
    40    20    19   ar
    41    23    24    2
    42    18    19   ar
    43    18     3    1
    44     8    12    1
    45     8     9    2
    46    10     3    2
    47    10     9    1
    48    12    13    1
    49    19    22    1
    50     9    11    1
