@<TRIPOS>MOLECULE
1a6m_HEM_A_1.pdb
 43 50 0 0 0
SMALL
GASTEIGER

@<TRIPOS>ATOM
      1 FE         14.5150   27.9750    4.7500 Fe    154  HEM154      0.0000
      2  CHA       15.9040   31.0660    5.0500 C.2   154  HEM154      0.0000
      3  CHB       13.7820   28.0060    8.0990 C.2   154  HEM154      0.0000
      4  CHC       13.2510   24.8170    4.5090 C.2   154  HEM154      0.0000
      5  CHD       15.3810   27.9080    1.4990 C.2   154  HEM154      0.0000
      6  NA        14.7840   29.2630    6.2570 N.2   154  HEM154      0.0000
      7  C1A       15.3200   30.5270    6.1850 C.2   154  HEM154      0.0000
      8  C2A       15.2920   31.1770    7.5000 C.2   154  HEM154      0.0000
      9  C3A       14.7440   30.2640    8.3550 C.2   154  HEM154      0.0000
     10  C4A       14.4110   29.1120    7.5930 C.2   154  HEM154      0.0000
     11  CMA       14.4770   30.4280    9.8350 C.3   154  HEM154      0.0000
     12  CAA       15.6870   32.5830    7.7570 C.3   154  HEM154      0.0000
     13  CBA       14.4580   33.5240    7.9760 C.3   154  HEM154      0.0000
     14  CGA       13.5610   33.5340    6.7750 C.2   154  HEM154      0.0000
     15  O1A       12.4000   33.1040    6.8420 O.co2 154  HEM154      0.0000
     16  O2A       14.0500   33.9750    5.6830 O.co2 154  HEM154      0.0000
     17  NB        13.6640   26.6790    6.0090 N.ar  154  HEM154      0.0000
     18  C1B       13.4230   26.8790    7.3680 C.ar  154  HEM154      0.0000
     19  C2B       12.7760   25.6800    7.9280 C.ar  154  HEM154      0.0000
     20  C3B       12.6440   24.8000    6.9380 C.ar  154  HEM154      0.0000
     21  C4B       13.1850   25.4340    5.7600 C.ar  154  HEM154      0.0000
     22  CMB       12.3640   25.5640    9.3670 C.3   154  HEM154      0.0000
     23  CAB       12.1010   23.3930    6.9890 C.2   154  HEM154      0.0000
     24  CBB       12.2950   22.5860    8.0170 C.2   154  HEM154      0.0000
     25  NC        14.3110   26.6440    3.2670 N.2   154  HEM154      0.0000
     26  C1C       13.8340   25.3440    3.3650 C.2   154  HEM154      0.0000
     27  C2C       14.0500   24.6290    2.1340 C.2   154  HEM154      0.0000
     28  C3C       14.6710   25.4930    1.3160 C.2   154  HEM154      0.0000
     29  C4C       14.8050   26.7520    2.0180 C.2   154  HEM154      0.0000
     30  CMC       13.6860   23.1930    1.9080 C.3   154  HEM154      0.0000
     31  CAC       15.2400   25.2930   -0.0440 C.2   154  HEM154      0.0000
     32  CBC       15.1570   24.1990   -0.7660 C.2   154  HEM154      0.0000
     33  ND        15.3890   29.2800    3.4750 N.ar  154  HEM154      0.0000
     34  C1D       15.6820   29.0760    2.1640 C.ar  154  HEM154      0.0000
     35  C2D       16.3620   30.1950    1.6080 C.ar  154  HEM154      0.0000
     36  C3D       16.5700   31.0690    2.6460 C.ar  154  HEM154      0.0000
     37  C4D       15.9370   30.4990    3.8080 C.ar  154  HEM154      0.0000
     38  CMD       16.8720   30.3060    0.1980 C.3   154  HEM154      0.0000
     39  CAD       17.3870   32.3290    2.5870 C.3   154  HEM154      0.0000
     40  CBD       18.8890   32.0170    2.8590 C.3   154  HEM154      0.0000
     41  CGD       19.7620   33.2260    2.7470 C.2   154  HEM154      0.0000
     42  O1D       20.1860   33.6430    1.6460 O.co2 154  HEM154      0.0000
     43  O2D       20.1490   33.7490    3.8300 O.co2 154  HEM154      0.0000
@<TRIPOS>BOND
     1    32    31    2
     2    31    28    1
     3    38    35    1
     4    28    29    1
     5    28    27    2
     6     5    29    1
     7     5    34    2
     8    35    34   ar
     9    35    36   ar
    10    42    41   ar
    11    30    27    1
    12    29    25    2
    13    27    26    1
    14    34    33   ar
    15    39    36    1
    16    39    40    1
    17    36    37   ar
    18    41    40    1
    19    41    43   ar
    20    25    26    1
    21    25     1    1
    22    26     4    2
    23    33    37   ar
    24    33     1    1
    25    37     2    2
    26     4    21    1
    27     1    17    1
    28     1     6    1
    29     2     7    1
    30    16    14   ar
    31    21    17   ar
    32    21    20   ar
    33    17    18   ar
    34     7     6    2
    35     7     8    1
    36     6    10    1
    37    14    15   ar
    38    14    13    1
    39    20    23    1
    40    20    19   ar
    41    23    24    2
    42    18    19   ar
    43    18     3    1
    44     8    12    1
    45     8     9    2
    46    10     3    2
    47    10     9    1
    48    12    13    1
    49    19    22    1
    50     9    11    1
