@<TRIPOS>MOLECULE
1a6n_HEM_A_1.pdb
 43 50 0 0 0
SMALL
GASTEIGER

@<TRIPOS>ATOM
      1 FE         14.3000   27.8460    4.8970 Fe    154  HEM154      0.0000
      2  CHA       15.8500   30.8890    5.2360 C.2   154  HEM154      0.0000
      3  CHB       13.7010   27.8160    8.3010 C.2   154  HEM154      0.0000
      4  CHC       13.4030   24.5270    4.7500 C.2   154  HEM154      0.0000
      5  CHD       15.5650   27.6130    1.6840 C.2   154  HEM154      0.0000
      6  NA        14.7510   29.1400    6.5060 N.2   154  HEM154      0.0000
      7  C1A       15.2380   30.3780    6.3820 C.2   154  HEM154      0.0000
      8  C2A       15.1530   31.0280    7.7010 C.2   154  HEM154      0.0000
      9  C3A       14.6380   30.1410    8.5260 C.2   154  HEM154      0.0000
     10  C4A       14.3320   28.9620    7.7970 C.2   154  HEM154      0.0000
     11  CMA       14.3220   30.2980   10.0120 C.3   154  HEM154      0.0000
     12  CAA       15.5270   32.4770    7.9900 C.3   154  HEM154      0.0000
     13  CBA       14.2840   33.3720    8.1510 C.3   154  HEM154      0.0000
     14  CGA       13.4740   33.4600    6.8960 C.2   154  HEM154      0.0000
     15  O1A       12.2540   33.1310    6.9240 O.co2 154  HEM154      0.0000
     16  O2A       13.9830   33.8420    5.8160 O.co2 154  HEM154      0.0000
     17  NB        13.7090   26.4190    6.2790 N.ar  154  HEM154      0.0000
     18  C1B       13.4180   26.6840    7.5990 C.ar  154  HEM154      0.0000
     19  C2B       12.7690   25.4710    8.1310 C.ar  154  HEM154      0.0000
     20  C3B       12.6800   24.5600    7.1560 C.ar  154  HEM154      0.0000
     21  C4B       13.2990   25.1680    5.9920 C.ar  154  HEM154      0.0000
     22  CMB       12.2440   25.4030    9.5440 C.3   154  HEM154      0.0000
     23  CAB       12.1710   23.1590    7.2140 C.2   154  HEM154      0.0000
     24  CBB       12.3040   22.3620    8.2610 C.2   154  HEM154      0.0000
     25  NC        14.4770   26.3630    3.4960 N.2   154  HEM154      0.0000
     26  C1C       14.0420   25.0680    3.5660 C.2   154  HEM154      0.0000
     27  C2C       14.2310   24.3310    2.3200 C.2   154  HEM154      0.0000
     28  C3C       14.8900   25.2130    1.5090 C.2   154  HEM154      0.0000
     29  C4C       15.0370   26.4780    2.1630 C.2   154  HEM154      0.0000
     30  CMC       13.8550   22.8720    2.1460 C.3   154  HEM154      0.0000
     31  CAC       15.4240   24.9550    0.1250 C.2   154  HEM154      0.0000
     32  CBC       15.2840   23.8960   -0.5720 C.2   154  HEM154      0.0000
     33  ND        15.5750   29.0230    3.7790 N.ar  154  HEM154      0.0000
     34  C1D       15.8440   28.7970    2.3710 C.ar  154  HEM154      0.0000
     35  C2D       16.4910   29.9590    1.8600 C.ar  154  HEM154      0.0000
     36  C3D       16.5980   30.8570    2.8580 C.ar  154  HEM154      0.0000
     37  C4D       15.9840   30.2730    4.0030 C.ar  154  HEM154      0.0000
     38  CMD       16.9620   30.1460    0.4350 C.3   154  HEM154      0.0000
     39  CAD       17.2950   32.2400    2.7710 C.3   154  HEM154      0.0000
     40  CBD       18.8230   32.0590    3.0360 C.3   154  HEM154      0.0000
     41  CGD       19.6100   33.3300    2.8770 C.2   154  HEM154      0.0000
     42  O1D       19.8050   33.7640    1.7460 O.co2 154  HEM154      0.0000
     43  O2D       20.0080   33.8190    3.9470 O.co2 154  HEM154      0.0000
@<TRIPOS>BOND
     1    32    31    2
     2    31    28    1
     3    38    35    1
     4    28    29    1
     5    28    27    2
     6     5    29    1
     7     5    34    2
     8    42    41   ar
     9    35    34   ar
    10    35    36   ar
    11    30    27    1
    12    29    25    2
    13    27    26    1
    14    34    33   ar
    15    39    36    1
    16    39    40    1
    17    36    37   ar
    18    41    40    1
    19    41    43   ar
    20    25    26    1
    21    25     1    1
    22    26     4    2
    23    33    37   ar
    24    33     1    1
    25    37     2    2
    26     4    21    1
    27     1    17    1
    28     1     6    1
    29     2     7    1
    30    16    14   ar
    31    21    17   ar
    32    21    20   ar
    33    17    18   ar
    34     7     6    2
    35     7     8    1
    36     6    10    1
    37    14    15   ar
    38    14    13    1
    39    20    23    1
    40    20    19   ar
    41    23    24    2
    42    18    19   ar
    43    18     3    1
    44     8    12    1
    45     8     9    2
    46    10     3    2
    47    10     9    1
    48    12    13    1
    49    19    22    1
    50     9    11    1
