@<TRIPOS>MOLECULE
1a6v_NPC_H_1.pdb
 22 22 0 0 0
SMALL
GASTEIGER

@<TRIPOS>ATOM
      1  C1         7.0650   12.4710   75.2770 C.ar  430  NPC430     -0.0112
      2  C2         5.9350   12.5050   76.0610 C.ar  430  NPC430      0.0236
      3  C3         5.1240   11.3830   76.1400 C.ar  430  NPC430      0.1812
      4  N3         3.9880   11.4500   76.9580 N.pl3 430  NPC430      0.0609
      5  O3A        3.6350   12.5550   77.4290 O.2   430  NPC430     -0.1260
      6  O3B        3.3510   10.4040   77.2000 O.2   430  NPC430     -0.1260
      7  C4         5.4570   10.2170   75.4300 C.ar  430  NPC430      0.2179
      8  O4         4.6300    9.0650   75.4940 O.3   430  NPC430     -0.2848
      9  C5         6.5980   10.1840   74.6630 C.ar  430  NPC430      0.0435
     10  C6         7.4150   11.3120   74.5840 C.ar  430  NPC430     -0.0004
     11  C7         7.8990   13.6470   75.1510 C.3   430  NPC430      0.1131
     12  C8         7.9190   14.3920   73.8680 C.2   430  NPC430      0.2458
     13  O8         7.7260   13.8400   72.7670 O.2   430  NPC430     -0.2730
     14  N9         8.1530   15.6590   73.9160 N.am  430  NPC430     -0.2051
     15  C10        9.2410   16.1880   73.2030 C.3   430  NPC430      0.1152
     16  C11        8.8660   17.5530   72.6230 C.3   430  NPC430      0.0234
     17  C12        8.9920   17.5250   71.0080 C.3   430  NPC430      0.0024
     18  C13        9.1100   18.9870   70.4410 C.3   430  NPC430      0.0119
     19  C14       10.5590   19.1370   69.9130 C.3   430  NPC430      0.1141
     20  C15       11.3960   18.0380   69.6950 C.2   430  NPC430      0.3649
     21  O15       11.5460   17.0830   70.4840 O.co2 430  NPC430     -0.2457
     22  O16       12.0680   17.9900   68.6170 O.co2 430  NPC430     -0.2457
@<TRIPOS>BOND
     1    22    20   ar
     2    20    19    1
     3    20    21   ar
     4    19    18    1
     5    18    17    1
     6    17    16    1
     7    16    15    1
     8    13    12    2
     9    15    14    1
    10    12    14   am
    11    12    11    1
    12    10     9   ar
    13    10     1   ar
    14     9     7   ar
    15    11     1    1
    16     1     2   ar
    17     7     8    1
    18     7     3   ar
    19     2     3   ar
    20     3     4    1
    21     4     6    2
    22     4     5    2
