@<TRIPOS>MOLECULE
1a6w_NIP_H_1.pdb
 17 17 0 0 0
SMALL
GASTEIGER

@<TRIPOS>ATOM
      1  C1        42.7770   12.7480    2.0660 C.ar  430  NIP430     -0.0108
      2  C2        41.7910   12.7990    3.0360 C.ar  430  NIP430      0.0236
      3  C3        40.8300   11.7790    3.1200 C.ar  430  NIP430      0.1816
      4  N3        39.7900   11.9030    4.1410 N.pl3 430  NIP430      0.0609
      5  O3A       39.2870   12.9640    4.5910 O.2   430  NIP430     -0.1260
      6  O3B       39.1700   10.8370    4.4010 O.2   430  NIP430     -0.1260
      7  C4        40.9500   10.6580    2.2530 C.ar  430  NIP430      0.2232
      8  O4        40.0370    9.5900    2.3680 O.3   430  NIP430     -0.2843
      9  C5        41.9460   10.5290    1.2860 C.ar  430  NIP430      0.0703
     10  I5        42.0970    8.9160   -0.0050 I     430  NIP430     -0.0392
     11  C6        42.8420   11.6290    1.2410 C.ar  430  NIP430      0.0053
     12  C7        43.7000   13.9080    2.0540 C.3   430  NIP430      0.1132
     13  C8        43.3320   14.9140    1.0070 C.2   430  NIP430      0.2458
     14  O8        42.5280   15.8280    1.2580 O.2   430  NIP430     -0.2730
     15  N9        43.7890   14.6880   -0.1890 N.am  430  NIP430     -0.2051
     16  C10       43.3690   15.4850   -1.2760 C.3   430  NIP430      0.1152
     17  C11       43.2040   14.7350   -2.6060 C.3   430  NIP430      0.0252
@<TRIPOS>BOND
     1    17    16    1
     2    16    15    1
     3    15    13   am
     4    10     9    1
     5    13    14    2
     6    13    12    1
     7    11     9   ar
     8    11     1   ar
     9     9     7   ar
    10    12     1    1
    11     1     2   ar
    12     7     8    1
    13     7     3   ar
    14     2     3   ar
    15     3     4    1
    16     4     6    2
    17     4     5    2
