@<TRIPOS>MOLECULE
1a71_NAD_A_1.pdb
 44 48 0 0 0
SMALL
GASTEIGER

@<TRIPOS>ATOM
      1  PA         0.8470  -17.3050   18.1280 P.3   403  NAD403      0.2189
      2  O1A        0.6850  -18.4710   19.0020 O.3   403  NAD403     -0.4371
      3  O2A        1.8290  -16.3080   18.5500 O.2   403  NAD403     -0.5170
      4  O5B        1.1670  -17.7420   16.6180 O.3   403  NAD403     -0.3112
      5  C5B        1.8020  -16.8620   15.6780 C.3   403  NAD403      0.1813
      6  C4B        2.6580  -17.8320   14.9150 C.3   403  NAD403      0.1821
      7  O4B        3.1250  -17.2580   13.7160 O.3   403  NAD403     -0.3135
      8  C3B        3.8720  -18.4070   15.6620 C.3   403  NAD403      0.2184
      9  O3B        4.0130  -19.8390   15.5550 O.3   403  NAD403     -0.2174
     10  C2B        5.0560  -17.7110   15.0380 C.3   403  NAD403      0.2570
     11  O2B        6.2340  -18.5410   15.0690 O.3   403  NAD403     -0.2130
     12  C1B        4.5320  -17.5060   13.6430 C.3   403  NAD403      0.3186
     13  N9A        5.2320  -16.4730   12.8780 N.pl3 403  NAD403     -0.1439
     14  C8A        5.6900  -15.2760   13.3180 C.3   403  NAD403      0.3377
     15  N7A        6.2690  -14.5880   12.3220 N.2   403  NAD403     -0.2095
     16  C5A        6.1320  -15.4150   11.2810 C.2   403  NAD403      0.2526
     17  C6A        6.5920  -15.1570   10.0070 C.2   403  NAD403      0.4393
     18  N6A        7.1900  -14.0060    9.6930 N.pl3 403  NAD403      0.2180
     19  N1A        6.4030  -16.1600    9.1350 N.2   403  NAD403      0.0021
     20  C2A        5.8260  -17.3330    9.4160 C.3   403  NAD403      0.5254
     21  N3A        5.3900  -17.5630   10.6480 N.2   403  NAD403     -0.0055
     22  C4A        5.5170  -16.6070   11.5890 C.2   403  NAD403      0.3518
     23  O3        -0.5810  -16.6510   17.8680 O.3   403  NAD403     -0.2703
     24  PN        -2.1010  -17.1460   17.8740 P.3   403  NAD403      0.2189
     25  O1N       -2.6530  -17.0850   19.2490 O.3   403  NAD403     -0.4371
     26  O2N       -2.3940  -18.3070   17.0040 O.2   403  NAD403     -0.5170
     27  O5D       -2.7200  -15.8630   17.1490 O.3   403  NAD403     -0.3112
     28  C5D       -2.0200  -15.4290   15.9740 C.3   403  NAD403      0.1813
     29  C4D       -2.5650  -14.1190   15.4550 C.3   403  NAD403      0.1799
     30  O4D       -3.9610  -14.1790   15.1780 O.3   403  NAD403     -0.3327
     31  C3D       -2.3720  -12.9800   16.4150 C.3   403  NAD403      0.2158
     32  O3D       -2.0620  -11.8210   15.6590 O.3   403  NAD403     -0.2175
     33  C2D       -3.7330  -12.8500   17.0790 C.3   403  NAD403      0.2309
     34  O2D       -3.9340  -11.5270   17.5960 O.3   403  NAD403     -0.2158
     35  C1D       -4.6250  -13.1340   15.9020 C.3   403  NAD403      0.2263
     36  N1N       -6.0090  -13.5000   16.2520 N.pl3 403  NAD403     -0.2787
     37  C2N       -7.0960  -12.8760   15.6060 C.3   403  NAD403      0.1244
     38  C3N       -8.4060  -13.2270   15.9310 C.2   403  NAD403      0.0544
     39  C7N       -9.6590  -12.6830   15.2180 C.2   403  NAD403      0.2818
     40  O7N      -10.7650  -12.8050   15.7200 O.2   403  NAD403     -0.2670
     41  N7N       -9.5110  -12.1660   14.0000 N.am  403  NAD403     -0.0839
     42  C4N       -8.5710  -14.1990   16.9100 C.2   403  NAD403      0.0033
     43  C5N       -7.5100  -14.8520   17.5290 C.2   403  NAD403      0.0157
     44  C6N       -6.2090  -14.5000   17.2160 C.2   403  NAD403      0.0633
@<TRIPOS>BOND
     1    19    20    1
     2    19    17    2
     3    20    21    1
     4    18    17    1
     5    17    16    1
     6    21    22    2
     7    16    22    1
     8    16    15    2
     9    22    13    1
    10    15    14    1
    11    13    14    1
    12    13    12    1
    13    12     7    1
    14    12    10    1
    15     7     6    1
    16    41    39   am
    17     6     8    1
    18     6     5    1
    19    10    11    1
    20    10     8    1
    21    30    29    1
    22    30    35    1
    23    39    40    2
    24    39    38    1
    25    29    28    1
    26    29    31    1
    27     9     8    1
    28    37    38    1
    29    37    36    1
    30    32    31    1
    31     5     4    1
    32    35    36    1
    33    35    33    1
    34    38    42    2
    35    28    27    1
    36    36    44    1
    37    31    33    1
    38     4     1    1
    39    42    43    1
    40    26    24    2
    41    33    34    1
    42    27    24    1
    43    44    43    2
    44    23    24    1
    45    23     1    1
    46    24    25    1
    47     1     3    2
    48     1     2    1
