@<TRIPOS>MOLECULE
1a72_PAD_A_1.pdb
 44 48 0 0 0
SMALL
GASTEIGER

@<TRIPOS>ATOM
      1  PA        13.2850    7.2780   26.7100 P.3   378  PAD378      0.2189
      2  O1A       12.0920    6.3560   26.7570 O.3   378  PAD378     -0.4371
      3  O2A       14.4270    6.8800   25.8240 O.2   378  PAD378     -0.5170
      4  O5B       13.9730    7.5990   28.1590 O.3   378  PAD378     -0.3112
      5  C5B       13.7980    6.7580   29.3210 C.3   378  PAD378      0.1813
      6  C4B       15.1430    6.9470   30.0160 C.3   378  PAD378      0.1821
      7  O4B       15.1220    6.4420   31.3810 O.3   378  PAD378     -0.3135
      8  C3B       16.2720    6.2820   29.2220 C.3   378  PAD378      0.2184
      9  O3B       17.4740    7.0600   29.2630 O.3   378  PAD378     -0.2174
     10  C2B       16.5430    5.0720   30.0730 C.3   378  PAD378      0.2570
     11  O2B       17.9510    4.8030   29.9970 O.3   378  PAD378     -0.2130
     12  C1B       16.2200    5.5450   31.4750 C.3   378  PAD378      0.3186
     13  N9A       15.9800    4.4660   32.4390 N.pl3 378  PAD378     -0.1439
     14  C8A       15.4240    3.2520   32.2220 C.3   378  PAD378      0.3377
     15  N7A       15.3140    2.5900   33.3770 N.2   378  PAD378     -0.2095
     16  C5A       15.8120    3.4370   34.2820 C.2   378  PAD378      0.2526
     17  C6A       15.8920    3.1780   35.6390 C.2   378  PAD378      0.4393
     18  N6A       15.6700    1.9730   36.1240 N.pl3 378  PAD378      0.2180
     19  N1A       16.4230    4.1580   36.3790 N.2   378  PAD378      0.0021
     20  C2A       16.8470    5.2990   35.8180 C.3   378  PAD378      0.5254
     21  N3A       16.7910    5.5520   34.5130 N.2   378  PAD378     -0.0055
     22  C4A       16.2520    4.6150   33.7220 C.2   378  PAD378      0.3518
     23  O3        12.9150    8.8450   26.4980 O.3   378  PAD378     -0.2703
     24  PN        11.6550    9.7330   27.0310 P.3   378  PAD378      0.2189
     25  O1N       11.3500   10.8240   26.0430 O.2   378  PAD378     -0.5170
     26  O2N       12.0340   10.2310   28.4060 O.3   378  PAD378     -0.4371
     27  O5D       10.5620    8.5170   27.0310 O.3   378  PAD378     -0.3112
     28  C5D       10.4860    7.8810   28.3280 C.3   378  PAD378      0.1812
     29  C4D        9.2990    8.3790   29.1030 C.3   378  PAD378      0.1785
     30  O4D        9.1670    9.8020   29.2630 O.3   378  PAD378     -0.3437
     31  C3D        8.1920    7.8510   28.2500 C.3   378  PAD378      0.2144
     32  O3D        8.1690    6.4290   28.3390 O.3   378  PAD378     -0.2176
     33  C2D        7.0300    8.6550   28.7890 C.3   378  PAD378      0.2183
     34  O2D        6.5220    7.9370   29.9210 O.3   378  PAD378     -0.2172
     35  C1D        7.7380    9.9510   29.1560 C.3   378  PAD378      0.1996
     36  C1N        7.5860   10.7680   27.9400 C.2   378  PAD378      0.1380
     37  N2N        8.2940   10.4270   26.7620 N.2   378  PAD378     -0.4030
     38  C3N        8.2110   11.2490   25.6340 C.2   378  PAD378      0.1692
     39  C7N        8.9190   10.8770   24.3280 C.2   378  PAD378      0.3100
     40  O7N        9.2240   11.8070   23.5760 O.2   378  PAD378     -0.2642
     41  N7N        9.1650    9.5750   24.0750 N.am  378  PAD378     -0.0817
     42  C4N        7.4620   12.4230   25.6790 C.3   378  PAD378      0.0899
     43  C5N        6.7520   12.7410   26.8530 C.2   378  PAD378     -0.0161
     44  C6N        6.8060   11.9150   27.9760 C.2   378  PAD378      0.0259
@<TRIPOS>BOND
     1    40    39    2
     2    41    39   am
     3    39    38    1
     4    38    42    1
     5    38    37    2
     6    42    43    1
     7     3     1    2
     8    25    24    2
     9    23     1    1
    10    23    24    1
    11     1     2    1
    12     1     4    1
    13    37    36    2
    14    43    44    2
    15    27    24    1
    16    27    28    1
    17    24    26    1
    18    36    44    1
    19    36    35    1
    20     4     5    1
    21    31    32    1
    22    31    33    1
    23    31    29    1
    24    28    29    1
    25    33    35    1
    26    33    34    1
    27    29    30    1
    28    35    30    1
    29     8     9    1
    30     8     6    1
    31     8    10    1
    32     5     6    1
    33    11    10    1
    34     6     7    1
    35    10    12    1
    36     7    12    1
    37    12    13    1
    38    14    13    1
    39    14    15    1
    40    13    22    1
    41    15    16    2
    42    22    16    1
    43    22    21    2
    44    16    17    1
    45    21    20    1
    46    17    18    1
    47    17    19    2
    48    20    19    1
