@<TRIPOS>MOLECULE
1a78_TDG_A_1.pdb
 23 24 0 0 0
SMALL
GASTEIGER

@<TRIPOS>ATOM
      1  C1         9.5680   -4.3850   29.5840 C.3   135  TDG135      0.1976
      2  S1         9.9250   -3.5210   31.1370 S.3   135  TDG135     -0.0782
      3  C2         9.2830   -3.2850   28.5930 C.3   135  TDG135      0.2220
      4  O2         8.0620   -2.6610   28.9200 O.3   135  TDG135     -0.2167
      5  C3         9.2030   -3.8560   27.1910 C.3   135  TDG135      0.2181
      6  O3         8.9630   -2.8080   26.2710 O.3   135  TDG135     -0.2175
      7  C4        10.5240   -4.5000   26.8730 C.3   135  TDG135      0.2143
      8  O4        11.5340   -3.5050   26.8560 O.3   135  TDG135     -0.2176
      9  C5        10.8300   -5.5690   27.9220 C.3   135  TDG135      0.1820
     10  O5        10.7960   -5.0300   29.2570 O.3   135  TDG135     -0.3397
     11  C6        12.1960   -6.1780   27.7430 C.3   135  TDG135      0.2142
     12  O6        12.2670   -7.4070   28.4490 O.3   135  TDG135     -0.2176
     13  C1'       10.2800   -4.9800   32.1760 C.3   135  TDG135      0.1976
     14  C2'       11.5680   -4.7390   32.9830 C.3   135  TDG135      0.2220
     15  O2'       12.6420   -4.3940   32.1260 O.3   135  TDG135     -0.2167
     16  C3'       11.9430   -5.9920   33.7830 C.3   135  TDG135      0.2181
     17  O3'       13.0680   -5.7100   34.6010 O.3   135  TDG135     -0.2175
     18  C4'       10.7570   -6.4330   34.6520 C.3   135  TDG135      0.2143
     19  O4'       10.4370   -5.4210   35.6020 O.3   135  TDG135     -0.2176
     20  C5'        9.5520   -6.6500   33.7620 C.3   135  TDG135      0.1820
     21  O5'        9.2280   -5.4090   33.0690 O.3   135  TDG135     -0.3397
     22  C6'        8.3580   -7.0380   34.6000 C.3   135  TDG135      0.2142
     23  O6'        7.1640   -6.9220   33.8590 O.3   135  TDG135     -0.2176
@<TRIPOS>BOND
     1     6     5    1
     2     8     7    1
     3     7     5    1
     4     7     9    1
     5     5     3    1
     6    11     9    1
     7    11    12    1
     8     9    10    1
     9     3     4    1
    10     3     1    1
    11    10     1    1
    12     1     2    1
    13     2    13    1
    14    15    14    1
    15    13    14    1
    16    13    21    1
    17    14    16    1
    18    21    20    1
    19    20    22    1
    20    20    18    1
    21    16    17    1
    22    16    18    1
    23    23    22    1
    24    18    19    1
