@<TRIPOS>MOLECULE
1a7a_ADC_A_1.pdb
 17 19 0 0 0
SMALL
GASTEIGER

@<TRIPOS>ATOM
      1  C5'       19.4510   59.0770   54.6750 C.3   435  ADC435      0.0576
      2  C4'       18.7920   59.8810   53.7830 C.3   435  ADC435      0.0716
      3  C3'       19.7460   60.5350   52.8600 C.2   435  ADC435      0.1849
      4  O3'       19.4860   61.1900   51.8740 O.2   435  ADC435     -0.2933
      5  C2'       21.0140   59.7020   52.9880 C.3   435  ADC435      0.2507
      6  O2'       22.1180   60.5690   52.7760 O.3   435  ADC435     -0.2108
      7  C1'       20.9470   59.1140   54.4550 C.3   435  ADC435      0.1998
      8  N9        21.8080   58.0380   54.9610 N.pl3 435  ADC435     -0.1686
      9  C8        21.8870   56.7410   54.5250 C.3   435  ADC435      0.3358
     10  N7        22.7950   56.0480   55.1580 N.2   435  ADC435     -0.2096
     11  C5        23.3710   56.9050   56.0830 C.2   435  ADC435      0.2525
     12  C6        24.4020   56.7760   57.0540 C.2   435  ADC435      0.4393
     13  N6        25.0780   55.6140   57.2480 N.pl3 435  ADC435      0.2180
     14  N1        24.6890   57.8910   57.7950 N.2   435  ADC435      0.0021
     15  C2        24.0250   59.0400   57.6030 C.3   435  ADC435      0.5254
     16  N3        23.0330   59.2990   56.7180 N.2   435  ADC435     -0.0055
     17  C4        22.7310   58.1820   55.9590 C.2   435  ADC435      0.3500
@<TRIPOS>BOND
     1     4     3    2
     2     6     5    1
     3     3     5    1
     4     3     2    1
     5     5     7    1
     6     2     1    1
     7     7     1    1
     8     7     8    1
     9     9     8    1
    10     9    10    1
    11     8    17    1
    12    10    11    2
    13    17    11    1
    14    17    16    2
    15    11    12    1
    16    16    15    1
    17    12    13    1
    18    12    14    2
    19    15    14    1
