@<TRIPOS>MOLECULE
1a7a_NAD_A_1.pdb
 44 48 0 0 0
SMALL
GASTEIGER

@<TRIPOS>ATOM
      1  PA        12.4200   60.9240   43.1950 P.3   433  NAD433      0.2189
      2  O1A       13.4600   60.0510   42.6060 O.2   433  NAD433     -0.5170
      3  O2A       12.3900   62.4540   43.3560 O.3   433  NAD433     -0.4371
      4  O5B       11.5290   60.1150   44.2470 O.3   433  NAD433     -0.3112
      5  C5B       10.1520   59.5170   44.0520 C.3   433  NAD433      0.1813
      6  C4B        9.8380   58.9860   42.7290 C.3   433  NAD433      0.1821
      7  O4B        8.5530   58.3010   42.8680 O.3   433  NAD433     -0.3135
      8  C3B        9.6080   59.9980   41.5560 C.3   433  NAD433      0.2184
      9  O3B       10.3580   59.5110   40.3900 O.3   433  NAD433     -0.2174
     10  C2B        8.1250   60.0820   41.2870 C.3   433  NAD433      0.2570
     11  O2B        7.7130   60.2730   39.9980 O.3   433  NAD433     -0.2130
     12  C1B        7.6360   58.7730   41.9720 C.3   433  NAD433      0.3186
     13  N9A        6.4100   58.9350   42.7170 N.pl3 433  NAD433     -0.1439
     14  C8A        5.9180   60.0010   43.4450 C.3   433  NAD433      0.3377
     15  N7A        4.7380   59.8110   44.0080 N.2   433  NAD433     -0.2095
     16  C5A        4.3700   58.5320   43.6650 C.2   433  NAD433      0.2526
     17  C6A        3.1220   57.7140   44.0060 C.2   433  NAD433      0.4393
     18  N6A        2.1090   58.1160   44.7330 N.pl3 433  NAD433      0.2180
     19  N1A        3.1410   56.4110   43.4400 N.2   433  NAD433      0.0021
     20  C2A        4.1110   55.8940   42.6880 C.3   433  NAD433      0.5254
     21  N3A        5.2920   56.6370   42.3540 N.2   433  NAD433     -0.0055
     22  C4A        5.3830   57.9710   42.8700 C.2   433  NAD433      0.3518
     23  O3        13.4020   61.0410   44.4980 O.3   433  NAD433     -0.2703
     24  PN        14.6460   60.2000   45.2570 P.3   433  NAD433      0.2189
     25  O1N       14.9950   58.9560   44.6670 O.2   433  NAD433     -0.5170
     26  O2N       14.9610   60.7010   46.6340 O.3   433  NAD433     -0.4371
     27  O5D       13.5890   59.3190   46.1430 O.3   433  NAD433     -0.3112
     28  C5D       12.5290   59.8480   47.0170 C.3   433  NAD433      0.1813
     29  C4D       12.5910   59.5900   48.4980 C.3   433  NAD433      0.1799
     30  O4D       13.8110   58.8040   48.9480 O.3   433  NAD433     -0.3327
     31  C3D       12.6330   60.8200   49.5110 C.3   433  NAD433      0.2158
     32  O3D       11.7850   60.4440   50.5220 O.3   433  NAD433     -0.2175
     33  C2D       14.1030   60.9330   49.9410 C.3   433  NAD433      0.2309
     34  O2D       14.2500   61.6740   51.1050 O.3   433  NAD433     -0.2158
     35  C1D       14.3870   59.4590   50.0730 C.3   433  NAD433      0.2263
     36  N1N       15.8470   59.0430   50.2110 N.pl3 433  NAD433     -0.2787
     37  C2N       16.1750   58.0080   51.1380 C.3   433  NAD433      0.1244
     38  C3N       17.5240   57.7000   51.1850 C.2   433  NAD433      0.0544
     39  C7N       17.8010   56.5160   52.2610 C.2   433  NAD433      0.2818
     40  O7N       18.9750   56.1440   52.4090 O.2   433  NAD433     -0.2670
     41  N7N       16.7050   55.9840   52.9640 N.am  433  NAD433     -0.0839
     42  C4N       18.5370   58.2240   50.3240 C.2   433  NAD433      0.0033
     43  C5N       18.0860   59.3550   49.5140 C.2   433  NAD433      0.0157
     44  C6N       16.7410   59.7240   49.4050 C.2   433  NAD433      0.0633
@<TRIPOS>BOND
     1    11    10    1
     2     9     8    1
     3    10     8    1
     4    10    12    1
     5     8     6    1
     6    12    13    1
     7    12     7    1
     8    21    20    1
     9    21    22    2
    10     2     1    2
    11    20    19    1
    12    13    22    1
    13    13    14    1
    14     6     7    1
    15     6     5    1
    16    22    16    1
    17     1     3    1
    18     1     4    1
    19     1    23    1
    20    19    17    2
    21    14    15    1
    22    16    17    1
    23    16    15    2
    24    17    18    1
    25     5     4    1
    26    23    24    1
    27    25    24    2
    28    24    27    1
    29    24    26    1
    30    27    28    1
    31    28    29    1
    32    29    30    1
    33    29    31    1
    34    30    35    1
    35    44    43    2
    36    44    36    1
    37    31    33    1
    38    31    32    1
    39    43    42    1
    40    33    35    1
    41    33    34    1
    42    35    36    1
    43    36    37    1
    44    42    38    2
    45    37    38    1
    46    38    39    1
    47    39    40    2
    48    39    41   am
