@<TRIPOS>MOLECULE
1a7c_III_B_1.pdb
 35 34 0 0 0
SMALL
GASTEIGER

@<TRIPOS>ATOM
      1  C         14.4260   15.7480   36.4300 C.2   900  ACE900      0.2423
      2  O         15.0440   14.6940   36.2740 O.2   900  ACE900     -0.2733
      3  CH3       13.8150   16.1030   37.7720 C.3   900  ACE900      0.0964
      4  N         14.2550   16.6390   35.4590 N.am  901  THR901     -0.1951
      5  CA        14.7900   16.4270   34.1170 C.3   901  THR901      0.2028
      6  C         15.1480   17.7410   33.4290 C.2   901  THR901      0.2642
      7  O         14.3930   18.7120   33.4740 O.2   901  THR901     -0.2714
      8  CB        13.7780   15.6640   33.2120 C.3   901  THR901      0.1808
      9  OG1       13.5330   14.3620   33.7530 O.3   901  THR901     -0.2208
     10  CG2       14.3070   15.5180   31.7870 C.3   901  THR901      0.0379
     11  N         16.3290   17.7710   32.8300 N.am  902  VAL902     -0.1963
     12  CA        16.7890   18.9330   32.0810 C.3   902  VAL902      0.1727
     13  C         17.2030   18.3710   30.7160 C.2   902  VAL902      0.2616
     14  O         17.9530   17.3900   30.6420 O.2   902  VAL902     -0.2715
     15  CB        18.0020   19.6300   32.7540 C.3   902  VAL902      0.0290
     16  CG1       18.4020   20.8580   31.9540 C.3   902  VAL902      0.0023
     17  CG2       17.6630   20.0300   34.1820 C.3   902  VAL902      0.0023
     18  N         16.6760   18.9530   29.6430 N.am  903  ALA903     -0.1963
     19  CA        16.9950   18.4800   28.2990 C.3   903  ALA903      0.1728
     20  C         17.0540   19.6180   27.2990 C.2   903  ALA903      0.2617
     21  O         16.3630   20.6210   27.4440 O.2   903  ALA903     -0.2715
     22  CB        15.9760   17.4380   27.8500 C.3   903  ALA903      0.0334
     23  N         17.8950   19.4520   26.2860 N.am  904  SER904     -0.1936
     24  CA        18.0680   20.4520   25.2390 C.3   904  SER904      0.2055
     25  C         18.4160   19.7720   23.9420 C.2   904  SER904      0.2644
     26  O         19.0550   18.7210   23.9320 O.2   904  SER904     -0.2714
     27  CB        19.1930   21.4320   25.5810 C.3   904  SER904      0.2130
     28  OG        18.7800   22.3780   26.5470 O.3   904  SER904     -0.2179
     29  N         18.0130   20.4050   22.8500 N.am  905  SER905     -0.1934
     30  CA        18.2730   19.9110   21.5100 C.3   905  SER905      0.2071
     31  C         18.7370   21.0760   20.6440 C.2   905  SER905      0.2832
     32  O         18.2710   22.2100   20.9000 O.2   905  SER905     -0.2697
     33  CB        17.0030   19.3060   20.9230 C.3   905  SER905      0.2130
     34  OG        17.2350   18.8930   19.5940 O.3   905  SER905     -0.2179
     35  N         19.8440   21.0390   19.9190 N.am  906  NH2906     -0.0862
@<TRIPOS>BOND
     1    34    33    1
     2    35    31   am
     3    31    32    2
     4    31    30    1
     5    33    30    1
     6    30    29    1
     7    29    25   am
     8    26    25    2
     9    25    24    1
    10    24    27    1
    11    24    23    1
    12    27    28    1
    13    23    20   am
    14    20    21    2
    15    20    19    1
    16    22    19    1
    17    19    18    1
    18    18    13   am
    19    14    13    2
    20    13    12    1
    21    10     8    1
    22    16    15    1
    23    12    15    1
    24    12    11    1
    25    15    17    1
    26    11     6   am
    27     8     9    1
    28     8     5    1
    29     6     7    2
    30     6     5    1
    31     5     4    1
    32     4     1   am
    33     2     1    2
    34     1     3    1
