@<TRIPOS>MOLECULE
1a7k_NAD_A_1.pdb
 44 48 0 0 0
SMALL
GASTEIGER

@<TRIPOS>ATOM
      1  PA        58.7750  -58.2010  152.2600 P.3   363  NAD363      0.2189
      2  O1A       57.6340  -58.2540  151.3200 O.2   363  NAD363     -0.5170
      3  O2A       59.0160  -56.8560  152.9110 O.3   363  NAD363     -0.4371
      4  O5B       60.1080  -58.7890  151.5520 O.3   363  NAD363     -0.3112
      5  C5B       59.9980  -59.3830  150.2510 C.3   363  NAD363      0.1813
      6  C4B       60.8560  -58.5750  149.2820 C.3   363  NAD363      0.1821
      7  O4B       61.3200  -59.4880  148.2750 O.3   363  NAD363     -0.3135
      8  C3B       60.2430  -57.4260  148.4730 C.3   363  NAD363      0.2184
      9  O3B       61.1860  -56.3360  148.4530 O.3   363  NAD363     -0.2174
     10  C2B       60.1670  -57.9700  147.0540 C.3   363  NAD363      0.2570
     11  O2B       60.3700  -57.0470  146.0030 O.3   363  NAD363     -0.2130
     12  C1B       61.3940  -58.7660  147.0560 C.3   363  NAD363      0.3186
     13  N9A       61.3490  -59.7030  145.9900 N.pl3 363  NAD363     -0.1439
     14  C8A       60.2800  -60.3760  145.5460 C.3   363  NAD363      0.3377
     15  N7A       60.6590  -61.1370  144.5120 N.2   363  NAD363     -0.2095
     16  C5A       61.9670  -60.9050  144.3570 C.2   363  NAD363      0.2526
     17  C6A       62.8200  -61.4440  143.3780 C.2   363  NAD363      0.4393
     18  N6A       62.4220  -62.2680  142.4100 N.pl3 363  NAD363      0.2180
     19  N1A       64.1150  -61.0680  143.4470 N.2   363  NAD363      0.0021
     20  C2A       64.5380  -60.2270  144.4020 C.3   363  NAD363      0.5254
     21  N3A       63.7140  -59.6720  145.2960 N.2   363  NAD363     -0.0055
     22  C4A       62.4170  -60.0030  145.2900 C.2   363  NAD363      0.3518
     23  O3        58.5220  -59.4620  153.2370 O.3   363  NAD363     -0.2703
     24  PN        59.1060  -60.0640  154.5930 P.3   363  NAD363      0.2189
     25  O1N       58.0030  -60.0220  155.5640 O.3   363  NAD363     -0.4371
     26  O2N       60.4090  -59.4140  154.8080 O.2   363  NAD363     -0.5170
     27  O5D       59.4410  -61.5930  154.3210 O.3   363  NAD363     -0.3112
     28  C5D       60.7310  -62.0830  153.9920 C.3   363  NAD363      0.1813
     29  C4D       60.4550  -63.5540  154.2200 C.3   363  NAD363      0.1799
     30  O4D       60.6380  -63.7530  155.6170 O.3   363  NAD363     -0.3327
     31  C3D       59.0590  -64.1230  153.9810 C.3   363  NAD363      0.2158
     32  O3D       59.1650  -65.4530  153.4710 O.3   363  NAD363     -0.2175
     33  C2D       58.4170  -64.2250  155.3500 C.3   363  NAD363      0.2309
     34  O2D       57.4850  -65.2850  155.5130 O.3   363  NAD363     -0.2158
     35  C1D       59.5960  -64.5140  156.1860 C.3   363  NAD363      0.2263
     36  N1N       59.4700  -63.9320  157.5160 N.pl3 363  NAD363     -0.2787
     37  C2N       58.9150  -62.6630  157.7180 C.3   363  NAD363      0.1244
     38  C3N       58.7420  -62.2130  159.0160 C.2   363  NAD363      0.0544
     39  C7N       57.9970  -60.9440  159.3250 C.2   363  NAD363      0.2818
     40  O7N       57.0930  -61.0210  160.1420 O.2   363  NAD363     -0.2670
     41  N7N       58.3700  -59.8440  158.6870 N.am  363  NAD363     -0.0839
     42  C4N       59.2260  -62.9520  160.0900 C.2   363  NAD363      0.0033
     43  C5N       59.7740  -64.2250  159.9000 C.2   363  NAD363      0.0157
     44  C6N       59.8790  -64.7200  158.5990 C.2   363  NAD363      0.0633
@<TRIPOS>BOND
     1    18    17    1
     2    17    19    2
     3    17    16    1
     4    19    20    1
     5    16    15    2
     6    16    22    1
     7    20    21    1
     8    15    14    1
     9    22    21    2
    10    22    13    1
    11    14    13    1
    12    13    12    1
    13    11    10    1
    14    10    12    1
    15    10     8    1
    16    12     7    1
    17     7     6    1
    18     9     8    1
    19     8     6    1
    20     6     5    1
    21     5     4    1
    22     2     1    2
    23     4     1    1
    24     1     3    1
    25     1    23    1
    26    23    24    1
    27    32    31    1
    28    31    29    1
    29    31    33    1
    30    28    29    1
    31    28    27    1
    32    29    30    1
    33    27    24    1
    34    24    26    2
    35    24    25    1
    36    33    34    1
    37    33    35    1
    38    30    35    1
    39    35    36    1
    40    36    37    1
    41    36    44    1
    42    37    38    1
    43    44    43    2
    44    41    39   am
    45    38    39    1
    46    38    42    2
    47    39    40    2
    48    43    42    1
