@<TRIPOS>MOLECULE
1a7l_MAL_A_1.pdb
 23 24 0 0 0
SMALL
GASTEIGER

@<TRIPOS>ATOM
      1  C1        14.0860   -0.8150   16.2730 C.3   400  MAL400      0.2695
      2  C2        15.0840   -1.9170   15.9720 C.3   400  MAL400      0.2406
      3  C3        16.1340   -1.3980   14.9930 C.3   400  MAL400      0.2198
      4  C4        15.4290   -0.9470   13.6780 C.3   400  MAL400      0.2144
      5  C5        14.2500    0.0470   13.9650 C.3   400  MAL400      0.1835
      6  C6        13.3770    0.1840   12.7180 C.3   400  MAL400      0.2142
      7  O1        14.7680    0.2850   16.8250 O.3   400  MAL400     -0.3257
      8  O2        15.6640   -2.3980   17.1610 O.3   400  MAL400     -0.2149
      9  O3        17.1060   -2.4240   14.7140 O.3   400  MAL400     -0.2174
     10  O4        16.3760   -0.3340   12.8040 O.3   400  MAL400     -0.2176
     11  O5        13.3970   -0.4280   15.0570 O.3   400  MAL400     -0.3256
     12  O6        12.6790    1.4080   12.7300 O.3   400  MAL400     -0.2176
     13  C1'       14.6190    2.4420   20.3180 C.3   400  MAL400      0.3023
     14  C2'       14.4050    0.9500   20.5210 C.3   400  MAL400      0.2433
     15  C3'       14.8260    0.1880   19.2640 C.3   400  MAL400      0.2168
     16  C4'       14.1570    0.7980   18.0070 C.3   400  MAL400      0.1804
     17  C5'       14.2710    2.3180   17.9770 C.3   400  MAL400      0.1804
     18  C6'       13.3960    2.8930   16.8730 C.3   400  MAL400      0.2141
     19  O1'       14.2190    3.1500   21.4760 O.3   400  MAL400     -0.1869
     20  O2'       15.1470    0.5010   21.6510 O.3   400  MAL400     -0.2148
     21  O3'       14.4730   -1.1810   19.4050 O.3   400  MAL400     -0.2175
     22  O5'       13.8450    2.8620   19.2130 O.3   400  MAL400     -0.3237
     23  O6'       13.7680    4.2250   16.6180 O.3   400  MAL400     -0.2176
@<TRIPOS>BOND
     1     6    12    1
     2     6     5    1
     3    10     4    1
     4     4     5    1
     5     4     3    1
     6     5    11    1
     7     9     3    1
     8     3     2    1
     9    11     1    1
    10     2     1    1
    11     2     8    1
    12     1     7    1
    13    23    18    1
    14     7    16    1
    15    18    17    1
    16    17    16    1
    17    17    22    1
    18    16    15    1
    19    22    13    1
    20    15    21    1
    21    15    14    1
    22    13    14    1
    23    13    19    1
    24    14    20    1
