@<TRIPOS>MOLECULE
1a7t_MES_A_1.pdb
 12 12 0 0 0
SMALL
GASTEIGER

@<TRIPOS>ATOM
      1  O1        34.6940   41.1480   37.8690 O.3   250  MES250     -0.3508
      2  C2        35.8530   41.8280   37.4730 C.3   250  MES250      0.1595
      3  C3        35.4420   43.0960   36.6730 C.3   250  MES250      0.1047
      4  N4        34.5530   42.7110   35.5840 N.3   250  MES250     -0.2670
      5  C5        33.4300   41.8790   35.9390 C.3   250  MES250      0.1047
      6  C6        33.9060   40.6910   36.7700 C.3   250  MES250      0.1595
      7  C7        34.2210   43.7160   34.6110 C.3   250  MES250      0.0940
      8  C8        35.4540   44.3360   34.0050 C.3   250  MES250      0.1225
      9  S         35.5370   44.3750   32.2200 S.3   250  MES250     -0.1946
     10  O1S       35.9610   43.0850   31.7370 O.3   250  MES250     -0.3074
     11  O2S       34.3420   44.7290   31.5700 O.3   250  MES250     -0.3074
     12  O3S       36.4920   45.3840   31.8870 O.3   250  MES250     -0.3074
@<TRIPOS>BOND
     1    11     9    1
     2    10     9    1
     3    12     9    1
     4     9     8    1
     5     8     7    1
     6     7     4    1
     7     4     5    1
     8     4     3    1
     9     5     6    1
    10     3     2    1
    11     6     1    1
    12     2     1    1
