@<TRIPOS>MOLECULE
1a7v_HEM_A_1.pdb
 43 50 0 0 0
SMALL
GASTEIGER

@<TRIPOS>ATOM
      1 FE         32.9960   24.6110    2.5520 Fe    150  HEM150      0.0000
      2  CHA       36.4020   24.7500    2.3390 C.2   150  HEM150      0.0000
      3  CHB       33.2800   22.5730    5.2360 C.2   150  HEM150      0.0000
      4  CHC       29.7570   25.1810    3.3720 C.2   150  HEM150      0.0000
      5  CHD       32.8430   27.2060    0.3520 C.2   150  HEM150      0.0000
      6  NA        34.5540   23.7580    3.5500 N.2   150  HEM150      0.0000
      7  C1A       35.8670   23.8970    3.3220 C.2   150  HEM150      0.0000
      8  C2A       36.6280   23.1150    4.1770 C.2   150  HEM150      0.0000
      9  C3A       35.7210   22.4770    4.9940 C.2   150  HEM150      0.0000
     10  C4A       34.4810   22.9330    4.6010 C.2   150  HEM150      0.0000
     11  CMA       36.0200   21.4730    6.0860 C.3   150  HEM150      0.0000
     12  CAA       38.1360   22.9820    4.2210 C.3   150  HEM150      0.0000
     13  CBA       38.7650   23.9140    5.2390 C.3   150  HEM150      0.0000
     14  CGA       40.2270   23.5990    5.4910 C.2   150  HEM150      0.0000
     15  O1A       40.5410   23.1080    6.5940 O.co2 150  HEM150      0.0000
     16  O2A       41.0640   23.8280    4.5940 O.co2 150  HEM150      0.0000
     17  NB        31.7240   23.9070    3.9590 N.ar  150  HEM150      0.0000
     18  C1B       31.9860   23.0180    4.9250 C.ar  150  HEM150      0.0000
     19  C2B       30.8410   22.5750    5.5580 C.ar  150  HEM150      0.0000
     20  C3B       29.8220   23.3350    4.9940 C.ar  150  HEM150      0.0000
     21  C4B       30.4250   24.1730    4.0870 C.ar  150  HEM150      0.0000
     22  CMB       30.7390   21.4180    6.5430 C.3   150  HEM150      0.0000
     23  CAB       28.4580   23.3270    5.3050 C.3   150  HEM150      0.0000
     24  CBB       27.9110   22.7150    6.5020 C.3   150  HEM150      0.0000
     25  NC        31.5620   25.9610    1.9760 N.2   150  HEM150      0.0000
     26  C1C       30.2860   26.0140    2.3780 C.2   150  HEM150      0.0000
     27  C2C       29.5480   26.9540    1.6770 C.2   150  HEM150      0.0000
     28  C3C       30.4520   27.4880    0.7640 C.2   150  HEM150      0.0000
     29  C4C       31.6560   26.8840    1.0160 C.2   150  HEM150      0.0000
     30  CMC       28.0720   27.2640    1.8550 C.3   150  HEM150      0.0000
     31  CAC       30.2460   28.4740   -0.2030 C.3   150  HEM150      0.0000
     32  CBC       29.0220   29.2370   -0.3420 C.3   150  HEM150      0.0000
     33  ND        34.3660   25.7240    1.4750 N.ar  150  HEM150      0.0000
     34  C1D       34.1160   26.6740    0.5770 C.ar  150  HEM150      0.0000
     35  C2D       35.2530   27.0710   -0.0980 C.ar  150  HEM150      0.0000
     36  C3D       36.2950   26.4420    0.5500 C.ar  150  HEM150      0.0000
     37  C4D       35.6970   25.6110    1.4800 C.ar  150  HEM150      0.0000
     38  CMD       35.3300   27.9700   -1.3230 C.3   150  HEM150      0.0000
     39  CAD       37.7760   26.6250    0.2980 C.3   150  HEM150      0.0000
     40  CBD       38.4290   27.5770    1.2960 C.3   150  HEM150      0.0000
     41  CGD       39.8670   27.9090    0.9390 C.2   150  HEM150      0.0000
     42  O1D       40.6870   26.9860    0.8040 O.co2 150  HEM150      0.0000
     43  O2D       40.1830   29.1020    0.7780 O.co2 150  HEM150      0.0000
@<TRIPOS>BOND
     1    38    35    1
     2    32    31    1
     3    31    28    1
     4    35    36   ar
     5    35    34   ar
     6    39    36    1
     7    39    40    1
     8     5    34    2
     9     5    29    1
    10    36    37   ar
    11    34    33   ar
    12    28    29    1
    13    28    27    2
    14    43    41   ar
    15    42    41   ar
    16    41    40    1
    17    29    25    2
    18    33    37   ar
    19    33     1    1
    20    37     2    2
    21    27    30    1
    22    27    26    1
    23    25    26    1
    24    25     1    1
    25     2     7    1
    26    26     4    2
    27     1     6    1
    28     1    17    1
    29     7     6    2
    30     7     8    1
    31     4    21    1
    32     6    10    1
    33    17    21   ar
    34    17    18   ar
    35    21    20   ar
    36     8    12    1
    37     8     9    2
    38    12    13    1
    39    16    14   ar
    40    10     9    1
    41    10     3    2
    42    18     3    1
    43    18    19   ar
    44    20    23    1
    45    20    19   ar
    46     9    11    1
    47    13    14    1
    48    23    24    1
    49    14    15   ar
    50    19    22    1
