@<TRIPOS>MOLECULE
1a80_NDP_A_1.pdb
 48 52 0 0 0
SMALL
GASTEIGER

@<TRIPOS>ATOM
      1  PA        11.5770   -1.5380   14.3260 P.3   300  NDP300      0.2189
      2  O1A       11.1300   -2.9520   14.3830 O.3   300  NDP300     -0.4371
      3  O2A       10.5660   -0.5450   13.8290 O.2   300  NDP300     -0.5170
      4  O5B       12.8200   -1.5180   13.4770 O.3   300  NDP300     -0.3112
      5  C5B       13.7070   -0.3960   13.2060 C.3   300  NDP300      0.1813
      6  C4B       14.9140   -0.8630   12.3750 C.3   300  NDP300      0.1820
      7  O4B       14.5130   -1.3250   11.0660 O.3   300  NDP300     -0.3136
      8  C3B       15.9830    0.1780   12.1140 C.3   300  NDP300      0.2157
      9  O3B       17.2470   -0.4500   12.0740 O.3   300  NDP300     -0.2175
     10  C2B       15.6210    0.7400   10.7390 C.3   300  NDP300      0.2314
     11  O2B       16.7860    1.0890   10.0370 O.3   300  NDP300     -0.2630
     12  C1B       14.9800   -0.4430   10.0460 C.3   300  NDP300      0.3158
     13  N9A       13.8360   -0.0530    9.2350 N.pl3 300  NDP300     -0.1439
     14  C8A       12.6870    0.6780    9.2360 C.3   300  NDP300      0.3377
     15  N7A       11.9830    0.5860    8.1370 N.2   300  NDP300     -0.2095
     16  C5A       12.7260   -0.2710    7.3590 C.2   300  NDP300      0.2526
     17  C6A       12.5380   -0.7650    6.0560 C.2   300  NDP300      0.4393
     18  N6A       11.4860   -0.4500    5.2840 N.pl3 300  NDP300      0.2180
     19  N1A       13.4840   -1.5970    5.5750 N.2   300  NDP300      0.0021
     20  C2A       14.5380   -1.9090    6.3430 C.3   300  NDP300      0.5254
     21  N3A       14.8300   -1.4930    7.5720 N.2   300  NDP300     -0.0055
     22  C4A       13.8800   -0.6610    8.0190 C.2   300  NDP300      0.3518
     23  O3        12.1710   -1.5010   15.7360 O.3   300  NDP300     -0.2703
     24  PN        11.9540   -0.3230   16.8890 P.3   300  NDP300      0.2189
     25  O1N       12.5890   -0.8940   18.1240 O.3   300  NDP300     -0.4371
     26  O2N       12.3580    1.0630   16.5320 O.2   300  NDP300     -0.5170
     27  O5D       10.4660   -0.3510   17.0890 O.3   300  NDP300     -0.3112
     28  C5D        9.6560    0.7460   16.6760 C.3   300  NDP300      0.1813
     29  C4D        9.3320    1.7420   17.7960 C.3   300  NDP300      0.1799
     30  O4D        8.4680    1.1710   18.8240 O.3   300  NDP300     -0.3327
     31  C3D       10.4840    2.3500   18.5720 C.3   300  NDP300      0.2158
     32  O3D       11.1150    3.3520   17.7990 O.3   300  NDP300     -0.2175
     33  C2D        9.7060    2.9650   19.7330 C.3   300  NDP300      0.2309
     34  O2D        9.0340    4.1460   19.3690 O.3   300  NDP300     -0.2158
     35  C1D        8.6920    1.8680   20.0390 C.3   300  NDP300      0.2263
     36  N1N        9.2350    0.9230   20.9860 N.pl3 300  NDP300     -0.2787
     37  C2N        8.5420    0.8240   22.1460 C.3   300  NDP300      0.1244
     38  C3N        9.0060    0.0700   23.2070 C.2   300  NDP300      0.0544
     39  C7N        8.2390   -0.0750   24.5050 C.2   300  NDP300      0.2818
     40  O7N        8.6610   -0.8670   25.3290 O.2   300  NDP300     -0.2670
     41  N7N        7.1390    0.6720   24.6420 N.am  300  NDP300     -0.0839
     42  C4N       10.2260   -0.6050   23.1090 C.2   300  NDP300      0.0033
     43  C5N       10.9640   -0.4930   21.9080 C.2   300  NDP300      0.0157
     44  C6N       10.4230    0.2930   20.8770 C.2   300  NDP300      0.0633
     45  P2B       17.0280    2.4930    9.6360 P.3   300  NDP300      0.5328
     46  O1X       16.3860    2.7530    8.3180 O.2   300  NDP300     -0.2224
     47  O2X       18.4920    2.7120    9.5990 O.3   300  NDP300     -0.1145
     48  O3X       16.5040    3.4320   10.6530 O.3   300  NDP300     -0.1145
@<TRIPOS>BOND
     1    18    17    1
     2    19    17    2
     3    19    20    1
     4    17    16    1
     5    20    21    1
     6    16    22    1
     7    16    15    2
     8    21    22    2
     9    22    13    1
    10    15    14    1
    11    46    45    2
    12    13    14    1
    13    13    12    1
    14    47    45    1
    15    45    11    1
    16    45    48    1
    17    11    10    1
    18    12    10    1
    19    12     7    1
    20    10     8    1
    21     7     6    1
    22     9     8    1
    23     8     6    1
    24     6     5    1
    25     5     4    1
    26     4     1    1
    27     3     1    2
    28     1     2    1
    29     1    23    1
    30    23    24    1
    31    26    24    2
    32    28    27    1
    33    28    29    1
    34    24    27    1
    35    24    25    1
    36    29    31    1
    37    29    30    1
    38    32    31    1
    39    31    33    1
    40    30    35    1
    41    34    33    1
    42    33    35    1
    43    35    36    1
    44    44    36    1
    45    44    43    2
    46    36    37    1
    47    43    42    1
    48    37    38    1
    49    42    38    2
    50    38    39    1
    51    39    41   am
    52    39    40    2
