@<TRIPOS>MOLECULE
1a82_ATP_A_1.pdb
 31 33 0 0 0
SMALL
GASTEIGER

@<TRIPOS>ATOM
      1  PG         0.9420   23.6410   11.9560 P.3   802  ATP802      0.5373
      2  O1G        0.1280   22.4940   12.4680 O.3   802  ATP802     -0.1143
      3  O2G        0.2940   24.7100   11.0960 O.2   802  ATP802     -0.2221
      4  O3G        1.4740   24.5220   13.2150 O.3   802  ATP802     -0.1143
      5  PB         3.8280   23.3340   11.0820 P.3   802  ATP802      0.2277
      6  O1B        4.2210   23.5890   12.4890 O.3   802  ATP802     -0.4368
      7  O2B        4.0300   24.3840   10.0530 O.2   802  ATP802     -0.5168
      8  O3B        2.2660   22.9600   11.1240 O.3   802  ATP802     -0.2258
      9  PA         5.5620   20.9650   11.5270 P.3   802  ATP802      0.2189
     10  O1A        6.8590   21.5230   12.0240 O.2   802  ATP802     -0.5170
     11  O2A        4.6420   20.3010   12.4700 O.3   802  ATP802     -0.4371
     12  O3A        4.7500   22.1020   10.6880 O.3   802  ATP802     -0.2700
     13  O5'        5.9450   19.9860   10.2930 O.3   802  ATP802     -0.3112
     14  C5'        4.8920   19.2790    9.6020 C.3   802  ATP802      0.1813
     15  C4'        5.2490   17.8000    9.4470 C.3   802  ATP802      0.1821
     16  O4'        6.4190   17.6040    8.6150 O.3   802  ATP802     -0.3135
     17  C3'        5.5050   17.0720   10.7720 C.3   802  ATP802      0.2184
     18  O3'        5.0390   15.7070   10.7880 O.3   802  ATP802     -0.2174
     19  C2'        7.0220   17.1190   10.8770 C.3   802  ATP802      0.2570
     20  O2'        7.5200   16.0690   11.7260 O.3   802  ATP802     -0.2130
     21  C1'        7.4400   16.9990    9.4170 C.3   802  ATP802      0.3186
     22  N9         8.6950   17.7710    9.1960 N.pl3 802  ATP802     -0.1439
     23  C8         8.8320   19.0820    9.3890 C.3   802  ATP802      0.3377
     24  N7        10.0890   19.4270    9.1150 N.2   802  ATP802     -0.2095
     25  C5        10.7620   18.3410    8.7530 C.2   802  ATP802      0.2526
     26  C6        12.0740   18.1020    8.3730 C.2   802  ATP802      0.4393
     27  N6        12.9780   19.0700    8.3200 N.pl3 802  ATP802      0.2180
     28  N1        12.4160   16.8450    8.0610 N.2   802  ATP802      0.0021
     29  C2        11.5280   15.8390    8.1060 C.3   802  ATP802      0.5254
     30  N3        10.2680   16.0490    8.4680 N.2   802  ATP802     -0.0055
     31  C4         9.8710   17.2840    8.7940 C.2   802  ATP802      0.3518
@<TRIPOS>BOND
     1    28    29    1
     2    28    26    2
     3    29    30    1
     4    27    26    1
     5    26    25    1
     6    30    31    2
     7    16    21    1
     8    16    15    1
     9    25    31    1
    10    25    24    2
    11    31    22    1
    12    24    23    1
    13    22    23    1
    14    22    21    1
    15    21    19    1
    16    15    14    1
    17    15    17    1
    18    14    13    1
    19     7     5    2
    20    13     9    1
    21    12     5    1
    22    12     9    1
    23    17    18    1
    24    17    19    1
    25    19    20    1
    26     5     8    1
    27     5     6    1
    28     3     1    2
    29     8     1    1
    30     9    10    2
    31     9    11    1
    32     1     2    1
    33     1     4    1
