@<TRIPOS>MOLECULE
1a82_DNN_A_1.pdb
 13 12 0 0 0
SMALL
GASTEIGER

@<TRIPOS>ATOM
      1  C1        -6.5030   28.3430    6.9480 C.2   801  DNN801      0.3649
      2  O1        -5.7950   29.2060    6.4050 O.co2 801  DNN801     -0.2457
      3  O2        -7.3710   27.6910    6.3290 O.co2 801  DNN801     -0.2457
      4  C2        -6.2890   28.0930    8.4330 C.3   801  DNN801      0.1141
      5  C3        -5.6430   26.7380    8.7240 C.3   801  DNN801      0.0118
      6  C4        -5.0590   26.6730   10.1360 C.3   801  DNN801      0.0006
      7  C5        -4.6310   25.2650   10.4670 C.3   801  DNN801      0.0015
      8  C6        -3.6500   25.1570   11.6540 C.3   801  DNN801      0.0205
      9  C7        -3.8450   23.8830   12.4870 C.3   801  DNN801      0.1093
     10  C8        -3.7890   22.6320   11.5990 C.3   801  DNN801      0.1094
     11  C9        -4.9650   21.7660   11.9350 C.3   801  DNN801      0.0220
     12  N7        -2.9290   23.8170   13.6680 N.3   801  DNN801     -0.1314
     13  N8        -2.5110   21.8520   11.7340 N.3   801  DNN801     -0.1314
@<TRIPOS>BOND
     1     3     1   ar
     2     2     1   ar
     3     1     4    1
     4     4     5    1
     5     5     6    1
     6     6     7    1
     7     7     8    1
     8    10    13    1
     9    10    11    1
    10    10     9    1
    11     8     9    1
    12     9    12    1
