@<TRIPOS>MOLECULE
1a85_0DY_A_1.pdb
 36 36 0 0 0
SMALL
GASTEIGER

@<TRIPOS>ATOM
      1  N         25.6970   59.9730   53.9180 N.am    1  0DY1       -0.1966
      2  OH        24.7240   58.9940   54.0170 O.3     1  0DY1       -0.2952
      3  C1        26.9920   59.6330   53.9010 C.2     1  0DY1        0.2526
      4  O1        27.3890   58.4410   53.9480 O.2     1  0DY1       -0.2725
      5  CA        27.9370   60.7550   53.4380 C.3     1  0DY1        0.1545
      6  CB        29.2270   60.8700   54.3090 C.3     1  0DY1        0.0184
      7  CG        30.0990   62.1060   54.1260 C.3     1  0DY1        0.0010
      8  CD1       29.7750   63.0730   55.2430 C.3     1  0DY1        0.0000
      9  CD2       31.5530   61.6930   54.1660 C.3     1  0DY1        0.0000
     10  C         28.2790   60.4970   51.9860 C.2     1  0DY1        0.2311
     11  O         27.8040   61.2060   51.0980 O.2     1  0DY1       -0.2746
     12  N1        29.0890   59.4860   51.7210 N.am    1  0DY1       -0.2976
     13  CA1       29.4430   59.2330   50.3360 C.3     1  0DY1        0.1577
     14  C2        28.3500   58.4080   49.6300 C.2     1  0DY1        0.2411
     15  O2        28.5010   58.0280   48.4590 O.2     1  0DY1       -0.2733
     16  CB1       30.7990   58.5590   50.2130 C.3     1  0DY1        0.1137
     17  CG1       31.2200   58.3710   48.7540 C.2     1  0DY1        0.2216
     18  OD1       31.5670   57.2660   48.3610 O.2     1  0DY1       -0.2753
     19  ND2       31.2300   59.4580   47.9560 N.am    1  0DY1       -0.3287
     20  N2        27.2920   58.0690   50.3740 N.am    1  0DY1       -0.2991
     21  CB2       26.1430   57.3420   49.8480 C.3     1  0DY1        0.1164
     22  CG2       26.0560   55.9240   49.3880 C.ar    1  0DY1       -0.0014
     23 CD11       26.8460   54.9160   49.9950 C.ar    1  0DY1       -0.0025
     24  CE1       26.6850   53.5720   49.6810 C.ar    1  0DY1        0.0010
     25 CD21       25.1110   55.5570   48.4270 C.ar    1  0DY1        0.0115
     26  CE2       24.9480   54.2090   48.1140 C.ar    1  0DY1        0.0413
     27  CZ        25.7300   53.2130   48.7240 C.ar    1  0DY1        0.0141
     28  NE2       23.9800   53.9090   47.2730 N.pl3   1  0DY1       -0.3570
     29  HN        25.4710   60.8730   53.5240 H       1  0DY1        0.1822
     30  HOH       23.8400   59.4830   53.9640 H       1  0DY1        0.2414
     31  H         29.4060   58.9210   52.4110 H       1  0DY1        0.1498
     32 HD24       31.5160   59.3150   47.0300 H       1  0DY1        0.1449
     33 HD25       30.9870   60.3250   48.3140 H       1  0DY1        0.1449
     34  HN1       27.2560   58.3340   51.3070 H       1  0DY1        0.1498
     35 HE21       23.4030   54.6150   46.9360 H       1  0DY1        0.1424
     36 HE22       23.8530   52.9550   47.0790 H       1  0DY1        0.1424
@<TRIPOS>BOND
     1    35    28    1
     2    32    19    1
     3    36    28    1
     4    28    26    1
     5    19    33    1
     6    19    17   am
     7    26    25   ar
     8    26    27   ar
     9    18    17    2
    10    25    22   ar
    11    15    14    2
    12    27    24   ar
    13    17    16    1
    14    22    21    1
    15    22    23   ar
    16    14    13    1
    17    14    20   am
    18    24    23   ar
    19    21    20    1
    20    16    13    1
    21    13    12    1
    22    20    34    1
    23    11    10    2
    24    12    10   am
    25    12    31    1
    26    10     5    1
    27     5     3    1
    28     5     6    1
    29    29     1    1
    30     3     1   am
    31     3     4    2
    32     1     2    1
    33    30     2    1
    34     7     9    1
    35     7     6    1
    36     7     8    1
