@<TRIPOS>MOLECULE
1a86_0ZB_A_1.pdb
 31 31 0 0 0
SMALL
GASTEIGER

@<TRIPOS>ATOM
      1  N         25.1650   59.6390   53.3200 N.am    1  0ZB1       -0.1966
      2  OH        24.3590   58.8820   54.1730 O.3     1  0ZB1       -0.2952
      3  C1        26.3830   59.3710   53.7470 C.2     1  0ZB1        0.2526
      4  O1        26.6800   58.2420   54.1830 O.2     1  0ZB1       -0.2725
      5  CA        27.4380   60.4370   53.3710 C.3     1  0ZB1        0.1545
      6  CB        28.5690   60.5180   54.4160 C.3     1  0ZB1        0.0184
      7  CG        28.4070   61.4390   55.6420 C.3     1  0ZB1        0.0010
      8  CD1       28.4010   62.8960   55.2200 C.3     1  0ZB1        0.0000
      9  CD2       27.1420   61.1310   56.4160 C.3     1  0ZB1        0.0000
     10  C         28.0190   60.3780   51.9550 C.2     1  0ZB1        0.2311
     11  O         27.9030   61.3360   51.1850 O.2     1  0ZB1       -0.2746
     12  N1        28.6190   59.2480   51.6030 N.am    1  0ZB1       -0.2975
     13  CA1       29.1740   59.0960   50.2690 C.3     1  0ZB1        0.1599
     14  C2        28.2140   58.2700   49.4040 C.2     1  0ZB1        0.2412
     15  O2        28.5730   57.8160   48.3120 O.2     1  0ZB1       -0.2733
     16  CB1       30.5550   58.4370   50.3320 C.3     1  0ZB1        0.1429
     17  CG1       31.3150   58.5460   49.0250 C.2     1  0ZB1        0.3671
     18  OD1       31.8390   59.6400   48.7240 O.co2   1  0ZB1       -0.2456
     19  OD2       31.3890   57.5330   48.3020 O.co2   1  0ZB1       -0.2456
     20  N2        26.9940   58.0710   49.9020 N.am    1  0ZB1       -0.2991
     21  C3        25.9380   57.3280   49.2210 C.3     1  0ZB1        0.1164
     22  C11       25.9320   55.8400   48.9830 C.ar    1  0ZB1       -0.0026
     23  C21       25.1160   55.2830   47.9870 C.ar    1  0ZB1       -0.0026
     24  C31       25.0800   53.9040   47.7880 C.ar    1  0ZB1       -0.0003
     25  C4        25.8610   53.0490   48.5820 C.ar    1  0ZB1       -0.0000
     26  C5        26.6820   53.5940   49.5770 C.ar    1  0ZB1       -0.0003
     27  C6        26.7100   54.9850   49.7690 C.ar    1  0ZB1       -0.0026
     28  HN        24.9720   60.5970   53.1180 H       1  0ZB1        0.1822
     29  HOH       23.7930   59.5310   54.6500 H       1  0ZB1        0.2414
     30  H         28.7710   58.5060   52.2260 H       1  0ZB1        0.1498
     31  HN2       26.7910   58.4900   50.7510 H       1  0ZB1        0.1498
@<TRIPOS>BOND
     1    24    23   ar
     2    24    25   ar
     3    23    22   ar
     4    19    17   ar
     5    15    14    2
     6    25    26   ar
     7    18    17   ar
     8    22    21    1
     9    22    27   ar
    10    17    16    1
    11    21    20    1
    12    14    20   am
    13    14    13    1
    14    26    27   ar
    15    20    31    1
    16    13    16    1
    17    13    12    1
    18    11    10    2
    19    12    10   am
    20    12    30    1
    21    10     5    1
    22    28     1    1
    23     1     3   am
    24     1     2    1
    25     5     3    1
    26     5     6    1
    27     3     4    2
    28     2    29    1
    29     6     7    1
    30     8     7    1
    31     7     9    1
