@<TRIPOS>MOLECULE
1a8a_GSE_A_1.pdb
 16 15 0 0 0
SMALL
GASTEIGER

@<TRIPOS>ATOM
      1  C1        20.0840   46.8980   17.5320 C.3   997  GSE997      0.1846
      2  O11       19.5010   47.8200   16.5740 O.3   997  GSE997     -0.3112
      3  O12       18.2320   48.9840   14.9880 O.3   997  GSE997     -0.3119
      4  C2        20.3180   47.7100   18.8090 C.3   997  GSE997      0.2146
      5  C3        21.6170   48.5310   18.8150 C.3   997  GSE997      0.2174
      6  O31       21.6080   49.5570   17.8220 O.3   997  GSE997     -0.2175
      7  P         18.8760   47.5900   15.2050 P.3   997  GSE997      0.2141
      8  O14       19.9070   47.3280   14.1690 O.2   997  GSE997     -0.5172
      9  O13       17.9470   46.4810   15.1340 O.3   997  GSE997     -0.4373
     10  O21       19.2140   48.6220   18.9620 O.3   997  GSE997     -0.2176
     11  C11       18.2680   49.9670   16.1250 C.3   997  GSE997      0.1796
     12  C12       18.2370   51.4770   15.7710 C.3   997  GSE997      0.2241
     13  N         17.4040   51.2900   14.6480 N.3   997  GSE997     -0.1181
     14  C13       19.5490   52.3350   15.9080 C.2   997  GSE997      0.3844
     15  O16       20.0690   53.0850   15.0620 O.co2 997  GSE997     -0.2440
     16  O15       20.1240   52.4320   16.9660 O.co2 997  GSE997     -0.2440
@<TRIPOS>BOND
     1     8     7    2
     2    13    12    1
     3     3     7    1
     4     3    11    1
     5    15    14   ar
     6     9     7    1
     7     7     2    1
     8    12    14    1
     9    12    11    1
    10    14    16   ar
    11     2     1    1
    12     1     4    1
    13     6     5    1
    14     4     5    1
    15     4    10    1
