@<TRIPOS>MOLECULE
1a8b_GPE_A_1.pdb
 13 12 0 0 0
SMALL
GASTEIGER

@<TRIPOS>ATOM
      1  P         19.4010   47.5560   15.6480 P.3   999  GPE999      0.2141
      2  O11       20.5770   47.7740   16.6620 O.3   999  GPE999     -0.3112
      3  O12       18.6880   46.1430   16.1630 O.3   999  GPE999     -0.3125
      4  O14       19.8900   47.2980   14.1300 O.2   999  GPE999     -0.5172
      5  O13       18.4900   48.7710   15.6410 O.3   999  GPE999     -0.4373
      6  C1        20.1850   47.9850   18.0700 C.3   999  GPE999      0.1846
      7  C2        20.5690   49.3750   18.6430 C.3   999  GPE999      0.2146
      8  C3        20.1270   49.1030   20.0850 C.3   999  GPE999      0.2174
      9  O31       20.5500   50.0340   21.1310 O.3   999  GPE999     -0.2175
     10  O21       22.0140   49.6210   18.5840 O.3   999  GPE999     -0.2176
     11  C11       17.8460   45.4590   15.1050 C.3   999  GPE999      0.1696
     12  C12       17.4430   43.9950   15.3890 C.3   999  GPE999      0.1417
     13  N         17.1080   43.4820   14.0420 N.3   999  GPE999     -0.1286
@<TRIPOS>BOND
     1    13    12    1
     2     4     1    2
     3    11    12    1
     4    11     3    1
     5     5     1    1
     6     1     3    1
     7     1     2    1
     8     2     6    1
     9     6     7    1
    10    10     7    1
    11     7     8    1
    12     8     9    1
