@<TRIPOS>MOLECULE
1a8i_GLS_A_1.pdb
 17 18 0 0 0
SMALL
GASTEIGER

@<TRIPOS>ATOM
      1  C1        33.9450   22.8240   27.5750 C.3   998  GLS998      0.3255
      2  C2        33.9200   23.1700   26.0400 C.3   998  GLS998      0.2483
      3  O2        33.8830   24.5890   25.9230 O.3   998  GLS998     -0.2143
      4  C3        32.6290   22.5860   25.3820 C.3   998  GLS998      0.2204
      5  O3        32.8930   22.6750   23.9970 O.3   998  GLS998     -0.2174
      6  C4        32.5680   21.1140   25.7580 C.3   998  GLS998      0.2145
      7  O4        31.4440   20.5260   25.1190 O.3   998  GLS998     -0.2176
      8  C5        32.5400   20.8780   27.2650 C.3   998  GLS998      0.1840
      9  C6        32.3740   19.4390   27.7160 C.3   998  GLS998      0.2142
     10  O6        33.4340   18.6670   27.1410 O.3   998  GLS998     -0.2176
     11  O5        33.6860   21.4360   27.8970 O.3   998  GLS998     -0.3200
     12  N2        35.2410   23.1500   28.1480 N.2   998  GLS998     -0.1323
     13  C8        35.0630   23.9880   29.1750 C.1   998  GLS998      0.3094
     14  O8        36.0200   24.4190   29.8700 O.2   998  GLS998     -0.1881
     15  N1        33.8110   24.3560   29.4310 N.2   998  GLS998     -0.2424
     16  C7        33.0600   23.6720   28.4970 C.1   998  GLS998      0.2421
     17  O7        31.8440   23.7720   28.4710 O.2   998  GLS998     -0.2089
@<TRIPOS>BOND
     1     5     4    1
     2     7     6    1
     3     4     6    1
     4     4     2    1
     5     6     8    1
     6     3     2    1
     7     2     1    1
     8    10     9    1
     9     8     9    1
    10     8    11    1
    11     1    11    1
    12     1    12    1
    13     1    16    1
    14    12    13    2
    15    17    16    2
    16    16    15    2
    17    13    15    2
    18    13    14    2
