@<TRIPOS>MOLECULE
1a8j_PME_H_1.pdb
 21 21 0 0 0
SMALL
GASTEIGER

@<TRIPOS>ATOM
      1  N1        26.4070  -27.3410   90.3410 N.3   217  PME217     -0.1225
      2  C2        26.1840  -27.0040   88.9050 C.3   217  PME217      0.1805
      3  C3        24.7580  -26.4780   88.6990 C.3   217  PME217      0.1424
      4  C4        24.0820  -27.0870   87.4870 C.2   217  PME217      0.3668
      5  O5        24.3310  -28.2790   87.2020 O.co2 217  PME217     -0.2456
      6  O6        23.3020  -26.3710   86.8200 O.co2 217  PME217     -0.2456
      7  C7        27.2010  -25.9390   88.5300 C.2   217  PME217      0.2598
      8  O8        27.2930  -25.5120   87.3720 O.2   217  PME217     -0.2718
      9  N9        27.9530  -25.5160   89.5450 N.am  217  PME217     -0.1942
     10  C10       28.9910  -24.5040   89.3830 C.3   217  PME217      0.1978
     11  C11       28.6490  -23.2280   90.1940 C.3   217  PME217      0.0594
     12  C12       28.9110  -23.3380   91.6920 C.ar  217  PME217     -0.0199
     13  C13       29.0610  -22.1790   92.4580 C.ar  217  PME217     -0.0042
     14  C14       29.3160  -22.2600   93.8190 C.ar  217  PME217     -0.0003
     15  C15       29.4280  -23.5100   94.4380 C.ar  217  PME217     -0.0000
     16  C16       29.2790  -24.6700   93.6950 C.ar  217  PME217     -0.0003
     17  C17       29.0210  -24.5810   92.3350 C.ar  217  PME217     -0.0042
     18  C18       30.3590  -25.0790   89.7920 C.2   217  PME217      0.3374
     19  O19       30.4720  -25.7840   90.8200 O.2   217  PME217     -0.2482
     20  O20       31.5570  -24.8530   88.9700 O.3   217  PME217     -0.4432
     21  C21       32.0320  -26.1590   88.5240 C.3   217  PME217      0.2557
@<TRIPOS>BOND
     1     6     4   ar
     2     5     4   ar
     3     8     7    2
     4     4     3    1
     5    21    20    1
     6     7     2    1
     7     7     9   am
     8     3     2    1
     9     2     1    1
    10    20    18    1
    11    10     9    1
    12    10    18    1
    13    10    11    1
    14    18    19    2
    15    11    12    1
    16    12    17   ar
    17    12    13   ar
    18    17    16   ar
    19    13    14   ar
    20    16    15   ar
    21    14    15   ar
