@<TRIPOS>MOLECULE
1a8r_GTP_A_1.pdb
 32 34 0 0 0
SMALL
GASTEIGER

@<TRIPOS>ATOM
      1  PG       187.5910   50.9840   48.5010 P.3   401  GTP401      0.5373
      2  O1G      188.4300   50.4330   47.4190 O.2   401  GTP401     -0.2221
      3  O2G      186.7880   49.9820   49.2980 O.3   401  GTP401     -0.1143
      4  O3G      186.6370   52.0440   47.8200 O.3   401  GTP401     -0.1143
      5  O3B      188.4310   51.9850   49.4990 O.3   401  GTP401     -0.2258
      6  PB       189.9640   52.4070   49.3320 P.3   401  GTP401      0.2277
      7  O1B      190.6740   51.1840   49.6300 O.3   401  GTP401     -0.4368
      8  O2B      190.2730   53.0520   48.0720 O.2   401  GTP401     -0.5168
      9  O3A      190.1770   53.4560   50.4610 O.3   401  GTP401     -0.2700
     10  PA       189.8540   53.2700   52.0700 P.3   401  GTP401      0.2189
     11  O1A      189.8420   51.8120   52.3870 O.2   401  GTP401     -0.5170
     12  O2A      190.4830   54.2690   52.9490 O.3   401  GTP401     -0.4371
     13  O5'      188.3370   53.7080   52.2110 O.3   401  GTP401     -0.3112
     14  C5'      187.7270   54.9450   51.7580 C.3   401  GTP401      0.1813
     15  C4'      186.3020   54.7530   52.1980 C.3   401  GTP401      0.1799
     16  O4'      185.4050   55.9150   52.4210 O.3   401  GTP401     -0.3326
     17  C3'      185.6580   53.8960   51.1500 C.3   401  GTP401      0.2158
     18  O3'      185.0740   52.7490   51.7480 O.3   401  GTP401     -0.2175
     19  C2'      184.7140   54.8220   50.4340 C.3   401  GTP401      0.2310
     20  O2'      183.6000   54.1950   49.7450 O.3   401  GTP401     -0.2158
     21  C1'      184.2730   55.6220   51.6080 C.3   401  GTP401      0.2293
     22  N9       183.5690   56.8700   51.3210 N.pl3 401  GTP401     -0.2354
     23  C8       183.6350   57.7510   50.2980 C.3   401  GTP401      0.2246
     24  N7       182.8160   58.7780   50.3750 N.2   401  GTP401     -0.2322
     25  C5       182.1510   58.5260   51.5760 C.2   401  GTP401      0.2182
     26  C6       181.1140   59.2440   52.2700 C.1   401  GTP401      0.2372
     27  O6       180.5620   60.2500   51.9680 O.2   401  GTP401     -0.2069
     28  N1       180.7260   58.6590   53.4490 N.2   401  GTP401     -0.2485
     29  C2       181.2550   57.4970   53.9440 C.1   401  GTP401      0.2531
     30  N2       180.8000   57.0470   55.1100 N.pl3 401  GTP401     -0.0226
     31  N3       182.2170   56.8130   53.3060 N.2   401  GTP401     -0.3074
     32  C4       182.6200   57.3800   52.1330 C.2   401  GTP401      0.2300
@<TRIPOS>BOND
     1     2     1    2
     2     4     1    1
     3     8     6    2
     4     1     3    1
     5     1     5    1
     6     6     5    1
     7     6     7    1
     8     6     9    1
     9    20    19    1
    10    23    24    1
    11    23    22    1
    12    24    25    2
    13    19    17    1
    14    19    21    1
    15     9    10    1
    16    17    18    1
    17    17    15    1
    18    22    21    1
    19    22    32    1
    20    25    32    1
    21    25    26    1
    22    21    16    1
    23    14    15    1
    24    14    13    1
    25    27    26    2
    26    10    13    1
    27    10    11    2
    28    10    12    1
    29    32    31    2
    30    15    16    1
    31    26    28    2
    32    31    29    2
    33    28    29    2
    34    29    30    1
