@<TRIPOS>MOLECULE
1a8t_061_A_1.pdb
 34 38 0 0 0
SMALL
GASTEIGER

@<TRIPOS>ATOM
      1  N1        10.4920   33.9750   -1.5560 N.2   250  061250     -0.0711
      2  N2         9.6690   33.6680   -0.5770 N.2   250  061250     -0.0129
      3  N3         8.4590   33.9100   -0.9930 N.2   250  061250     -0.0129
      4  N4         8.4650   34.4360   -2.2430 N.2   250  061250     -0.0711
      5  C5         9.7920   34.4220   -2.6130 C.1   250  061250      0.0806
      6  C6        10.1830   34.9240   -3.9430 C.ar  250  061250      0.0659
      7  C7         9.6640   36.1720   -4.3950 C.ar  250  061250      0.0095
      8  C8         9.9590   36.6490   -5.6660 C.ar  250  061250      0.0007
      9  C9        10.7720   35.8980   -6.5070 C.ar  250  061250      0.0000
     10  C10       11.2760   34.6670   -6.0980 C.ar  250  061250      0.0007
     11  C11       10.9840   34.1870   -4.8040 C.ar  250  061250      0.0101
     12  C12        8.7970   36.9280   -3.4570 C.ar  250  061250      0.0006
     13  C13        9.1280   38.2220   -3.0510 C.ar  250  061250     -0.0002
     14  C14        8.3400   38.8700   -2.0700 C.ar  250  061250     -0.0026
     15  C15        7.2470   38.1860   -1.5280 C.ar  250  061250     -0.0019
     16  C16        6.9400   36.8850   -1.9420 C.ar  250  061250     -0.0026
     17  C17        7.7450   36.2030   -2.8620 C.ar  250  061250     -0.0002
     18  C18        6.2950   38.7460   -0.5040 C.3   250  061250      0.1268
     19  N19        6.5650   39.9430    0.2700 N.am  250  061250     -0.2326
     20  C20        6.4490   41.1680   -0.2790 C.2   250  061250      0.1655
     21  C21        6.1310   41.3730   -1.7290 C.3   250  061250      0.0752
     22  C22        5.1110   40.5150   -2.4110 C.3   250  061250      0.0089
     23  C23        5.2210   40.5350   -3.9360 C.3   250  061250      0.0005
     24  C24        4.8280   41.9400   -4.4830 C.3   250  061250      0.0000
     25  N25        6.6440   42.2600    0.4240 N.2   250  061250     -0.3946
     26  C26        6.9420   42.2480    1.7170 C.2   250  061250      0.1228
     27  C27        7.0620   43.4360    2.4530 C.2   250  061250      0.0317
     28  C28        7.3890   43.3710    3.8120 C.2   250  061250      0.0440
     29  C29        7.5410   42.1300    4.4650 C.2   250  061250      0.1925
     30  O30        7.8420   42.1300    5.8070 O.2   250  061250     -0.2869
     31  C31        7.3860   40.9420    3.7410 C.2   250  061250      0.0317
     32  C32        7.0970   41.0100    2.3750 C.3   250  061250      0.1542
     33  C33        6.8940   39.8000    1.5480 C.2   250  061250      0.2417
     34  O34        6.9820   38.7030    2.0640 O.2   250  061250     -0.2737
@<TRIPOS>BOND
     1     9    10   ar
     2     9     8   ar
     3    10    11   ar
     4     8     7   ar
     5    11     6   ar
     6    24    23    1
     7     7     6   ar
     8     7    12    1
     9     6     5    1
    10    23    22    1
    11    12    13   ar
    12    12    17   ar
    13    13    14   ar
    14    17    16   ar
    15     5     4    2
    16     5     1    2
    17    22    21    1
    18     4     3    1
    19    14    15   ar
    20    16    15   ar
    21    21    20    1
    22     1     2    1
    23    15    18    1
    24     3     2    2
    25    18    19    1
    26    20    19    1
    27    20    25    2
    28    19    33   am
    29    25    26    2
    30    33    34    2
    31    33    32    1
    32    26    32    1
    33    26    27    1
    34    32    31    1
    35    27    28    2
    36    31    29    2
    37    28    29    1
    38    29    30    1
