@<TRIPOS>MOLECULE
1a95_GUN_B_1.pdb
 11 12 0 0 0
SMALL
GASTEIGER

@<TRIPOS>ATOM
      1  N9        21.9410  136.5310   25.8780 N.2   304  GUN304     -0.1802
      2  C8        21.0440  137.5460   26.0630 C.3   304  GUN304      0.2633
      3  N7        20.4980  137.5410   27.2460 N.2   304  GUN304     -0.2212
      4  C5        21.0690  136.4670   27.9040 C.2   304  GUN304      0.2482
      5  C6        20.9160  136.0380   29.2510 C.1   304  GUN304      0.2442
      6  O6        20.2090  136.5140   30.1390 O.2   304  GUN304     -0.2063
      7  N1        21.7290  134.9460   29.5000 N.2   304  GUN304     -0.2474
      8  C2        22.5950  134.3650   28.5870 C.1   304  GUN304      0.2608
      9  N2        23.3440  133.3550   29.0140 N.pl3 304  GUN304     -0.0220
     10  N3        22.7350  134.7750   27.3290 N.2   304  GUN304     -0.2682
     11  C4        21.9490  135.8330   27.0630 C.1   304  GUN304      0.1289
@<TRIPOS>BOND
     1     1     2    1
     2     1    11    2
     3     2     3    1
     4    11    10    2
     5    11     4    1
     6     3     4    2
     7    10     8    2
     8     4     5    1
     9     8     9    1
    10     8     7    2
    11     5     7    2
    12     5     6    2
