@<TRIPOS>MOLECULE
1a95_PCP_B_1.pdb
 22 22 0 0 0
SMALL
GASTEIGER

@<TRIPOS>ATOM
      1  C1        21.6810  134.3680   23.0060 C.3   301  PCP301      0.1547
      2  C2        20.5620  133.4200   23.4590 C.3   301  PCP301      0.2094
      3  C3        19.4310  133.6320   22.4100 C.3   301  PCP301      0.1870
      4  C4        19.5480  135.1110   22.0090 C.3   301  PCP301      0.0658
      5  C5        21.0180  135.3310   22.1020 C.3   301  PCP301      0.0379
      6  CP        18.7070  136.1090   22.8030 C.3   301  PCP301      0.1564
      7  O1        22.6120  133.6700   22.0560 O.3   301  PCP301     -0.3136
      8  O2        20.9910  132.0660   23.5500 O.3   301  PCP301     -0.2178
      9  O3        19.5400  132.8360   21.2400 O.3   301  PCP301     -0.2202
     10  OP        19.0920  137.4830   22.5400 O.3   301  PCP301     -0.2702
     11  P         18.0360  138.6270   22.1440 P.3   301  PCP301      0.5326
     12  O1P       16.7240  138.1940   22.6850 O.3   301  PCP301     -0.1145
     13  O2P       18.0510  138.6900   20.6640 O.2   301  PCP301     -0.2224
     14  O3P       18.5410  139.8690   22.7820 O.3   301  PCP301     -0.1145
     15  PA        23.8800  134.3850   21.4850 P.3   301  PCP301      0.2230
     16  O1A       24.2140  135.4850   22.4430 O.3   301  PCP301     -0.4370
     17  O2A       23.4720  134.9370   20.1540 O.2   301  PCP301     -0.5169
     18  O3A       24.9000  133.2580   21.4300 O.3   301  PCP301     -0.2261
     19  PB        24.8070  131.7460   21.3110 P.3   301  PCP301      0.5373
     20  O1B       24.9700  131.2830   19.8990 O.2   301  PCP301     -0.2221
     21  O2B       23.5210  131.2660   21.7750 O.3   301  PCP301     -0.1143
     22  O3B       25.8470  131.0650   22.1400 O.3   301  PCP301     -0.1143
@<TRIPOS>BOND
     1    20    19    2
     2    17    15    2
     3    13    11    2
     4     9     3    1
     5    19    18    1
     6    19    21    1
     7    19    22    1
     8    18    15    1
     9    15     7    1
    10    15    16    1
    11     4     5    1
    12     4     3    1
    13     4     6    1
    14     7     1    1
    15     5     1    1
    16    11    10    1
    17    11    12    1
    18    11    14    1
    19     3     2    1
    20    10     6    1
    21     1     2    1
    22     2     8    1
