@<TRIPOS>MOLECULE
1a96_XAN_B_1.pdb
 11 12 0 0 0
SMALL
GASTEIGER

@<TRIPOS>ATOM
      1  N9        21.7570  136.7750   25.8070 N.2   304  XAN304     -0.1801
      2  C4        21.8420  136.0190   26.9520 C.1   304  XAN304      0.1305
      3  N3        22.6740  134.9740   27.1200 N.2   304  XAN304     -0.2508
      4  C2        22.6320  134.4620   28.3850 C.1   304  XAN304      0.3744
      5  O2        23.3790  133.5240   28.6950 O.2   304  XAN304     -0.1738
      6  N1        21.7670  135.0040   29.3480 N.2   304  XAN304     -0.2300
      7  C6        20.9090  136.0800   29.1940 C.1   304  XAN304      0.2457
      8  O6        20.2320  136.4890   30.1380 O.2   304  XAN304     -0.2062
      9  C5        20.9830  136.5810   27.8630 C.2   304  XAN304      0.2483
     10  N7        20.3510  137.6670   27.2930 N.2   304  XAN304     -0.2212
     11  C8        20.8420  137.7480   26.0860 C.3   304  XAN304      0.2633
@<TRIPOS>BOND
     1     1    11    1
     2     1     2    2
     3    11    10    1
     4     2     3    2
     5     2     9    1
     6     3     4    2
     7    10     9    2
     8     9     7    1
     9     4     5    2
    10     4     6    2
    11     7     6    2
    12     7     8    2
