@<TRIPOS>MOLECULE
1a96_PCP_B_1.pdb
 22 22 0 0 0
SMALL
GASTEIGER

@<TRIPOS>ATOM
      1  C1        21.6810  134.3680   23.0070 C.3   301  PCP301      0.1547
      2  C2        20.5610  133.4200   23.4590 C.3   301  PCP301      0.2094
      3  C3        19.4300  133.6320   22.4090 C.3   301  PCP301      0.1870
      4  C4        19.5470  135.1110   22.0080 C.3   301  PCP301      0.0658
      5  C5        21.0180  135.3310   22.1010 C.3   301  PCP301      0.0379
      6  CP        18.7070  136.1090   22.8020 C.3   301  PCP301      0.1564
      7  O1        22.6130  133.6680   22.0560 O.3   301  PCP301     -0.3136
      8  O2        20.9900  132.0650   23.5510 O.3   301  PCP301     -0.2178
      9  O3        19.5370  132.8370   21.2390 O.3   301  PCP301     -0.2202
     10  OP        19.0910  137.4830   22.5400 O.3   301  PCP301     -0.2702
     11  P         18.0350  138.6260   22.1450 P.3   301  PCP301      0.5326
     12  O1P       16.7250  138.1920   22.6840 O.3   301  PCP301     -0.1145
     13  O2P       18.0490  138.6890   20.6650 O.2   301  PCP301     -0.2224
     14  O3P       18.5400  139.8680   22.7810 O.3   301  PCP301     -0.1145
     15  PA        23.8800  134.3850   21.4830 P.3   301  PCP301      0.2230
     16  O1A       24.2150  135.4860   22.4420 O.3   301  PCP301     -0.4370
     17  O2A       23.4710  134.9360   20.1530 O.2   301  PCP301     -0.5169
     18  O3A       24.8990  133.2570   21.4290 O.3   301  PCP301     -0.2261
     19  PB        24.8190  131.7660   21.1460 P.3   301  PCP301      0.5373
     20  O1B       25.1370  131.4430   19.7220 O.2   301  PCP301     -0.2221
     21  O2B       23.4940  131.2550   21.4120 O.3   301  PCP301     -0.1143
     22  O3B       25.7580  130.9930   22.0150 O.3   301  PCP301     -0.1143
@<TRIPOS>BOND
     1    20    19    2
     2    17    15    2
     3    13    11    2
     4    19    21    1
     5    19    18    1
     6    19    22    1
     7     9     3    1
     8    18    15    1
     9    15     7    1
    10    15    16    1
    11     4     5    1
    12     4     3    1
    13     4     6    1
    14     7     1    1
    15     5     1    1
    16    11    10    1
    17    11    12    1
    18    11    14    1
    19     3     2    1
    20    10     6    1
    21     1     2    1
    22     2     8    1
