@<TRIPOS>MOLECULE
1a97_5GP_B_1.pdb
 24 26 0 0 0
SMALL
GASTEIGER

@<TRIPOS>ATOM
      1  P         17.7600  138.7470   22.0450 P.3   305  5GP305      0.5327
      2  O1P       16.6420  137.9110   22.5340 O.3   305  5GP305     -0.1145
      3  O2P       17.8200  138.7910   20.5900 O.2   305  5GP305     -0.2224
      4  O3P       17.7950  140.0570   22.7260 O.3   305  5GP305     -0.1145
      5  O5'       19.0410  138.0870   22.6190 O.3   305  5GP305     -0.2675
      6  C5'       19.0500  136.7800   23.1530 C.3   305  5GP305      0.1859
      7  C4'       20.3820  136.1720   23.0120 C.3   305  5GP305      0.1801
      8  O4'       21.4170  136.8570   23.7750 O.3   305  5GP305     -0.3326
      9  C3'       20.3050  134.7980   23.5780 C.3   305  5GP305      0.2158
     10  O3'       20.0680  133.8500   22.5250 O.3   305  5GP305     -0.2175
     11  C2'       21.6250  134.6020   24.2030 C.3   305  5GP305      0.2310
     12  O2'       22.5560  134.0590   23.2790 O.3   305  5GP305     -0.2158
     13  C1'       22.0650  135.9780   24.7110 C.3   305  5GP305      0.2293
     14  N9        21.5080  136.2230   26.0960 N.pl3 305  5GP305     -0.2354
     15  C8        20.5620  137.1760   26.4510 C.3   305  5GP305      0.2246
     16  N7        20.2460  137.1770   27.7180 N.2   305  5GP305     -0.2322
     17  C5        21.0200  136.1600   28.2780 C.2   305  5GP305      0.2182
     18  C6        21.0830  135.7080   29.6330 C.1   305  5GP305      0.2372
     19  O6        20.4500  136.1420   30.5910 O.2   305  5GP305     -0.2069
     20  N1        21.9820  134.6570   29.8120 N.2   305  5GP305     -0.2485
     21  C2        22.7490  134.0880   28.7930 C.1   305  5GP305      0.2531
     22  N2        23.5620  133.0880   29.1300 N.pl3 305  5GP305     -0.0226
     23  N3        22.6940  134.5110   27.5010 N.2   305  5GP305     -0.3074
     24  C4        21.8030  135.5560   27.3030 C.2   305  5GP305      0.2300
@<TRIPOS>BOND
     1     3     1    2
     2     1     2    1
     3     1     5    1
     4     1     4    1
     5    10     9    1
     6     5     6    1
     7     7     6    1
     8     7     9    1
     9     7     8    1
    10    12    11    1
    11     9    11    1
    12     8    13    1
    13    11    13    1
    14    13    14    1
    15    14    15    1
    16    14    24    1
    17    15    16    1
    18    24    23    2
    19    24    17    1
    20    23    21    2
    21    16    17    2
    22    17    18    1
    23    21    22    1
    24    21    20    2
    25    18    20    2
    26    18    19    2
