@<TRIPOS>MOLECULE
1a9c_GTP_A_1.pdb
 32 34 0 0 0
SMALL
GASTEIGER

@<TRIPOS>ATOM
      1  PG       187.6010   51.4300   47.6900 P.3   401  GTP401      0.5373
      2  O1G      188.5210   50.8730   46.6540 O.2   401  GTP401     -0.2221
      3  O2G      186.9630   50.4750   48.6610 O.3   401  GTP401     -0.1143
      4  O3G      186.4410   52.1900   46.9050 O.3   401  GTP401     -0.1143
      5  O3B      188.3610   52.6760   48.4930 O.3   401  GTP401     -0.2258
      6  PB       189.9770   52.8010   48.7240 P.3   401  GTP401      0.2277
      7  O1B      190.3960   51.4830   49.1890 O.3   401  GTP401     -0.4368
      8  O2B      190.7030   53.2780   47.5400 O.2   401  GTP401     -0.5168
      9  O3A      190.1740   53.8340   49.9000 O.3   401  GTP401     -0.2700
     10  PA       189.9170   53.6140   51.5020 P.3   401  GTP401      0.2189
     11  O1A      189.9360   52.1370   51.7910 O.2   401  GTP401     -0.5170
     12  O2A      190.5680   54.6010   52.3840 O.3   401  GTP401     -0.4371
     13  O5'      188.3920   53.9690   51.7190 O.3   401  GTP401     -0.3112
     14  C5'      187.7130   55.1720   51.3750 C.3   401  GTP401      0.1813
     15  C4'      186.3190   54.8790   51.8560 C.3   401  GTP401      0.1799
     16  O4'      185.3640   55.9980   52.0590 O.3   401  GTP401     -0.3326
     17  C3'      185.7160   54.0230   50.7710 C.3   401  GTP401      0.2158
     18  O3'      184.9930   52.9270   51.3530 O.3   401  GTP401     -0.2175
     19  C2'      184.8750   54.9900   49.9820 C.3   401  GTP401      0.2310
     20  O2'      183.8720   54.4420   49.0470 O.3   401  GTP401     -0.2158
     21  C1'      184.2980   55.6980   51.1870 C.3   401  GTP401      0.2293
     22  N9       183.5760   56.9350   50.9170 N.pl3 401  GTP401     -0.2354
     23  C8       183.6200   57.7940   49.8820 C.3   401  GTP401      0.2246
     24  N7       182.8020   58.8300   49.9420 N.2   401  GTP401     -0.2322
     25  C5       182.1610   58.6090   51.1550 C.2   401  GTP401      0.2182
     26  C6       181.1350   59.3490   51.8410 C.1   401  GTP401      0.2372
     27  O6       180.5720   60.3580   51.5140 O.2   401  GTP401     -0.2069
     28  N1       180.7670   58.7780   53.0470 N.2   401  GTP401     -0.2485
     29  C2       181.3230   57.6090   53.5620 C.1   401  GTP401      0.2531
     30  N2       180.8910   57.1470   54.7290 N.pl3 401  GTP401     -0.0226
     31  N3       182.2640   56.9250   52.9270 N.2   401  GTP401     -0.3074
     32  C4       182.6410   57.4640   51.7390 C.2   401  GTP401      0.2300
@<TRIPOS>BOND
     1     2     1    2
     2     4     1    1
     3     8     6    2
     4     1     5    1
     5     1     3    1
     6     5     6    1
     7     6     7    1
     8     6     9    1
     9    20    19    1
    10    23    24    1
    11    23    22    1
    12     9    10    1
    13    24    25    2
    14    19    17    1
    15    19    21    1
    16    17    18    1
    17    17    15    1
    18    22    21    1
    19    22    32    1
    20    25    32    1
    21    25    26    1
    22    21    16    1
    23    14    13    1
    24    14    15    1
    25    10    13    1
    26    10    11    2
    27    10    12    1
    28    27    26    2
    29    32    31    2
    30    26    28    2
    31    15    16    1
    32    31    29    2
    33    28    29    2
    34    29    30    1
