@<TRIPOS>MOLECULE
1a9m_U0E_B_1.pdb
 42 42 0 0 0
SMALL
GASTEIGER

@<TRIPOS>ATOM
      1  C1        45.5100   23.0020   66.2580 C.3   100  U0E100      0.0964
      2  C2        44.7100   22.2760   65.6330 C.2   100  U0E100      0.2419
      3  C3        44.3590   19.9760   64.7470 C.3   100  U0E100      0.1255
      4  C4        45.3320   19.2840   63.8240 C.3   100  U0E100      0.0243
      5  C5        45.9590   19.9850   62.6470 C.3   100  U0E100      0.0018
      6  C6        45.1630   21.1900   62.1830 C.3   100  U0E100      0.0001
      7  C7        45.7320   21.7660   60.9070 C.3   100  U0E100      0.0000
      8  C8        47.2140   22.1150   61.0830 C.3   100  U0E100      0.0000
      9  C9        48.0570   20.9850   61.7110 C.3   100  U0E100      0.0000
     10  C10       47.3850   20.4040   62.9280 C.3   100  U0E100      0.0001
     11  C11       43.6380   18.8840   65.6080 C.3   100  U0E100      0.1722
     12  C12       42.7960   19.5050   66.7060 C.3   100  U0E100      0.0438
     13  C13       41.4600   18.8010   66.8660 C.3   100  U0E100      0.0808
     14  C14       40.5360   19.6130   67.8360 C.3   100  U0E100      0.0087
     15  C15       39.9940   20.8780   67.1990 C.3   100  U0E100      0.0005
     16  C16       39.4250   18.7550   68.3890 C.3   100  U0E100      0.0005
     17  C17       40.8390   18.5800   65.4800 C.2   100  U0E100      0.2414
     18  C18       39.3800   17.1150   64.2650 C.3   100  U0E100      0.1732
     19  C19       39.9620   16.7890   62.8680 C.3   100  U0E100      0.0408
     20  C20       40.0380   15.3260   62.4810 C.3   100  U0E100      0.0908
     21  C21       38.7290   14.7960   61.9710 C.2   100  U0E100      0.2608
     22  C22       38.3970   16.0710   64.7570 C.2   100  U0E100      0.2616
     23  C23       36.0780   15.3880   64.7620 C.3   100  U0E100      0.1745
     24  C24       35.1670   15.2450   63.5670 C.2   100  U0E100      0.2806
     25  C25       35.3380   16.0590   65.9140 C.3   100  U0E100      0.0349
     26  C26       35.9920   15.8580   67.2590 C.3   100  U0E100      0.0492
     27  C27       35.9500   17.1280   68.0770 C.3   100  U0E100      0.2205
     28  C28       34.3030   17.2140   69.9120 C.cat 100  U0E100      0.5346
     29  N1        45.0620   20.9790   65.5660 N.am  100  U0E100     -0.2046
     30  N2        40.4350   17.3410   65.2340 N.am  100  U0E100     -0.1978
     31  N3        38.1560   15.4730   60.9940 N.am  100  U0E100     -0.0878
     32  N4        37.1640   16.2210   64.3060 N.am  100  U0E100     -0.1963
     33  N5        34.6060   14.0510   63.5010 N.am  100  U0E100     -0.0863
     34  N6        35.5030   16.8760   69.4420 N.pl3 100  U0E100     -0.0865
     35  N7        33.5530   18.1050   69.2620 N.pl3 100  U0E100      0.1354
     36  N8        33.8540   16.6660   71.0360 N.pl3 100  U0E100      0.1354
     37  O1        43.6700   22.7450   65.1250 O.2   100  U0E100     -0.2733
     38  O2        44.5850   18.0080   66.1960 O.3   100  U0E100     -0.2213
     39  O3        40.7610   19.4940   64.6310 O.2   100  U0E100     -0.2733
     40  O4        38.2180   13.8060   62.4730 O.2   100  U0E100     -0.2717
     41  O5        38.7320   15.1970   65.5570 O.2   100  U0E100     -0.2715
     42  O6        34.9930   16.1380   62.7260 O.2   100  U0E100     -0.2698
@<TRIPOS>BOND
     1     7     8    1
     2     7     6    1
     3    31    21   am
     4     8     9    1
     5     9    10    1
     6    21    40    2
     7    21    20    1
     8     6     5    1
     9    20    19    1
    10     5    10    1
    11     5     4    1
    12    42    24    2
    13    19    18    1
    14    33    24   am
    15    24    23    1
    16     4     3    1
    17    18    22    1
    18    18    30    1
    19    32    22   am
    20    32    23    1
    21    39    17    2
    22     3    29    1
    23     3    11    1
    24    22    41    2
    25    23    25    1
    26    37     2    2
    27    30    17   am
    28    17    13    1
    29    29     2   am
    30    11    38    1
    31    11    12    1
    32     2     1    1
    33    25    26    1
    34    12    13    1
    35    13    14    1
    36    15    14    1
    37    26    27    1
    38    14    16    1
    39    27    34    1
    40    35    28    1
    41    34    28    2
    42    28    36    1
