@<TRIPOS>MOLECULE
1a9p_9DI_A_1.pdb
 19 21 0 0 0
SMALL
GASTEIGER

@<TRIPOS>ATOM
      1  C9        22.0610   90.9870   74.1840 C.2   290  9DI290      0.0458
      2  C4        23.2390   90.3500   73.8210 C.2   290  9DI290      0.1068
      3  N3        23.4950   89.0290   73.5890 N.2   290  9DI290     -0.2415
      4  C2        24.7870   88.8070   73.2520 C.3   290  9DI290      0.2626
      5  N1        25.7420   89.7860   73.1540 N.2   290  9DI290     -0.1739
      6  C6        25.5110   91.1310   73.3930 C.1   290  9DI290      0.1716
      7  O6        26.4360   91.9350   73.3010 O.2   290  9DI290     -0.2206
      8  C5        24.1440   91.4050   73.7450 C.2   290  9DI290      0.1805
      9  N7        23.5380   92.6080   74.0410 N.2   290  9DI290     -0.2310
     10  C8        22.2250   92.3430   74.3130 C.2   290  9DI290      0.0994
     11  C5'       21.2870   90.1920   77.7100 C.3   290  9DI290      0.2141
     12  O5'       21.3420   91.6080   77.9990 O.3   290  9DI290     -0.2176
     13  C4'       20.1200   89.9180   76.7860 C.3   290  9DI290      0.1813
     14  O4'       20.2770   90.8810   75.7130 O.3   290  9DI290     -0.3461
     15  C1'       20.7040   90.3150   74.4880 C.3   290  9DI290      0.1734
     16  C2'       20.7340   88.7890   74.7460 C.3   290  9DI290      0.2158
     17  O2'       20.1020   88.0410   73.6880 O.3   290  9DI290     -0.2173
     18  C3'       20.1290   88.5280   76.1560 C.3   290  9DI290      0.2144
     19  O3'       18.7980   87.9560   76.1700 O.3   290  9DI290     -0.2176
@<TRIPOS>BOND
     1     5     4    1
     2     5     6    2
     3     4     3    1
     4     7     6    2
     5     6     8    1
     6     3     2    2
     7    17    16    1
     8     8     2    1
     9     8     9    2
    10     2     1    1
    11     9    10    1
    12     1    10    2
    13     1    15    1
    14    15    16    1
    15    15    14    1
    16    16    18    1
    17    14    13    1
    18    18    19    1
    19    18    13    1
    20    13    11    1
    21    11    12    1
