@<TRIPOS>MOLECULE
1a9q_HPA_A_1.pdb
 10 11 0 0 0
SMALL
GASTEIGER

@<TRIPOS>ATOM
      1  N1        26.4350   90.1800   73.3310 N.2   290  HPA290     -0.1726
      2  C2        25.4470   89.2520   73.2650 C.3   290  HPA290      0.2725
      3  N3        24.1760   89.5420   73.4220 N.2   290  HPA290     -0.1902
      4  C4        23.9780   90.8460   73.6490 C.1   290  HPA290      0.0598
      5  C5        24.9260   91.8320   73.7320 C.2   290  HPA290      0.2226
      6  C6        26.2860   91.5180   73.5670 C.1   290  HPA290      0.1796
      7  O6        27.2920   92.2380   73.5880 O.2   290  HPA290     -0.2200
      8  N7        24.2930   93.0240   73.9720 N.2   290  HPA290     -0.2230
      9  C8        22.9680   92.7560   74.0240 C.3   290  HPA290      0.2622
     10  N9        22.7370   91.4180   73.8270 N.2   290  HPA290     -0.1910
@<TRIPOS>BOND
     1     2     1    1
     2     2     3    1
     3     1     6    2
     4     3     4    2
     5     6     7    2
     6     6     5    1
     7     4     5    1
     8     4    10    2
     9     5     8    2
    10    10     9    1
    11     8     9    1
