@<TRIPOS>MOLECULE
1a9r_HPA_A_1.pdb
 10 11 0 0 0
SMALL
GASTEIGER

@<TRIPOS>ATOM
      1  N1        26.4470   90.2610   73.2110 N.2   290  HPA290     -0.1726
      2  C2        25.4720   89.3170   73.0830 C.3   290  HPA290      0.2725
      3  N3        24.1820   89.5970   73.2550 N.2   290  HPA290     -0.1902
      4  C4        23.9590   90.9040   73.5580 C.1   290  HPA290      0.0598
      5  C5        24.8980   91.8910   73.6970 C.2   290  HPA290      0.2226
      6  C6        26.2610   91.5850   73.5200 C.1   290  HPA290      0.1796
      7  O6        27.2370   92.3310   73.6080 O.2   290  HPA290     -0.2200
      8  N7        24.2730   93.0810   74.0120 N.2   290  HPA290     -0.2230
      9  C8        22.9380   92.7990   74.0590 C.3   290  HPA290      0.2622
     10  N9        22.7150   91.4650   73.7780 N.2   290  HPA290     -0.1910
@<TRIPOS>BOND
     1     2     1    1
     2     2     3    1
     3     1     6    2
     4     3     4    2
     5     6     7    2
     6     6     5    1
     7     4     5    1
     8     4    10    2
     9     5     8    2
    10    10     9    1
    11     8     9    1
