@<TRIPOS>MOLECULE
1a9s_NOS_A_1.pdb
 19 21 0 0 0
SMALL
GASTEIGER

@<TRIPOS>ATOM
      1  N9        22.1510   90.9510   74.0840 N.pl3 290  NOS290     -0.1435
      2  C4        23.3300   90.3440   73.7130 C.2   290  NOS290      0.3528
      3  N3        23.5890   89.0300   73.4490 N.2   290  NOS290     -0.0334
      4  C2        24.8640   88.8270   73.1390 C.3   290  NOS290      0.4017
      5  N1        25.8020   89.8220   73.0980 N.2   290  NOS290     -0.1458
      6  C6        25.5650   91.1560   73.3690 C.1   290  NOS290      0.1792
      7  O6        26.5000   91.9550   73.3550 O.2   290  NOS290     -0.2203
      8  C5        24.2160   91.3990   73.6920 C.2   290  NOS290      0.2446
      9  N7        23.5970   92.5830   74.0180 N.2   290  NOS290     -0.2054
     10  C8        22.2920   92.2910   74.2590 C.3   290  NOS290      0.3382
     11  C5'       21.5930   90.0910   77.4790 C.3   290  NOS290      0.2143
     12  O5'       21.5000   91.4610   77.9320 O.3   290  NOS290     -0.2176
     13  C4'       20.3340   89.7990   76.6860 C.3   290  NOS290      0.1851
     14  O4'       20.2610   90.7870   75.6290 O.3   290  NOS290     -0.3134
     15  C1'       20.8120   90.2520   74.4110 C.3   290  NOS290      0.3186
     16  C2'       20.7970   88.7070   74.6090 C.3   290  NOS290      0.2570
     17  O2'       19.9180   88.0800   73.6400 O.3   290  NOS290     -0.2130
     18  C3'       20.2770   88.4220   76.0610 C.3   290  NOS290      0.2186
     19  O3'       18.9290   87.8290   76.0690 O.3   290  NOS290     -0.2174
@<TRIPOS>BOND
     1     5     4    1
     2     5     6    2
     3     4     3    1
     4     7     6    2
     5     6     8    1
     6     3     2    2
     7    17    16    1
     8     8     2    1
     9     8     9    2
    10     2     1    1
    11     9    10    1
    12     1    10    1
    13     1    15    1
    14    15    16    1
    15    15    14    1
    16    16    18    1
    17    14    13    1
    18    18    19    1
    19    18    13    1
    20    13    11    1
    21    11    12    1
