@<TRIPOS>MOLECULE
1a9t_R1P_A_1.pdb
 14 14 0 0 0
SMALL
GASTEIGER

@<TRIPOS>ATOM
      1  C5'       21.6700   90.6190   77.1100 C.3   291  R1P291      0.2142
      2  O5'       21.6520   91.8990   77.8850 O.3   291  R1P291     -0.2176
      3  C4'       20.4310   89.8880   76.7520 C.3   291  R1P291      0.1836
      4  O4'       19.6650   90.8630   75.8840 O.3   291  R1P291     -0.3253
      5  C1'       19.1660   90.3540   74.6420 C.3   291  R1P291      0.2781
      6  C2'       20.0990   89.0190   74.5170 C.3   291  R1P291      0.2409
      7  O2'       19.4880   88.0080   73.7020 O.3   291  R1P291     -0.2149
      8  C3'       20.4170   88.5450   75.9750 C.3   291  R1P291      0.2168
      9  O3'       19.3660   87.6580   76.3950 O.3   291  R1P291     -0.2175
     10  O1'       17.6710   89.6630   74.9590 O.3   291  R1P291     -0.2416
     11  P         16.4640   89.6470   73.7210 P.3   291  R1P291      0.5346
     12  O1P       15.1500   89.0100   74.1460 O.3   291  R1P291     -0.1145
     13  O2P       16.5050   91.1440   73.5080 O.3   291  R1P291     -0.1145
     14  O3P       17.1580   89.0480   72.5250 O.2   291  R1P291     -0.2223
@<TRIPOS>BOND
     1    14    11    2
     2    13    11    1
     3     7     6    1
     4    11    12    1
     5    11    10    1
     6     6     5    1
     7     6     8    1
     8     5    10    1
     9     5     4    1
    10     4     3    1
    11     8     9    1
    12     8     3    1
    13     3     1    1
    14     1     2    1
