@<TRIPOS>MOLECULE
1a9t_HPA_A_1.pdb
 10 11 0 0 0
SMALL
GASTEIGER

@<TRIPOS>ATOM
      1  N1        26.0780   89.9320   73.2540 N.2   290  HPA290     -0.1726
      2  C2        25.0670   89.0420   73.0050 C.3   290  HPA290      0.2725
      3  N3        23.7800   89.4020   73.0680 N.2   290  HPA290     -0.1902
      4  C4        23.6090   90.7390   73.4000 C.1   290  HPA290      0.0598
      5  C5        24.5820   91.6710   73.6570 C.2   290  HPA290      0.2226
      6  C6        25.9360   91.2960   73.5930 C.1   290  HPA290      0.1796
      7  O6        26.9190   92.0350   73.7880 O.2   290  HPA290     -0.2200
      8  N7        24.0230   92.8760   73.9570 N.2   290  HPA290     -0.2230
      9  C8        22.6720   92.6850   73.8780 C.3   290  HPA290      0.2622
     10  N9        22.3800   91.3870   73.5340 N.2   290  HPA290     -0.1910
@<TRIPOS>BOND
     1     2     3    1
     2     2     1    1
     3     3     4    2
     4     1     6    2
     5     4    10    2
     6     4     5    1
     7    10     9    1
     8     6     5    1
     9     6     7    2
    10     5     8    2
    11     9     8    1
