@<TRIPOS>MOLECULE
1a9u_SB2_A_1.pdb
 27 30 0 0 0
SMALL
GASTEIGER

@<TRIPOS>ATOM
      1  O2        -0.9400   21.5700   27.8010 O.2   800  SB2800     -0.2514
      2  C1         1.7670   22.3460   28.2870 C.3   800  SB2800      0.1110
      3  S1         0.5880   21.2640   27.4030 S.O   800  SB2800      0.0658
      4  CA1        0.4630   17.2150   27.7730 C.ar  800  SB2800      0.0126
      5  CA2        0.0750   18.5630   27.5900 C.ar  800  SB2800      0.0094
      6  CA3        1.0690   19.5790   27.6130 C.ar  800  SB2800      0.0562
      7  CA4        2.4440   19.2780   27.8020 C.ar  800  SB2800      0.0094
      8  CA5        2.8260   17.9330   27.9810 C.ar  800  SB2800      0.0126
      9  CA6        1.8520   16.8530   27.9720 C.ar  800  SB2800      0.0856
     10  NB1        0.4690    9.3540   28.9050 N.ar  800  SB2800     -0.2423
     11  CB2        0.0330   10.1300   27.8840 C.ar  800  SB2800      0.0990
     12  CB3        0.5600   11.4490   27.6850 C.ar  800  SB2800      0.0233
     13  CB4        1.5720   11.9530   28.5980 C.ar  800  SB2800      0.0362
     14  CB5        1.9890   11.0570   29.6830 C.ar  800  SB2800      0.0233
     15  CB6        1.4080    9.7650   29.7890 C.ar  800  SB2800      0.0990
     16  NC1        1.3470   14.4320   28.2060 N.2   800  SB2800     -0.3372
     17  CC2        2.2550   15.4900   28.1830 C.1   800  SB2800      0.1379
     18  NC3        3.5760   15.1690   28.3810 N.2   800  SB2800     -0.3372
     19  CC4        3.5530   13.7840   28.5630 C.2   800  SB2800      0.1740
     20  CC5        2.1500   13.3030   28.4790 C.2   800  SB2800      0.1741
     21  CD1        5.3380   13.3370   30.1690 C.ar  800  SB2800      0.0050
     22  CD2        6.5350   12.7070   30.5430 C.ar  800  SB2800      0.0297
     23  CD3        7.1890   11.8340   29.6380 C.ar  800  SB2800      0.1401
     24  CD4        6.6360   11.5840   28.3390 C.ar  800  SB2800      0.0297
     25  CD5        5.4270   12.2190   27.9600 C.ar  800  SB2800      0.0050
     26  CD6        4.7550   13.1100   28.8800 C.ar  800  SB2800      0.0333
     27  FD3        8.3550   11.2330   30.0350 F     800  SB2800     -0.2042
@<TRIPOS>BOND
     1     3     6    1
     2     3     1    2
     3     3     2    1
     4     5     6   ar
     5     5     4   ar
     6     6     7   ar
     7    12    11   ar
     8    12    13   ar
     9     4     9   ar
    10     7     8   ar
    11    11    10   ar
    12    25    24   ar
    13    25    26   ar
    14     9     8   ar
    15     9    17    1
    16    17    16    2
    17    17    18    2
    18    16    20    2
    19    24    23   ar
    20    18    19    2
    21    20    19    1
    22    20    13    1
    23    19    26    1
    24    13    14   ar
    25    26    21   ar
    26    10    15   ar
    27    23    27    1
    28    23    22   ar
    29    14    15   ar
    30    21    22   ar
