@<TRIPOS>MOLECULE
1a9w_HEM_A_1.pdb
 43 50 0 0 0
SMALL
GASTEIGER

@<TRIPOS>ATOM
      1 FE         33.7620   28.0950   61.7520 Fe    142  HEM142      0.0000
      2  CHA       36.6880   28.0930   63.4680 C.2   142  HEM142      0.0000
      3  CHB       35.4130   26.9220   59.0290 C.2   142  HEM142      0.0000
      4  CHC       30.8200   27.8920   60.1110 C.2   142  HEM142      0.0000
      5  CHD       32.2390   29.5310   64.3300 C.2   142  HEM142      0.0000
      6  NA        35.6140   27.5360   61.4110 N.ar  142  HEM142      0.0000
      7  C1A       36.7220   27.7020   62.1440 C.ar  142  HEM142      0.0000
      8  C2A       37.9570   27.4280   61.3900 C.ar  142  HEM142      0.0000
      9  C3A       37.5580   27.0030   60.1970 C.ar  142  HEM142      0.0000
     10  C4A       36.1750   27.1230   60.1000 C.ar  142  HEM142      0.0000
     11  CMA       38.4950   26.4580   59.0530 C.3   142  HEM142      0.0000
     12  CAA       39.3030   27.6350   61.9890 C.3   142  HEM142      0.0000
     13  CBA       39.9450   26.2400   62.2350 C.3   142  HEM142      0.0000
     14  CGA       41.3560   26.2200   62.7790 C.2   142  HEM142      0.0000
     15  O1A       42.1900   26.9650   62.2090 O.co2 142  HEM142      0.0000
     16  O2A       41.5760   25.4690   63.7580 O.co2 142  HEM142      0.0000
     17  NB        33.1940   27.4200   59.9500 N.2   142  HEM142      0.0000
     18  C1B       34.0410   26.9580   58.9540 C.2   142  HEM142      0.0000
     19  C2B       33.1880   26.5320   57.8550 C.2   142  HEM142      0.0000
     20  C3B       31.8740   26.7350   58.1640 C.2   142  HEM142      0.0000
     21  C4B       31.9460   27.3740   59.4490 C.2   142  HEM142      0.0000
     22  CMB       33.7970   25.9210   56.5370 C.3   142  HEM142      0.0000
     23  CAB       30.5920   26.4050   57.4420 C.3   142  HEM142      0.0000
     24  CBB       30.5830   26.7920   55.9610 C.3   142  HEM142      0.0000
     25  NC        31.8910   28.6220   62.1950 N.ar  142  HEM142      0.0000
     26  C1C       30.7700   28.5420   61.4140 C.ar  142  HEM142      0.0000
     27  C2C       29.5780   29.1050   61.9090 C.ar  142  HEM142      0.0000
     28  C3C       29.9710   29.5490   63.1200 C.ar  142  HEM142      0.0000
     29  C4C       31.3950   29.2650   63.3020 C.ar  142  HEM142      0.0000
     30  CMC       28.2240   29.1960   61.2650 C.3   142  HEM142      0.0000
     31  CAC       29.1890   30.2710   64.2580 C.3   142  HEM142      0.0000
     32  CBC       28.4700   31.5370   63.7440 C.3   142  HEM142      0.0000
     33  ND        34.3350   28.6910   63.5750 N.2   142  HEM142      0.0000
     34  C1D       33.5490   29.3280   64.5280 C.2   142  HEM142      0.0000
     35  C2D       34.3280   29.6790   65.6250 C.2   142  HEM142      0.0000
     36  C3D       35.5910   29.2790   65.3830 C.2   142  HEM142      0.0000
     37  C4D       35.5960   28.6400   64.0780 C.2   142  HEM142      0.0000
     38  CMD       33.8140   30.4320   66.9330 C.3   142  HEM142      0.0000
     39  CAD       36.8070   29.4830   66.3160 C.3   142  HEM142      0.0000
     40  CBD       37.5480   30.7650   66.0190 C.3   142  HEM142      0.0000
     41  CGD       39.0070   30.8650   66.4150 C.2   142  HEM142      0.0000
     42  O1D       39.2340   31.4050   67.5250 O.co2 142  HEM142      0.0000
     43  O2D       39.8410   30.3990   65.5880 O.co2 142  HEM142      0.0000
@<TRIPOS>BOND
     1    24    23    1
     2    22    19    1
     3    23    20    1
     4    19    20    2
     5    19    18    1
     6    20    21    1
     7    18     3    1
     8    18    17    2
     9     3    10    2
    10    11     9    1
    11    21    17    1
    12    21     4    2
    13    17     1    1
    14    10     9   ar
    15    10     6   ar
    16     4    26    1
    17     9     8   ar
    18    30    27    1
    19     8    12    1
    20     8     7   ar
    21     6     1    1
    22     6     7   ar
    23    26    27   ar
    24    26    25   ar
    25     1    25    1
    26     1    33    1
    27    27    28   ar
    28    12    13    1
    29     7     2    2
    30    25    29   ar
    31    15    14   ar
    32    13    14    1
    33    14    16   ar
    34    28    29   ar
    35    28    31    1
    36    29     5    1
    37     2    37    1
    38    33    37    2
    39    33    34    1
    40    32    31    1
    41    37    36    1
    42     5    34    2
    43    34    35    1
    44    36    35    2
    45    36    39    1
    46    43    41   ar
    47    35    38    1
    48    40    39    1
    49    40    41    1
    50    41    42   ar
