@<TRIPOS>MOLECULE
1a9x_ADP_A_1.pdb
 27 29 0 0 0
SMALL
GASTEIGER

@<TRIPOS>ATOM
      1  PB        18.0960   29.3100   70.5610 P.3   1900  ADP1900     0.5373
      2  O1B       19.2620   30.2080   70.8540 O.3   1900  ADP1900    -0.1143
      3  O2B       18.2800   28.6980   69.2320 O.2   1900  ADP1900    -0.2221
      4  O3B       17.9360   28.3650   71.7360 O.3   1900  ADP1900    -0.1143
      5  PA        16.0750   31.2840   71.2030 P.3   1900  ADP1900     0.2231
      6  O1A       17.1660   31.9440   72.0090 O.2   1900  ADP1900    -0.5169
      7  O2A       14.9160   31.0250   72.0200 O.3   1900  ADP1900    -0.4370
      8  O3A       16.6020   29.9870   70.5390 O.3   1900  ADP1900    -0.2261
      9  O5'       15.6220   32.1340   69.9540 O.3   1900  ADP1900    -0.3111
     10  C5'       16.6350   32.5990   69.0190 C.3   1900  ADP1900     0.1813
     11  C4'       16.4820   34.0890   68.7030 C.3   1900  ADP1900     0.1821
     12  O4'       15.2370   34.3170   68.0230 O.3   1900  ADP1900    -0.3135
     13  C3'       16.5130   35.1130   69.8730 C.3   1900  ADP1900     0.2184
     14  O3'       17.9320   35.4030   70.2630 O.3   1900  ADP1900    -0.2174
     15  C2'       15.6460   36.2340   69.3230 C.3   1900  ADP1900     0.2570
     16  O2'       16.3620   37.2690   68.5550 O.3   1900  ADP1900    -0.2130
     17  C1'       14.6900   35.5260   68.3620 C.3   1900  ADP1900     0.3186
     18  N9        13.3400   35.3140   68.9190 N.pl3 1900  ADP1900    -0.1439
     19  C8        12.8960   34.4670   69.8860 C.3   1900  ADP1900     0.3377
     20  N7        11.5940   34.5780   70.1400 N.2   1900  ADP1900    -0.2095
     21  C5        11.1810   35.5790   69.2880 C.2   1900  ADP1900     0.2526
     22  C6         9.9090   36.1810   69.0570 C.2   1900  ADP1900     0.4393
     23  N6         8.6960   35.9580   69.6310 N.pl3 1900  ADP1900     0.2180
     24  N1         9.9310   37.1340   68.1300 N.2   1900  ADP1900     0.0021
     25  C2        11.0830   37.4930   67.5080 C.3   1900  ADP1900     0.5254
     26  N3        12.2660   37.0040   67.6260 N.2   1900  ADP1900    -0.0055
     27  C4        12.2460   36.0250   68.5320 C.2   1900  ADP1900     0.3518
@<TRIPOS>BOND
     1    25    26    1
     2    25    24    1
     3    26    27    2
     4    12    17    1
     5    12    11    1
     6    24    22    2
     7    17    18    1
     8    17    15    1
     9    27    18    1
    10    27    21    1
    11    16    15    1
    12    11    10    1
    13    11    13    1
    14    18    19    1
    15    10     9    1
    16    22    21    1
    17    22    23    1
    18     3     1    2
    19    21    20    2
    20    15    13    1
    21    13    14    1
    22    19    20    1
    23     9     5    1
    24     8     1    1
    25     8     5    1
    26     1     2    1
    27     1     4    1
    28     5     6    2
    29     5     7    1
