@<TRIPOS>MOLECULE
1a9y_NAD_A_1.pdb
 44 48 0 0 0
SMALL
GASTEIGER

@<TRIPOS>ATOM
      1  PA       -21.9610   48.9620    1.6330 P.3   340  NAD340      0.2189
      2  O1A      -20.7640   49.2160    0.7800 O.2   340  NAD340     -0.5170
      3  O2A      -21.5320   48.9730    3.0830 O.3   340  NAD340     -0.4371
      4  O5B      -22.8070   47.6640    1.2870 O.3   340  NAD340     -0.3112
      5  C5B      -22.8240   47.0890   -0.0390 C.3   340  NAD340      0.1813
      6  C4B      -22.3070   45.6780    0.0710 C.3   340  NAD340      0.1821
      7  O4B      -22.3630   45.0570   -1.2560 O.3   340  NAD340     -0.3135
      8  C3B      -20.8500   45.5590    0.5200 C.3   340  NAD340      0.2184
      9  O3B      -20.7340   44.6320    1.6200 O.3   340  NAD340     -0.2174
     10  C2B      -20.1230   45.0540   -0.7490 C.3   340  NAD340      0.2570
     11  O2B      -19.0260   44.1750   -0.4050 O.3   340  NAD340     -0.2130
     12  C1B      -21.2160   44.3030   -1.4950 C.3   340  NAD340      0.3186
     13  N9A      -21.0600   44.2510   -2.9390 N.pl3 340  NAD340     -0.1439
     14  C8A      -20.7080   45.2740   -3.7910 C.3   340  NAD340      0.3377
     15  N7A      -20.8060   44.8940   -5.0730 N.2   340  NAD340     -0.2095
     16  C5A      -21.1960   43.5620   -5.0470 C.2   340  NAD340      0.2526
     17  C6A      -21.4390   42.6450   -6.0900 C.2   340  NAD340      0.4393
     18  N6A      -21.3160   42.9470   -7.3860 N.pl3 340  NAD340      0.2180
     19  N1A      -21.8280   41.3990   -5.6920 N.2   340  NAD340      0.0021
     20  C2A      -21.9360   41.0730   -4.3630 C.3   340  NAD340      0.5254
     21  N3A      -21.6770   41.8570   -3.3470 N.2   340  NAD340     -0.0055
     22  C4A      -21.3160   43.1210   -3.7430 C.2   340  NAD340      0.3518
     23  O3       -23.0860   50.0130    1.3370 O.3   340  NAD340     -0.2703
     24  PN       -24.3760   50.4550    2.2010 P.3   340  NAD340      0.2189
     25  O1N      -24.1170   51.8140    2.7890 O.2   340  NAD340     -0.5170
     26  O2N      -24.6360   49.3880    3.1710 O.3   340  NAD340     -0.4371
     27  O5D      -25.4760   50.5080    1.0530 O.3   340  NAD340     -0.3112
     28  C5D      -26.3170   49.3850    0.7300 C.3   340  NAD340      0.1813
     29  C4D      -27.0780   49.7610   -0.5100 C.3   340  NAD340      0.1796
     30  O4D      -27.8550   50.9380   -0.1790 O.3   340  NAD340     -0.3354
     31  C3D      -26.2570   50.1070   -1.7440 C.3   340  NAD340      0.2155
     32  O3D      -26.8750   49.5800   -2.9250 O.3   340  NAD340     -0.2176
     33  C2D      -26.2880   51.6280   -1.6410 C.3   340  NAD340      0.2271
     34  O2D      -26.1820   52.2020   -2.9420 O.3   340  NAD340     -0.2161
     35  C1D      -27.6610   51.8760   -1.1800 C.3   340  NAD340      0.2096
     36  N1N      -27.7420   53.2120   -0.6550 N.3   340  NAD340     -0.2482
     37  C2N      -26.9910   53.6040    0.4330 C.3   340  NAD340      0.0834
     38  C3N      -26.7310   54.9960    0.8020 C.3   340  NAD340      0.0959
     39  C7N      -25.7510   55.3530    1.8920 C.2   340  NAD340      0.2616
     40  O7N      -25.6060   56.5870    2.0210 O.2   340  NAD340     -0.2716
     41  N7N      -25.0850   54.4930    2.6910 N.am  340  NAD340     -0.0878
     42  C4N      -27.7520   55.9650    0.3260 C.3   340  NAD340      0.0120
     43  C5N      -28.7930   55.3220   -0.6160 C.3   340  NAD340      0.0179
     44  C6N      -28.6570   54.1500   -1.1960 C.3   340  NAD340      0.0743
@<TRIPOS>BOND
     1    18    17    1
     2    17    19    2
     3    17    16    1
     4    19    20    1
     5    15    16    2
     6    15    14    1
     7    16    22    1
     8    20    21    1
     9    14    13    1
    10    22    21    2
    11    22    13    1
    12    34    33    1
    13    13    12    1
    14    32    31    1
    15    31    33    1
    16    31    29    1
    17    33    35    1
    18    12     7    1
    19    12    10    1
    20     7     6    1
    21    44    36    1
    22    44    43    1
    23    35    36    1
    24    35    30    1
    25    10    11    1
    26    10     8    1
    27    36    37    1
    28    43    42    1
    29    29    30    1
    30    29    28    1
    31     5     6    1
    32     5     4    1
    33     6     8    1
    34    42    38    1
    35    37    38    1
    36     8     9    1
    37    28    27    1
    38     2     1    2
    39    38    39    1
    40    27    24    1
    41     4     1    1
    42    23     1    1
    43    23    24    1
    44     1     3    1
    45    39    40    2
    46    39    41   am
    47    24    25    2
    48    24    26    1
