@<TRIPOS>MOLECULE
1a9y_UPG_A_1.pdb
 36 38 0 0 0
SMALL
GASTEIGER

@<TRIPOS>ATOM
      1  N1       -20.7600   67.3300    3.4550 N.am  341  UPG341     -0.1766
      2  C2       -19.7810   68.2160    3.8600 C.1   341  UPG341      0.2845
      3  N3       -18.5500   67.6270    4.0700 N.2   341  UPG341     -0.2452
      4  C4       -18.1850   66.2830    3.9320 C.1   341  UPG341      0.2182
      5  C5       -19.2350   65.4380    3.5160 C.2   341  UPG341      0.1242
      6  C6       -20.4510   65.9710    3.3040 C.2   341  UPG341      0.0929
      7  O2       -19.9430   69.4150    4.0020 O.2   341  UPG341     -0.1918
      8  O4       -17.0350   65.9560    4.1720 O.2   341  UPG341     -0.2085
      9  C1C      -22.1500   67.7970    3.2610 C.3   341  UPG341      0.2401
     10  C2C      -22.6870   67.6060    1.8510 C.3   341  UPG341      0.2319
     11  O2C      -22.4150   68.8590    1.1490 O.3   341  UPG341     -0.2157
     12  C3C      -24.2180   67.4900    2.0510 C.3   341  UPG341      0.2158
     13  C4C      -24.2970   66.7420    3.3730 C.3   341  UPG341      0.1799
     14  O4C      -22.9700   66.9070    3.9630 O.3   341  UPG341     -0.3320
     15  O3C      -24.8380   68.8210    2.0850 O.3   341  UPG341     -0.2175
     16  C5C      -24.5060   65.2760    3.2190 C.3   341  UPG341      0.1813
     17  O5C      -23.4210   64.9020    2.3280 O.3   341  UPG341     -0.3112
     18  PA       -23.0920   63.3360    2.1250 P.3   341  UPG341      0.2189
     19  O1A      -22.0090   63.0600    1.1510 O.2   341  UPG341     -0.5170
     20  O2A      -23.0270   62.4990    3.3680 O.3   341  UPG341     -0.4371
     21  O3A      -24.6060   63.0340    1.5370 O.3   341  UPG341     -0.2703
     22  PB       -25.2580   63.0700    0.1440 P.3   341  UPG341      0.2208
     23  O1B      -26.6020   63.6030    0.4720 O.3   341  UPG341     -0.4371
     24  O2B      -24.5550   63.9430   -0.8150 O.2   341  UPG341     -0.5170
     25  O3B      -25.4060   61.6390   -0.4390 O.3   341  UPG341     -0.2857
     26  C1'      -25.9800   60.5030    0.2580 C.3   341  UPG341      0.2742
     27  C2'      -25.5390   59.1640   -0.3560 C.3   341  UPG341      0.2409
     28  C3'      -26.0200   59.0570   -1.8280 C.3   341  UPG341      0.2198
     29  C4'      -27.5690   59.1860   -1.8910 C.3   341  UPG341      0.2144
     30  C5'      -28.0520   60.4230   -1.1020 C.3   341  UPG341      0.1835
     31  C6'      -29.5640   60.4230   -0.8560 C.3   341  UPG341      0.2142
     32  O2'      -24.0810   59.0710   -0.3210 O.3   341  UPG341     -0.2149
     33  O3'      -25.5480   57.8030   -2.3690 O.3   341  UPG341     -0.2174
     34  O4'      -28.1870   59.3790   -3.1780 O.3   341  UPG341     -0.2176
     35  O5'      -27.4200   60.5760    0.2030 O.3   341  UPG341     -0.3254
     36  O6'      -29.9490   61.6590   -0.1870 O.3   341  UPG341     -0.2176
@<TRIPOS>BOND
     1    34    29    1
     2    33    28    1
     3    29    28    1
     4    29    30    1
     5    28    27    1
     6    30    31    1
     7    30    35    1
     8    31    36    1
     9    24    22    2
    10    25    22    1
    11    25    26    1
    12    27    32    1
    13    27    26    1
    14    22    23    1
    15    22    21    1
    16    35    26    1
    17    11    10    1
    18    19    18    2
    19    21    18    1
    20    10    12    1
    21    10     9    1
    22    12    15    1
    23    12    13    1
    24    18    17    1
    25    18    20    1
    26    17    16    1
    27    16    13    1
    28     9     1    1
    29     9    14    1
    30     6     1    1
    31     6     5    2
    32    13    14    1
    33     1     2   am
    34     5     4    1
    35     2     7    2
    36     2     3    2
    37     4     3    2
    38     4     8    2
