@<TRIPOS>MOLECULE
1a9z_NAD_A_1.pdb
 44 48 0 0 0
SMALL
GASTEIGER

@<TRIPOS>ATOM
      1  PA        31.1460    4.9020   37.6230 P.3   340  NAD340      0.2189
      2  O1A       31.5650    5.9970   36.7350 O.2   340  NAD340     -0.5170
      3  O2A       31.4680    5.0980   39.0660 O.3   340  NAD340     -0.4371
      4  O5B       31.8180    3.5150   37.2760 O.3   340  NAD340     -0.3112
      5  C5B       32.3750    3.3080   35.9770 C.3   340  NAD340      0.1813
      6  C4B       33.8500    3.0630   36.1020 C.3   340  NAD340      0.1821
      7  O4B       34.2960    2.6670   34.7700 O.3   340  NAD340     -0.3135
      8  C3B       34.7690    4.2000   36.5720 C.3   340  NAD340      0.2184
      9  O3B       35.6920    3.8450   37.6440 O.3   340  NAD340     -0.2174
     10  C2B       35.4960    4.5800   35.2740 C.3   340  NAD340      0.2570
     11  O2B       36.8270    5.0880   35.5150 O.3   340  NAD340     -0.2130
     12  C1B       35.5430    3.2450   34.5480 C.3   340  NAD340      0.3186
     13  N9A       35.7660    3.3960   33.1120 N.pl3 340  NAD340     -0.1439
     14  C8A       35.1420    4.2560   32.2880 C.3   340  NAD340      0.3377
     15  N7A       35.3700    4.0380   30.9950 N.2   340  NAD340     -0.2095
     16  C5A       36.3510    3.0800   30.9980 C.2   340  NAD340      0.2526
     17  C6A       37.0650    2.4520   29.9550 C.2   340  NAD340      0.4393
     18  N6A       36.9130    2.7200   28.6680 N.pl3 340  NAD340      0.2180
     19  N1A       38.0070    1.5120   30.2650 N.2   340  NAD340      0.0021
     20  C2A       38.1450    1.2030   31.5950 C.3   340  NAD340      0.5254
     21  N3A       37.5240    1.7210   32.6320 N.2   340  NAD340     -0.0055
     22  C4A       36.5890    2.6450   32.2860 C.2   340  NAD340      0.3518
     23  O3        29.6300    4.6670   37.4060 O.3   340  NAD340     -0.2703
     24  PN        28.6350    3.5710   38.0990 P.3   340  NAD340      0.2189
     25  O1N       27.5570    4.3650   38.7360 O.2   340  NAD340     -0.5170
     26  O2N       29.4150    2.6800   39.0000 O.3   340  NAD340     -0.4371
     27  O5D       28.1410    2.7610   36.8300 O.3   340  NAD340     -0.3112
     28  C5D       28.5600    1.4040   36.6730 C.3   340  NAD340      0.1813
     29  C4D       27.8570    0.9390   35.4390 C.3   340  NAD340      0.1799
     30  O4D       26.4230    0.9040   35.6680 O.3   340  NAD340     -0.3327
     31  C3D       28.0710    1.8270   34.2160 C.3   340  NAD340      0.2158
     32  O3D       28.1470    1.0180   33.0230 O.3   340  NAD340     -0.2175
     33  C2D       26.7620    2.6170   34.2000 C.3   340  NAD340      0.2309
     34  O2D       26.5110    2.9560   32.8340 O.3   340  NAD340     -0.2158
     35  C1D       25.7460    1.6100   34.6680 C.3   340  NAD340      0.2263
     36  N1N       24.5560    2.2420   35.2090 N.pl3 340  NAD340     -0.2787
     37  C2N       24.6300    3.0980   36.2820 C.3   340  NAD340      0.1244
     38  C3N       23.4770    3.9540   36.6330 C.2   340  NAD340      0.0544
     39  C7N       23.6990    4.9370   37.7060 C.2   340  NAD340      0.2818
     40  O7N       22.7310    5.6850   37.9650 O.2   340  NAD340     -0.2670
     41  N7N       24.8670    5.0340   38.3650 N.am  340  NAD340     -0.0839
     42  C4N       22.1180    3.5320   36.1850 C.2   340  NAD340      0.0033
     43  C5N       22.1590    2.4690   35.1300 C.2   340  NAD340      0.0157
     44  C6N       23.2860    1.9430   34.6640 C.2   340  NAD340      0.0633
@<TRIPOS>BOND
     1    18    17    1
     2    17    19    2
     3    17    16    1
     4    19    20    1
     5    15    16    2
     6    15    14    1
     7    16    22    1
     8    20    21    1
     9    22    21    2
    10    22    13    1
    11    14    13    1
    12    34    33    1
    13    32    31    1
    14    13    12    1
    15    33    31    1
    16    33    35    1
    17    31    29    1
    18    12     7    1
    19    12    10    1
    20    44    43    2
    21    44    36    1
    22    35    36    1
    23    35    30    1
    24     7     6    1
    25    43    42    1
    26    36    37    1
    27    10    11    1
    28    10     8    1
    29    29    30    1
    30    29    28    1
    31     5     6    1
    32     5     4    1
    33     6     8    1
    34    42    38    2
    35    37    38    1
    36     8     9    1
    37    38    39    1
    38    28    27    1
    39     2     1    2
    40    27    24    1
    41     4     1    1
    42    23     1    1
    43    23    24    1
    44     1     3    1
    45    39    40    2
    46    39    41   am
    47    24    25    2
    48    24    26    1
