@<TRIPOS>MOLECULE
1a9z_UPG_A_1.pdb
 36 38 0 0 0
SMALL
GASTEIGER

@<TRIPOS>ATOM
      1  N1        15.9270   15.2820   39.6390 N.am  341  UPG341     -0.1766
      2  C2        15.6510   16.5790   40.0090 C.1   341  UPG341      0.2845
      3  N3        16.7680   17.3570   40.2330 N.2   341  UPG341     -0.2452
      4  C4        18.0910   16.9280   40.1000 C.1   341  UPG341      0.2182
      5  C5        18.2590   15.5820   39.6840 C.2   341  UPG341      0.1242
      6  C6        17.2240   14.8180   39.4630 C.2   341  UPG341      0.0929
      7  O2        14.4990   16.9800   40.1520 O.2   341  UPG341     -0.1918
      8  O4        18.9890   17.7310   40.2700 O.2   341  UPG341     -0.2085
      9  C1C       14.7800   14.3500   39.4880 C.3   341  UPG341      0.2401
     10  C2C       14.6030   13.8630   38.0570 C.3   341  UPG341      0.2319
     11  O2C       13.6340   14.6880   37.3920 O.3   341  UPG341     -0.2157
     12  C3C       13.9180   12.4990   38.1870 C.3   341  UPG341      0.2158
     13  C4C       14.4960   11.9770   39.4870 C.3   341  UPG341      0.1799
     14  O4C       14.9300   13.1600   40.2210 O.3   341  UPG341     -0.3320
     15  O3C       12.4710   12.6010   38.2650 O.3   341  UPG341     -0.2175
     16  C5C       15.6580   11.0240   39.2880 C.3   341  UPG341      0.1813
     17  O5C       16.5810   11.6430   38.3550 O.3   341  UPG341     -0.3112
     18  PA        18.0040   10.9430   38.1680 P.3   341  UPG341      0.2189
     19  O1A       18.7930   11.7060   37.1700 O.2   341  UPG341     -0.5170
     20  O2A       18.7350   10.6320   39.4180 O.3   341  UPG341     -0.4371
     21  O3A       17.8990    9.4400   37.5370 O.3   341  UPG341     -0.2703
     22  PB        17.0670    8.8570   36.3750 P.3   341  UPG341      0.2208
     23  O1B       15.6710    8.4280   36.7410 O.3   341  UPG341     -0.4371
     24  O2B       16.9230    9.8260   35.2400 O.2   341  UPG341     -0.5170
     25  O3B       17.8430    7.5590   36.0660 O.3   341  UPG341     -0.2857
     26  C1'       17.3730    6.8280   34.9500 C.3   341  UPG341      0.2742
     27  C2'       17.1190    5.3450   35.2160 C.3   341  UPG341      0.2409
     28  C3'       18.3420    4.4500   35.4200 C.3   341  UPG341      0.2198
     29  C4'       19.3790    4.8120   34.3600 C.3   341  UPG341      0.2144
     30  C5'       19.6360    6.3220   34.4590 C.3   341  UPG341      0.1835
     31  C6'       20.6010    6.8810   33.4290 C.3   341  UPG341      0.2142
     32  O2'       16.0350    4.9780   36.0750 O.3   341  UPG341     -0.2149
     33  O3'       17.9170    3.1080   35.1760 O.3   341  UPG341     -0.2174
     34  O4'       18.9320    4.4010   33.0330 O.3   341  UPG341     -0.2176
     35  O5'       18.4230    6.9310   33.9810 O.3   341  UPG341     -0.3254
     36  O6'       19.8440    6.7910   32.1990 O.3   341  UPG341     -0.2176
@<TRIPOS>BOND
     1    36    31    1
     2    34    29    1
     3    31    30    1
     4    35    30    1
     5    35    26    1
     6    29    30    1
     7    29    28    1
     8    26    27    1
     9    26    25    1
    10    33    28    1
    11    27    28    1
    12    27    32    1
    13    24    22    2
    14    25    22    1
    15    22    23    1
    16    22    21    1
    17    19    18    2
    18    11    10    1
    19    21    18    1
    20    10    12    1
    21    10     9    1
    22    18    17    1
    23    18    20    1
    24    12    15    1
    25    12    13    1
    26    17    16    1
    27    16    13    1
    28     6     1    1
    29     6     5    2
    30    13    14    1
    31     9     1    1
    32     9    14    1
    33     1     2   am
    34     5     4    1
    35     2     7    2
    36     2     3    2
    37     4     3    2
    38     4     8    2
