@<TRIPOS>MOLECULE
1aa1_3PG_B_1.pdb
 11 10 0 0 0
SMALL
GASTEIGER

@<TRIPOS>ATOM
      1  C1        -6.6060   75.0440   32.6650 C.2   477  3PG477      0.3972
      2  O1        -6.3230   76.2630   32.8980 O.co2 477  3PG477     -0.2427
      3  O2        -7.0680   74.3550   33.6420 O.co2 477  3PG477     -0.2427
      4  C2        -6.4010   74.4280   31.2090 C.3   477  3PG477      0.2838
      5  O3        -5.9040   73.1290   31.2730 O.3   477  3PG477     -0.2081
      6  C3        -5.2870   75.2490   30.3370 C.3   477  3PG477      0.1983
      7  O1P       -5.3960   74.9150   28.8760 O.3   477  3PG477     -0.2669
      8  P         -5.1850   76.0460   27.6350 P.3   477  3PG477      0.5327
      9  O2P       -6.4950   76.1640   26.9100 O.3   477  3PG477     -0.1145
     10  O3P       -4.0810   75.3970   26.8420 O.2   477  3PG477     -0.2224
     11  O4P       -4.7920   77.2340   28.4510 O.3   477  3PG477     -0.1145
@<TRIPOS>BOND
     1    10     8    2
     2     9     8    1
     3     8    11    1
     4     8     7    1
     5     7     6    1
     6     6     4    1
     7     4     5    1
     8     4     1    1
     9     1     2   ar
    10     1     3   ar
