@<TRIPOS>MOLECULE
1aa4_HEM_A_1.pdb
 43 50 0 0 0
SMALL
GASTEIGER

@<TRIPOS>ATOM
      1 FE         28.1890   93.9410   53.0210 Fe    295  HEM295      0.0000
      2  CHA       28.0490   95.9690   50.3090 C.2   295  HEM295      0.0000
      3  CHB       30.5140   95.9240   54.3970 C.2   295  HEM295      0.0000
      4  CHC       28.4940   91.7730   55.6350 C.2   295  HEM295      0.0000
      5  CHD       25.6710   92.0960   51.7700 C.2   295  HEM295      0.0000
      6  NA        29.2310   95.6070   52.3930 N.2   295  HEM295      0.0000
      7  C1A       28.9820   96.3410   51.3000 C.2   295  HEM295      0.0000
      8  C2A       29.7430   97.4940   51.2890 C.2   295  HEM295      0.0000
      9  C3A       30.4420   97.4840   52.4820 C.2   295  HEM295      0.0000
     10  C4A       30.0750   96.3200   53.1280 C.2   295  HEM295      0.0000
     11  CMA       31.3870   98.5510   52.9820 C.3   295  HEM295      0.0000
     12  CAA       29.7510   98.5870   50.2280 C.3   295  HEM295      0.0000
     13  CBA       28.5440   99.5030   50.3090 C.3   295  HEM295      0.0000
     14  CGA       28.5650  100.5470   49.2340 C.2   295  HEM295      0.0000
     15  O1A       29.5450  101.2410   49.0410 O.co2 295  HEM295      0.0000
     16  O2A       27.5950  100.7090   48.5290 O.co2 295  HEM295      0.0000
     17  NB        29.2680   93.8910   54.7820 N.ar  295  HEM295      0.0000
     18  C1B       30.1850   94.7920   55.1510 C.ar  295  HEM295      0.0000
     19  C2B       30.8110   94.4510   56.3390 C.ar  295  HEM295      0.0000
     20  C3B       30.2920   93.1780   56.6620 C.ar  295  HEM295      0.0000
     21  C4B       29.3240   92.8990   55.6870 C.ar  295  HEM295      0.0000
     22  CMB       31.8640   95.3260   57.0210 C.3   295  HEM295      0.0000
     23  CAB       30.6330   92.2840   57.6850 C.3   295  HEM295      0.0000
     24  CBB       31.7280   92.3880   58.6460 C.3   295  HEM295      0.0000
     25  NC        27.1480   92.2790   53.6850 N.2   295  HEM295      0.0000
     26  C1C       27.4530   91.5050   54.7370 C.2   295  HEM295      0.0000
     27  C2C       26.5640   90.4390   54.8500 C.2   295  HEM295      0.0000
     28  C3C       25.6520   90.6110   53.7660 C.2   295  HEM295      0.0000
     29  C4C       26.1400   91.6900   53.0310 C.2   295  HEM295      0.0000
     30  CMC       26.5240   89.4920   56.0640 C.3   295  HEM295      0.0000
     31  CAC       24.4850   89.9120   53.3810 C.3   295  HEM295      0.0000
     32  CBC       23.9720   88.6360   53.8800 C.3   295  HEM295      0.0000
     33  ND        27.0590   94.0120   51.2800 N.ar  295  HEM295      0.0000
     34  C1D       26.1180   93.1230   50.9250 C.ar  295  HEM295      0.0000
     35  C2D       25.7190   93.3320   49.6080 C.ar  295  HEM295      0.0000
     36  C3D       26.4060   94.4580   49.1860 C.ar  295  HEM295      0.0000
     37  C4D       27.1950   94.8560   50.2700 C.ar  295  HEM295      0.0000
     38  CMD       24.7490   92.5060   48.7650 C.3   295  HEM295      0.0000
     39  CAD       26.3160   95.0990   47.8150 C.3   295  HEM295      0.0000
     40  CBD       25.4330   96.3340   47.8080 C.3   295  HEM295      0.0000
     41  CGD       25.3380   97.0750   46.4760 C.2   295  HEM295      0.0000
     42  O1D       24.8970   98.2150   46.4530 O.co2 295  HEM295      0.0000
     43  O2D       25.6870   96.5460   45.4320 O.co2 295  HEM295      0.0000
@<TRIPOS>BOND
     1    43    41   ar
     2    42    41   ar
     3    41    40    1
     4    40    39    1
     5    39    36    1
     6    16    14   ar
     7    38    35    1
     8    15    14   ar
     9    36    35   ar
    10    36    37   ar
    11    14    13    1
    12    35    34   ar
    13    12    13    1
    14    12     8    1
    15    37     2    2
    16    37    33   ar
    17     2     7    1
    18    34    33   ar
    19    34     5    2
    20    33     1    1
    21     8     7    1
    22     8     9    2
    23     7     6    2
    24     5    29    1
    25     6     1    1
    26     6    10    1
    27     9    11    1
    28     9    10    1
    29     1    25    1
    30     1    17    1
    31    29    25    2
    32    29    28    1
    33    10     3    2
    34    31    28    1
    35    31    32    1
    36    25    26    1
    37    28    27    2
    38     3    18    1
    39    26    27    1
    40    26     4    2
    41    17    18   ar
    42    17    21   ar
    43    27    30    1
    44    18    19   ar
    45     4    21    1
    46    21    20   ar
    47    19    20   ar
    48    19    22    1
    49    20    23    1
    50    23    24    1
