@<TRIPOS>MOLECULE
1aa6_MGD_A_1.pdb
 47 52 0 0 0
SMALL
GASTEIGER

@<TRIPOS>ATOM
      1  PB        79.6410   32.1500   21.1410 P.3   801  MGD801      0.2189
      2  O1B       78.9200   33.1690   20.3630 O.2   801  MGD801     -0.5170
      3  O2B       79.0900   31.4400   22.3160 O.3   801  MGD801     -0.4371
      4  O3B       80.9070   32.8930   21.6490 O.3   801  MGD801     -0.2703
      5  O3A       81.4230   35.3550   21.5530 O.3   801  MGD801     -0.3109
      6  PA        81.8980   33.9190   21.0070 P.3   801  MGD801      0.2189
      7  O1A       83.2420   33.5280   21.5640 O.3   801  MGD801     -0.4371
      8  O2A       81.5650   33.9400   19.5680 O.2   801  MGD801     -0.5170
      9  O5'       80.2170   31.1440   20.0450 O.3   801  MGD801     -0.3112
     10  C5'       80.5740   29.8100   20.3340 C.3   801  MGD801      0.1813
     11  C4'       80.4210   29.0680   19.0090 C.3   801  MGD801      0.1799
     12  O4'       81.0280   27.7870   19.1150 O.3   801  MGD801     -0.3326
     13  C3'       78.9520   28.8520   18.5890 C.3   801  MGD801      0.2158
     14  O3'       78.8520   29.0830   17.1890 O.3   801  MGD801     -0.2175
     15  C2'       78.7220   27.3840   18.9170 C.3   801  MGD801      0.2310
     16  O2'       77.7690   26.7540   18.0660 O.3   801  MGD801     -0.2158
     17  C1'       80.1150   26.8370   18.6330 C.3   801  MGD801      0.2293
     18  N9        80.3740   25.6250   19.3600 N.pl3 801  MGD801     -0.2354
     19  C8        79.7840   25.1440   20.5240 C.3   801  MGD801      0.2246
     20  N7        80.2810   23.9890   20.9190 N.2   801  MGD801     -0.2322
     21  C5        81.2520   23.7160   19.9390 C.2   801  MGD801      0.2182
     22  C6        82.1100   22.6280   19.7810 C.1   801  MGD801      0.2372
     23  O6        82.0690   21.6800   20.5560 O.2   801  MGD801     -0.2069
     24  N1        82.9550   22.6880   18.6790 N.2   801  MGD801     -0.2485
     25  C2        82.9620   23.7470   17.7950 C.1   801  MGD801      0.2531
     26  N2        83.8150   23.7530   16.7910 N.pl3 801  MGD801     -0.0226
     27  N3        82.1300   24.7820   17.9400 N.2   801  MGD801     -0.3074
     28  C4        81.3140   24.7150   19.0030 C.2   801  MGD801      0.2300
     29  C10       81.4040   35.6410   22.9510 C.3   801  MGD801      0.1837
     30  C11       82.5120   36.5720   23.4830 C.3   801  MGD801      0.1762
     31  O11       82.6470   37.8070   22.7210 O.3   801  MGD801     -0.3271
     32  C12       82.2960   36.7700   24.9780 C.2   801  MGD801      0.0473
     33  S12       81.6580   35.4520   25.9720 S.3   801  MGD801     -0.0526
     34  C13       82.5220   38.0210   25.5670 C.2   801  MGD801      0.0449
     35  S13       82.2470   38.2500   27.2910 S.3   801  MGD801     -0.0530
     36  C14       82.9610   39.2140   24.7610 C.3   801  MGD801      0.1850
     37  N15       81.7380   40.0070   24.8710 N.2   801  MGD801     -0.2411
     38  C16       81.3440   40.7340   23.7860 C.2   801  MGD801      0.2467
     39  C17       80.0880   41.4690   23.8140 C.1   801  MGD801      0.2441
     40  O17       79.2680   41.3770   24.7330 O.2   801  MGD801     -0.2063
     41  N18       79.7500   42.2360   22.7130 N.2   801  MGD801     -0.2474
     42  C19       80.5720   42.2790   21.6150 C.1   801  MGD801      0.2608
     43  N19       80.1240   43.0160   20.5940 N.pl3 801  MGD801     -0.0220
     44  N20       81.7460   41.5730   21.5810 N.2   801  MGD801     -0.2682
     45  C21       82.1590   40.7990   22.6550 C.1   801  MGD801      0.1293
     46  N22       83.3550   40.1230   22.6000 N.2   801  MGD801     -0.1763
     47  C23       83.4150   38.8730   23.3630 C.3   801  MGD801      0.2573
@<TRIPOS>BOND
     1    26    25    1
     2    14    13    1
     3    25    27    2
     4    25    24    2
     5    27    28    2
     6    16    15    1
     7    13    15    1
     8    13    11    1
     9    17    15    1
    10    17    12    1
    11    17    18    1
    12    24    22    2
    13    28    18    1
    14    28    21    1
    15    11    12    1
    16    11    10    1
    17    18    19    1
    18     8     6    2
    19    22    21    1
    20    22    23    2
    21    21    20    2
    22     9    10    1
    23     9     1    1
    24     2     1    2
    25    19    20    1
    26    43    42    1
    27     6     5    1
    28     6     7    1
    29     6     4    1
    30     1     4    1
    31     1     3    1
    32     5    29    1
    33    44    42    2
    34    44    45    2
    35    42    41    2
    36    46    45    2
    37    46    47    1
    38    45    38    1
    39    41    39    2
    40    31    47    1
    41    31    30    1
    42    29    30    1
    43    47    36    1
    44    30    32    1
    45    38    39    1
    46    38    37    2
    47    39    40    2
    48    36    37    1
    49    36    34    1
    50    32    34    2
    51    32    33    1
    52    34    35    1
