@<TRIPOS>MOLECULE
1aa9_GDP_A_1.pdb
 40 42 0 0 0
SMALL
GASTEIGER

@<TRIPOS>ATOM
      1  PB       132.5800   -0.8840   10.9460 P.3   180  GDP180      0.5373
      2  O1B      131.6020   -1.7880   11.5910 O.3   180  GDP180     -0.1143
      3  O2B      131.9790    0.1210   10.0410 O.3   180  GDP180     -0.1143
      4  O3B      133.4090   -1.8490    9.9590 O.2   180  GDP180     -0.2221
      5  O3A      133.6090   -0.3420   11.8620 O.3   180  GDP180     -0.2261
      6  PA       133.5280   -0.5960   13.3180 P.3   180  GDP180      0.2224
      7  O1A      132.2810   -0.1150   13.9530 O.3   180  GDP180     -0.4370
      8  O2A      133.9330   -1.9610   13.7230 O.2   180  GDP180     -0.5170
      9  O5'      134.6730    0.3490   13.9420 O.3   180  GDP180     -0.3245
     10  C5'      134.9230    0.3480   15.3500 C.3   180  GDP180      0.0836
     11  C4'      134.8210    1.7490   15.9510 C.3   180  GDP180      0.1131
     12  O4'      136.0350    2.4870   15.7440 O.3   180  GDP180     -0.3474
     13  C3'      133.6860    2.5430   15.3200 C.3   180  GDP180      0.1133
     14  O3'      132.6200    2.7480   16.2520 O.3   180  GDP180     -0.3864
     15  C2'      134.2720    3.8510   14.8740 C.3   180  GDP180      0.1266
     16  O2'      133.5770    4.9530   15.4660 O.3   180  GDP180     -0.3849
     17  C1'      135.7170    3.8230   15.3150 C.3   180  GDP180      0.1617
     18  N9       136.6160    4.2690   14.2340 N.pl3 180  GDP180     -0.2241
     19  C8       136.6190    3.9420   12.9180 C.2   180  GDP180      0.1451
     20  N7       137.5260    4.4780   12.1710 N.2   180  GDP180     -0.3865
     21  C5       138.2250    5.2650   13.0910 C.2   180  GDP180      0.2296
     22  C6       139.3510    6.1090   12.8970 C.2   180  GDP180      0.2859
     23  O6       139.9720    6.3240   11.8580 O.2   180  GDP180     -0.2668
     24  N1       139.7420    6.7190   14.0820 N.am  180  GDP180     -0.2418
     25  C2       139.1330    6.5390   15.3070 C.2   180  GDP180      0.2395
     26  N2       139.6610    7.2070   16.3330 N.pl3 180  GDP180     -0.3206
     27  N3       138.0740    5.7460   15.4990 N.2   180  GDP180     -0.3551
     28  C4       137.6740    5.1410   14.3570 C.2   180  GDP180      0.2272
     29  H5'      135.9250   -0.0430   15.5300 H     180  GDP180      0.0591
     30 H5''      134.1970   -0.3010   15.8380 H     180  GDP180      0.0591
     31  H4'      134.6400    1.6630   17.0220 H     180  GDP180      0.0647
     32  H3'      133.3250    2.0220   14.4540 H     180  GDP180      0.0647
     33 HO3'      132.2240    1.8900   16.4250 H     180  GDP180      0.2100
     34  H2'      134.2240    3.9200   13.7860 H     180  GDP180      0.0663
     35 HO2'      134.1630    5.7120   15.4290 H     180  GDP180      0.2101
     36  H1'      135.8170    4.4850   16.1540 H     180  GDP180      0.0841
     37  H8       135.8840    3.2520   12.5060 H     180  GDP180      0.1149
     38  HN1      140.5380    7.3380   14.0200 H     180  GDP180      0.1589
     39 HN21      140.4600    7.8070   16.1870 H     180  GDP180      0.1459
     40 HN22      139.2620    7.1130   17.2560 H     180  GDP180      0.1459
@<TRIPOS>BOND
     1     4     1    2
     2     3     1    1
     3     1     2    1
     4     1     5    1
     5    23    22    2
     6     5     6    1
     7    20    19    2
     8    20    21    2
     9    37    19    1
    10    22    21    1
    11    22    24   am
    12    19    18    1
    13    21    28    1
    14     6     8    2
    15     6     9    1
    16     6     7    1
    17    34    15    1
    18     9    10    1
    19    38    24    1
    20    24    25    1
    21    18    28    1
    22    18    17    1
    23    28    27    2
    24    32    13    1
    25    15    17    1
    26    15    13    1
    27    15    16    1
    28    25    27    2
    29    25    26    1
    30    17    12    1
    31    17    36    1
    32    13    11    1
    33    13    14    1
    34    10    29    1
    35    10    30    1
    36    10    11    1
    37    35    16    1
    38    12    11    1
    39    11    31    1
    40    39    26    1
    41    14    33    1
    42    26    40    1
