@<TRIPOS>MOLECULE
1aam_PLP_A_1.pdb
 15 15 0 0 0
SMALL
GASTEIGER

@<TRIPOS>ATOM
      1  N1       128.7280   38.1090   25.2500 N.2   409  PLP409     -0.2458
      2  C2       129.0820   37.0260   24.5490 C.2   409  PLP409      0.0942
      3  C2A      128.2600   36.7060   23.3310 C.3   409  PLP409      0.0552
      4  C3       130.0710   36.1560   25.1040 C.2   409  PLP409      0.1899
      5  O3       130.3660   35.1670   24.4650 O.2   409  PLP409     -0.2898
      6  C4       130.6800   36.6160   26.2990 C.3   409  PLP409      0.0852
      7  C4A      131.7710   35.8260   26.8480 C.3   409  PLP409      0.0127
      8  C5       130.3340   37.7830   26.9290 C.2   409  PLP409      0.0118
      9  C6       129.2830   38.5440   26.4070 C.2   409  PLP409      0.0929
     10  C5A      130.8870   38.3480   28.1920 C.3   409  PLP409      0.1779
     11  O4P      132.0010   37.6490   28.8030 O.3   409  PLP409     -0.2656
     12  P        132.4600   38.3930   30.1190 P.3   409  PLP409      0.5329
     13  O1P      132.7120   37.4580   31.2400 O.3   409  PLP409     -0.1145
     14  O2P      131.2800   39.3150   30.2920 O.3   409  PLP409     -0.1145
     15  O3P      133.8220   39.1130   29.7830 O.2   409  PLP409     -0.2224
@<TRIPOS>BOND
     1     3     2    1
     2     5     4    2
     3     2     4    1
     4     2     1    2
     5     4     6    1
     6     1     9    1
     7     6     7    1
     8     6     8    1
     9     9     8    2
    10     8    10    1
    11    10    11    1
    12    11    12    1
    13    15    12    2
    14    12    14    1
    15    12    13    1
