@<TRIPOS>MOLECULE
1aaq_PSI_B_1.pdb
 41 41 0 0 0
SMALL
GASTEIGER

@<TRIPOS>ATOM
      1  N         -5.7410   17.9380   -7.0390 N.3   100  PSI100     -0.1231
      2  CA        -5.8830   17.4740   -5.6800 C.3   100  PSI100      0.1694
      3  C         -7.2840   17.7850   -5.1510 C.2   100  PSI100      0.2592
      4  O         -7.8780   18.7950   -5.5030 O.2   100  PSI100     -0.2718
      5  CB        -4.8320   18.1790   -4.8280 C.3   100  PSI100      0.0304
      6  N1        -7.7640   16.9320   -4.2320 N.am  100  PSI100     -0.1966
      7  CA1       -9.0680   17.1150   -3.5730 C.3   100  PSI100      0.1728
      8  C1        -8.8180   16.8680   -2.0810 C.2   100  PSI100      0.2612
      9  O1        -8.4350   15.7610   -1.7290 O.2   100  PSI100     -0.2715
     10  CB1      -10.0880   16.1150   -4.1410 C.3   100  PSI100      0.0334
     11  C3       -11.3700   15.7810    3.2710 C.2   100  PSI100      0.2418
     12  O2       -10.7800   14.7100    3.1960 O.2   100  PSI100     -0.2733
     13  CA3      -11.8840   16.4140    1.9720 C.3   100  PSI100      0.0895
     14  CM       -10.7740   16.6120    0.9150 C.3   100  PSI100      0.0443
     15  C2        -9.9260   17.8710    1.1670 C.3   100  PSI100      0.1726
     16  OS       -10.8640   19.0150    1.0930 O.3   100  PSI100     -0.2213
     17  CA2       -8.6630   17.8220    0.2180 C.3   100  PSI100      0.1299
     18  N2        -8.9820   17.9020   -1.2370 N.am  100  PSI100     -0.2028
     19  CB2       -7.6860   18.9390    0.6230 C.3   100  PSI100      0.0506
     20  CG        -6.3150   18.8260   -0.0240 C.ar  100  PSI100     -0.0204
     21  CD1       -5.9580   19.6050   -1.1370 C.ar  100  PSI100     -0.0042
     22  CD2       -5.3680   17.9530    0.5460 C.ar  100  PSI100     -0.0042
     23  CE1       -4.6690   19.4940   -1.6820 C.ar  100  PSI100     -0.0003
     24  CE2       -4.0860   17.8370   -0.0040 C.ar  100  PSI100     -0.0003
     25  CZ        -3.7290   18.6210   -1.1100 C.ar  100  PSI100     -0.0000
     26  N4       -11.6290   16.3670    4.4580 N.am  100  PSI100     -0.1978
     27  CA4      -11.2800   15.6530    5.7110 C.3   100  PSI100      0.1726
     28  C4       -12.5960   15.1310    6.3280 C.2   100  PSI100      0.2617
     29  O3       -13.5770   15.8440    6.4930 O.2   100  PSI100     -0.2715
     30  CB3      -10.4320   16.5190    6.6690 C.3   100  PSI100      0.0290
     31  CG1       -9.9680   15.7260    7.9080 C.3   100  PSI100      0.0023
     32  CG2       -9.1670   17.0370    5.9540 C.3   100  PSI100      0.0023
     33  N5       -12.5390   13.8420    6.6570 N.am  100  PSI100     -0.1943
     34  CA5      -13.5190   12.9170    7.2560 C.3   100  PSI100      0.1934
     35  C5       -12.8290   12.0770    8.4190 C.2   100  PSI100      0.3371
     36  O4       -11.5110   11.4360    8.2750 O.2   100  PSI100     -0.2482
     37  CB4      -14.1680   12.0520    6.1210 C.3   100  PSI100      0.0309
     38 CG11      -15.2790   11.0900    6.6380 C.3   100  PSI100      0.0023
     39 CG21      -14.8520   12.9270    5.0450 C.3   100  PSI100      0.0023
     40  C6       -13.0560   11.6970   10.7740 C.3   100  PSI100      0.2557
     41  O5       -13.0000   12.6640    9.7100 O.3   100  PSI100     -0.4432
@<TRIPOS>BOND
     1     1     2    1
     2     2     3    1
     3     2     5    1
     4     4     3    2
     5     3     6   am
     6     6     7    1
     7    10     7    1
     8     7     8    1
     9     8     9    2
    10     8    18   am
    11    23    21   ar
    12    23    25   ar
    13    18    17    1
    14    21    20   ar
    15    25    24   ar
    16    20    22   ar
    17    20    19    1
    18    24    22   ar
    19    17    19    1
    20    17    15    1
    21    14    15    1
    22    14    13    1
    23    16    15    1
    24    13    11    1
    25    12    11    2
    26    11    26   am
    27    26    27    1
    28    39    37    1
    29    27    28    1
    30    27    30    1
    31    32    30    1
    32    37    38    1
    33    37    34    1
    34    28    29    2
    35    28    33   am
    36    33    34    1
    37    30    31    1
    38    34    35    1
    39    36    35    2
    40    35    41    1
    41    41    40    1
