@<TRIPOS>MOLECULE
1aaw_PLP_A_1.pdb
 15 15 0 0 0
SMALL
GASTEIGER

@<TRIPOS>ATOM
      1  N1       130.1090   38.5030   25.4170 N.ar  409  PLP409     -0.2452
      2  C2       130.4910   37.5080   24.6380 C.ar  409  PLP409      0.0978
      3  C2A      129.6960   37.2720   23.4100 C.3   409  PLP409      0.0555
      4  C3       131.6020   36.7580   25.0750 C.ar  409  PLP409      0.2049
      5  O3       132.0160   35.7610   24.3300 O.3   409  PLP409     -0.2857
      6  C4       132.2590   37.1180   26.2630 C.ar  409  PLP409      0.0182
      7  C4A      133.4240   36.3590   26.6410 C.3   409  PLP409      0.0342
      8  C5       131.8310   38.1610   27.0340 C.ar  409  PLP409      0.0261
      9  C6       130.6990   38.8460   26.5840 C.ar  409  PLP409      0.0965
     10  C5A      132.3770   38.6760   28.3190 C.3   409  PLP409      0.1815
     11  O4P      133.6650   38.2590   28.7410 O.3   409  PLP409     -0.2653
     12  P        134.3990   38.6340   30.0670 P.3   409  PLP409      0.5329
     13  O1P      133.4940   38.9840   31.2070 O.3   409  PLP409     -0.1145
     14  O2P      135.2450   39.7860   29.6390 O.2   409  PLP409     -0.2224
     15  O3P      135.1830   37.3390   30.4800 O.3   409  PLP409     -0.1145
@<TRIPOS>BOND
     1     3     2    1
     2     5     4    1
     3     2     4   ar
     4     2     1   ar
     5     4     6   ar
     6     1     9   ar
     7     6     7    1
     8     6     8   ar
     9     9     8   ar
    10     8    10    1
    11    10    11    1
    12    11    12    1
    13    14    12    2
    14    12    15    1
    15    12    13    1
