@<TRIPOS>MOLECULE
1aax_BPM_A_1.pdb
 23 24 0 0 0
SMALL
GASTEIGER

@<TRIPOS>ATOM
      1  C0        44.4710   11.6820    0.7760 C.3   402  BPM402      0.0526
      2  C1A       45.0280   12.7150    1.7580 C.ar  402  BPM402     -0.0176
      3  C2A       44.4410   13.9710    1.8110 C.ar  402  BPM402     -0.0008
      4  C3A       44.8420   14.9130    2.7450 C.ar  402  BPM402      0.0371
      5  C5A       46.4650   13.3560    3.6190 C.ar  402  BPM402      0.0371
      6  C6A       46.0430   12.4210    2.6640 C.ar  402  BPM402     -0.0008
      7  C4A       45.8590   14.6070    3.6550 C.ar  402  BPM402      0.1490
      8  O1A       46.3310   15.5610    4.5800 O.3   402  BPM402     -0.3998
      9  PA        45.5540   16.0350    5.7360 P.3   402  BPM402      0.5887
     10  O2A       44.2380   16.4890    5.3810 O.2   402  BPM402     -0.2114
     11  O3A       45.4560   14.9990    6.7000 O.3   402  BPM402     -0.1039
     12  O4A       46.5230   16.9510    6.2220 O.3   402  BPM402     -0.1039
     13  C1B       45.3180   11.4090   -0.4680 C.ar  402  BPM402     -0.0176
     14  C2B       45.4000   10.1380   -1.0380 C.ar  402  BPM402     -0.0008
     15  C3B       46.1680    9.9360   -2.1960 C.ar  402  BPM402      0.0371
     16  C5B       46.7920   12.2750   -2.2250 C.ar  402  BPM402      0.0371
     17  C6B       46.0160   12.4450   -1.0720 C.ar  402  BPM402     -0.0008
     18  C4B       46.8710   11.0110   -2.8040 C.ar  402  BPM402      0.1490
     19  O1B       47.5740   10.7980   -4.0890 O.3   402  BPM402     -0.3998
     20  PB        48.9220   11.2740   -4.5160 P.3   402  BPM402      0.5887
     21  O2B       49.0460   12.7330   -4.4200 O.3   402  BPM402     -0.1039
     22  O3B       49.9970   10.7330   -3.6570 O.3   402  BPM402     -0.1039
     23  O4B       49.1540   10.8790   -5.9150 O.2   402  BPM402     -0.2114
@<TRIPOS>BOND
     1    23    20    2
     2    20    21    1
     3    20    19    1
     4    20    22    1
     5    19    18    1
     6    18    16   ar
     7    18    15   ar
     8    16    17   ar
     9    15    14   ar
    10    17    13   ar
    11    14    13   ar
    12    13     1    1
    13     1     2    1
    14     2     3   ar
    15     2     6   ar
    16     3     4   ar
    17     6     5   ar
    18     4     7   ar
    19     5     7   ar
    20     7     8    1
    21     8     9    1
    22    10     9    2
    23     9    12    1
    24     9    11    1
