@<TRIPOS>MOLECULE
1ab8_FOK_A_1.pdb
 29 31 0 0 0
SMALL
GASTEIGER

@<TRIPOS>ATOM
      1  C1        51.4830   73.9430    5.6910 C.3     1  FOK1        0.1547
      2  O2        51.5140   72.4990    5.8120 O.3     1  FOK1       -0.2231
      3  C2        52.2680   74.3230    4.4300 C.3     1  FOK1        0.0330
      4  C3        51.7480   73.7580    3.1020 C.3     1  FOK1        0.0027
      5  C4        50.2590   74.3550    2.8550 C.3     1  FOK1        0.0027
      6  C5        49.4490   73.9630    4.1260 C.3     1  FOK1        0.0393
      7  C6        47.9690   74.2330    3.9700 C.3     1  FOK1        0.1943
      8  O3        47.7300   75.6420    3.8040 O.3     1  FOK1       -0.2192
      9  C7        47.1550   73.6840    5.1380 C.3     1  FOK1        0.2260
     10  O4        45.7380   74.0580    5.0080 O.3     1  FOK1       -0.4470
     11  C8        47.5880   74.2010    6.5460 C.3     1  FOK1        0.1639
     12  O1        46.7980   73.4570    7.4830 O.3     1  FOK1       -0.3524
     13  C9        49.0880   73.8180    6.6760 C.3     1  FOK1        0.2051
     14  O6        49.0810   72.3440    6.5580 O.3     1  FOK1       -0.2155
     15  C10       50.0230   74.4160    5.5200 C.3     1  FOK1        0.0652
     16  C11       49.4820   74.0560    8.1560 C.2     1  FOK1        0.1831
     17  O7        50.6680   73.9930    8.4960 O.2     1  FOK1       -0.2933
     18  C12       48.4040   74.3540    9.1670 C.3     1  FOK1        0.0985
     19  C13       47.1090   73.5700    8.9060 C.3     1  FOK1        0.1183
     20  C14       47.4520   72.1420    9.2910 C.2     1  FOK1        0.0006
     21  C15       47.5220   71.1060    8.7960 C.2     1  FOK1       -0.0025
     22  C16       45.9450   74.0760    9.7470 C.3     1  FOK1        0.0346
     23  C17       47.2650   75.7210    6.6750 C.3     1  FOK1        0.0365
     24  C18       49.7520   73.6940    1.5290 C.3     1  FOK1        0.0001
     25  C19       50.4430   75.8940    2.6000 C.3     1  FOK1        0.0001
     26  C20       50.0430   75.9480    5.6710 C.3     1  FOK1        0.0056
     27  C21       44.8870   73.1190    4.5040 C.2     1  FOK1        0.3176
     28  O5        45.2470   72.0070    4.1720 O.2     1  FOK1       -0.2501
     29  C22       43.4410   73.7130    4.4350 C.3     1  FOK1        0.1212
@<TRIPOS>BOND
     1    24     5    1
     2    25     5    1
     3     5     4    1
     4     5     6    1
     5     4     3    1
     6     8     7    1
     7     7     6    1
     8     7     9    1
     9     6    15    1
    10    28    27    2
    11     3     1    1
    12    29    27    1
    13    27    10    1
    14    10     9    1
    15     9    11    1
    16    15    26    1
    17    15     1    1
    18    15    13    1
    19     1     2    1
    20    11    23    1
    21    11    13    1
    22    11    12    1
    23    14    13    1
    24    13    16    1
    25    12    19    1
    26    16    17    2
    27    16    18    1
    28    21    20    2
    29    19    18    1
    30    19    20    1
    31    19    22    1
