@<TRIPOS>MOLECULE
1ab9_III_D_1.pdb
 37 38 0 0 0
SMALL
GASTEIGER

@<TRIPOS>ATOM
      1  N         31.8230    1.6980   51.8990 N.3   300  THR300     -0.1204
      2  CA        32.7990    1.4290   50.8440 C.3   300  THR300      0.1979
      3  C         32.3140    1.8560   49.4130 C.2   300  THR300      0.2460
      4  O         31.2040    1.7100   48.9850 O.2   300  THR300     -0.2732
      5  CB        33.2100   -0.0920   50.8250 C.3   300  THR300      0.1783
      6  OG1       33.6200   -0.4100   49.5020 O.3   300  THR300     -0.2211
      7  CG2       32.0760   -0.9730   51.3430 C.3   300  THR300      0.0376
      8  N         33.2580    2.4920   48.6230 N.am  301  PRO301     -0.2717
      9  CA        33.0470    2.9740   47.2610 C.3   301  PRO301      0.1539
     10  C         32.8190    1.8380   46.1890 C.2   301  PRO301      0.2638
     11  O         33.3250    0.7220   46.3350 O.2   301  PRO301     -0.2712
     12  CB        34.4110    3.5670   46.9670 C.3   301  PRO301      0.0310
     13  CG        35.2980    2.9230   47.9970 C.3   301  PRO301      0.0237
     14  CD        34.4810    2.9980   49.1830 C.3   301  PRO301      0.0939
     15  N         32.3080    2.2140   45.0230 N.am  302  GLY302     -0.1717
     16  CA        32.0750    1.2200   43.9850 C.2   302  GLY302      0.1480
     17  C         31.4620    1.7550   42.6990 C.2   302  GLY302      0.2820
     18  O         30.6120    2.6400   42.7350 O.2   302  GLY302     -0.2669
     19  N         31.8940    1.2210   41.5550 N.am  303  VAL303     -0.1929
     20  CA        31.3970    1.6280   40.2250 C.3   303  VAL303      0.1730
     21  C         29.9650    1.1420   39.9270 C.2   303  VAL303      0.2616
     22  O         29.6100    0.0000   40.2870 O.2   303  VAL303     -0.2715
     23  CB        32.3940    1.2200   39.1520 C.3   303  VAL303      0.0290
     24  CG1       33.0340   -0.1260   39.4490 C.3   303  VAL303      0.0023
     25  CG2       31.7310    1.1100   37.8300 C.3   303  VAL303      0.0023
     26  N         29.1710    2.0400   39.2970 N.am  304  TYR304     -0.1974
     27  CA        27.7260    1.7920   38.9730 C.3   304  TYR304      0.1639
     28  C         27.3240    1.4750   37.5630 C.2   304  TYR304      0.2290
     29  O         26.6050    0.5480   37.2630 O.2   304  TYR304     -0.2864
     30  CB        26.8690    2.9900   39.4060 C.3   304  TYR304      0.0560
     31  CG        26.7290    3.1330   40.8910 C.ar  304  TYR304     -0.0198
     32  CD1       27.0910    2.1130   41.7920 C.ar  304  TYR304     -0.0009
     33  CD2       26.2070    4.3070   41.3850 C.ar  304  TYR304     -0.0009
     34  CE1       26.9160    2.3100   43.1520 C.ar  304  TYR304      0.0417
     35  CE2       26.0390    4.4930   42.6570 C.ar  304  TYR304      0.0417
     36  CZ        26.3770    3.5350   43.5530 C.ar  304  TYR304      0.1957
     37  OH        26.2140    3.7630   44.8830 O.3   304  TYR304     -0.2866
@<TRIPOS>BOND
     1    29    28    2
     2    28    27    1
     3    25    23    1
     4    27    26    1
     5    27    30    1
     6    23    24    1
     7    23    20    1
     8    26    21   am
     9    30    31    1
    10    21    20    1
    11    21    22    2
    12    20    19    1
    13    31    33   ar
    14    31    32   ar
    15    33    35   ar
    16    19    17   am
    17    32    34   ar
    18    35    36   ar
    19    17    18    2
    20    17    16    1
    21    34    36   ar
    22    36    37    1
    23    16    15    2
    24    15    10    1
    25    10    11    2
    26    10     9    1
    27    12     9    1
    28    12    13    1
    29     9     8    1
    30    13    14    1
    31     8    14    1
    32     8     3   am
    33     4     3    2
    34     3     2    1
    35     6     5    1
    36     5     2    1
    37     5     7    1
    38     2     1    1
