@<TRIPOS>MOLECULE
1abb_PDP_A_1.pdb
 19 19 0 0 0
SMALL
GASTEIGER

@<TRIPOS>ATOM
      1  N1        41.4140    3.3910   29.3260 N.ar  931  PDP931     -0.2452
      2  C2        40.9220    2.4220   30.1220 C.ar  931  PDP931      0.0978
      3  C2A       40.7170    2.6780   31.5750 C.3   931  PDP931      0.0555
      4  C3        40.5490    1.2090   29.5710 C.ar  931  PDP931      0.2049
      5  O3        40.1120    0.1780   30.4080 O.3   931  PDP931     -0.2857
      6  C4        40.6810    0.9800   28.2270 C.ar  931  PDP931      0.0182
      7  C4A       40.1910   -0.2900   27.6030 C.3   931  PDP931      0.0342
      8  C5        41.2150    1.9520   27.4050 C.ar  931  PDP931      0.0260
      9  C6        41.5570    3.1940   27.9820 C.ar  931  PDP931      0.0965
     10  C5A       41.2120    1.7980   25.9540 C.3   931  PDP931      0.1769
     11  O5A       40.3980    2.9060   25.4280 O.3   931  PDP931     -0.3089
     12  PA        39.9560    3.3480   23.9240 P.3   931  PDP931      0.2233
     13  O1A       38.4830    3.1790   23.9660 O.3   931  PDP931     -0.4370
     14  O3A       40.0850    4.9370   23.4250 O.3   931  PDP931     -0.2261
     15  O2A       40.6210    2.4950   22.8970 O.2   931  PDP931     -0.5169
     16  PB        41.4870    5.8200   23.4270 P.3   931  PDP931      0.5373
     17  O1B       41.1380    6.9760   22.5660 O.2   931  PDP931     -0.2221
     18  O2B       41.6580    6.2570   24.8440 O.3   931  PDP931     -0.1143
     19  O3B       42.6080    4.9700   22.8700 O.3   931  PDP931     -0.1143
@<TRIPOS>BOND
     1    17    16    2
     2    19    16    1
     3    15    12    2
     4    14    16    1
     5    14    12    1
     6    16    18    1
     7    12    13    1
     8    12    11    1
     9    11    10    1
    10    10     8    1
    11     8     9   ar
    12     8     6   ar
    13     7     6    1
    14     9     1   ar
    15     6     4   ar
    16     1     2   ar
    17     4     2   ar
    18     4     5    1
    19     2     3    1
