@<TRIPOS>MOLECULE
1abb_IMP_A_1.pdb
 23 25 0 0 0
SMALL
GASTEIGER

@<TRIPOS>ATOM
      1  P         64.0920  -16.7920   35.2610 P.3   920  IMP920      0.5327
      2  O1P       63.3130  -17.2120   34.0860 O.2   920  IMP920     -0.2224
      3  O2P       63.9090  -15.3350   35.5440 O.3   920  IMP920     -0.1145
      4  O3P       65.4930  -17.0940   35.0920 O.3   920  IMP920     -0.1145
      5  O5'       63.7060  -17.7430   36.5690 O.3   920  IMP920     -0.2675
      6  C5'       62.3830  -18.0500   37.1130 C.3   920  IMP920      0.1860
      7  C4'       62.2420  -19.2800   38.0760 C.3   920  IMP920      0.1823
      8  O4'       62.6810  -20.3400   37.3430 O.3   920  IMP920     -0.3135
      9  C3'       63.0310  -19.3590   39.3440 C.3   920  IMP920      0.2184
     10  O3'       62.3320  -18.7650   40.4350 O.3   920  IMP920     -0.2174
     11  C2'       63.0820  -20.8690   39.6340 C.3   920  IMP920      0.2570
     12  O2'       61.9140  -21.2270   40.4040 O.3   920  IMP920     -0.2130
     13  C1'       62.9920  -21.4350   38.2540 C.3   920  IMP920      0.3186
     14  N9        64.2250  -22.0480   37.6590 N.pl3 920  IMP920     -0.1435
     15  C8        65.0780  -21.4040   36.7870 C.3   920  IMP920      0.3382
     16  N7        65.9330  -22.1710   36.1850 N.2   920  IMP920     -0.2054
     17  C5        65.6370  -23.4330   36.6560 C.2   920  IMP920      0.2446
     18  C6        66.2000  -24.6840   36.3540 C.1   920  IMP920      0.1792
     19  O6        67.1050  -24.8350   35.4100 O.2   920  IMP920     -0.2203
     20  N1        65.6960  -25.7610   36.9830 N.2   920  IMP920     -0.1458
     21  C2        64.6960  -25.5680   37.8530 C.3   920  IMP920      0.4017
     22  N3        64.0790  -24.4460   38.2260 N.2   920  IMP920     -0.0334
     23  C4        64.6080  -23.3830   37.5780 C.2   920  IMP920      0.3528
@<TRIPOS>BOND
     1     2     1    2
     2     4     1    1
     3     1     3    1
     4     1     5    1
     5    19    18    2
     6    16    17    2
     7    16    15    1
     8    18    17    1
     9    18    20    2
    10     5     6    1
    11    17    23    1
    12    15    14    1
    13    20    21    1
    14     6     7    1
    15     8     7    1
    16     8    13    1
    17    23    14    1
    18    23    22    2
    19    14    13    1
    20    21    22    1
    21     7     9    1
    22    13    11    1
    23     9    11    1
    24     9    10    1
    25    11    12    1
