@<TRIPOS>MOLECULE
1abe_ARB_A_1.pdb
 10 10 0 0 0
SMALL
GASTEIGER

@<TRIPOS>ATOM
      1  C1        14.3120   56.8760   55.1500 C.3   308  ARB308      0.3024
      2  C2        12.8860   57.2200   54.8460 C.3   308  ARB308      0.2434
      3  C3        12.3540   56.3080   53.7410 C.3   308  ARB308      0.2199
      4  C4        13.2740   56.3940   52.5190 C.3   308  ARB308      0.2143
      5  C5        14.6610   55.9060   52.9310 C.3   308  ARB308      0.1804
      6  O1        14.3620   55.6400   55.7720 O.3   308  ARB308     -0.1869
      7  O2        12.0710   57.1200   56.0210 O.3   308  ARB308     -0.2148
      8  O3        11.0230   56.6670   53.3830 O.3   308  ARB308     -0.2174
      9  O4        13.2910   57.7230   51.9820 O.3   308  ARB308     -0.2176
     10  O5        15.1820   56.7970   53.9740 O.3   308  ARB308     -0.3237
@<TRIPOS>BOND
     1     9     4    1
     2     4     5    1
     3     4     3    1
     4     5    10    1
     5     8     3    1
     6     3     2    1
     7    10     1    1
     8     2     1    1
     9     2     7    1
    10     1     6    1
