@<TRIPOS>MOLECULE
1abe_ARA_A_1.pdb
 10 10 0 0 0
SMALL
GASTEIGER

@<TRIPOS>ATOM
      1  C1        14.3120   56.5670   55.2040 C.3   307  ARA307      0.3024
      2  C2        12.8970   57.0410   54.9240 C.3   307  ARA307      0.2434
      3  C3        12.3320   56.2800   53.7250 C.3   307  ARA307      0.2199
      4  C4        13.2800   56.3730   52.5190 C.3   307  ARA307      0.2143
      5  C5        14.6610   55.8770   52.9310 C.3   307  ARA307      0.1804
      6  O1        14.7660   57.3640   56.2550 O.3   307  ARA307     -0.1869
      7  O2        12.0600   56.8900   56.0760 O.3   307  ARA307     -0.2148
      8  O3        11.0560   56.7750   53.3360 O.3   307  ARA307     -0.2174
      9  O4        13.3190   57.7020   51.9740 O.3   307  ARA307     -0.2176
     10  O5        15.1210   56.7460   54.0290 O.3   307  ARA307     -0.3237
@<TRIPOS>BOND
     1     9     4    1
     2     4     5    1
     3     4     3    1
     4     5    10    1
     5     8     3    1
     6     3     2    1
     7    10     1    1
     8     2     1    1
     9     2     7    1
    10     1     6    1
