@<TRIPOS>MOLECULE
1abf_FCA_A_1.pdb
 11 11 0 0 0
SMALL
GASTEIGER

@<TRIPOS>ATOM
      1  C1        14.2200   56.9530   55.1730 C.3   307  FCA307      0.3023
      2  C2        12.7840   57.2190   54.8070 C.3   307  FCA307      0.2434
      3  C3        12.2730   56.2710   53.7800 C.3   307  FCA307      0.2198
      4  C4        13.1220   56.4430   52.5260 C.3   307  FCA307      0.2118
      5  C5        14.6030   56.1780   52.8770 C.3   307  FCA307      0.1509
      6  C6        15.6060   56.4290   51.7640 C.3   307  FCA307      0.0350
      7  O1        14.4030   55.7180   55.7330 O.3   307  FCA307     -0.1869
      8  O2        11.9520   57.2620   56.0600 O.3   307  FCA307     -0.2148
      9  O3        10.8700   56.5300   53.4920 O.3   307  FCA307     -0.2174
     10  O4        12.9720   57.7720   51.9890 O.3   307  FCA307     -0.2177
     11  O5        15.0190   57.0540   53.9120 O.3   307  FCA307     -0.3264
@<TRIPOS>BOND
     1     6     5    1
     2    10     4    1
     3     4     5    1
     4     4     3    1
     5     5    11    1
     6     9     3    1
     7     3     2    1
     8    11     1    1
     9     2     1    1
    10     2     8    1
    11     1     7    1
