@<TRIPOS>MOLECULE
1abf_FCB_A_1.pdb
 11 11 0 0 0
SMALL
GASTEIGER

@<TRIPOS>ATOM
      1  C1        14.0920   56.3500   55.1960 C.3   308  FCB308      0.3023
      2  C2        12.6780   56.7670   54.8770 C.3   308  FCB308      0.2434
      3  C3        12.1960   56.1350   53.7720 C.3   308  FCB308      0.2198
      4  C4        13.0500   56.3570   52.4720 C.3   308  FCB308      0.2118
      5  C5        14.4700   55.8470   52.8300 C.3   308  FCB308      0.1509
      6  C6        15.5400   56.1490   51.8030 C.3   308  FCB308      0.0350
      7  O1        14.6250   57.1760   56.2160 O.3   308  FCB308     -0.1869
      8  O2        11.8630   56.4070   56.0450 O.3   308  FCB308     -0.2148
      9  O3        10.7590   56.5370   53.3900 O.3   308  FCB308     -0.2174
     10  O4        13.1270   57.7720   52.1760 O.3   308  FCB308     -0.2177
     11  O5        14.9130   56.4860   54.0370 O.3   308  FCB308     -0.3264
@<TRIPOS>BOND
     1     6     5    1
     2    10     4    1
     3     4     5    1
     4     4     3    1
     5     5    11    1
     6     9     3    1
     7     3     2    1
     8    11     1    1
     9     2     1    1
    10     2     8    1
    11     1     7    1
