@<TRIPOS>MOLECULE
1abj_0G6_H_1.pdb
 30 31 0 0 0
SMALL
GASTEIGER

@<TRIPOS>ATOM
      1  N          7.1260   14.3800   17.8750 N.3     1  0G61       -0.1227
      2  CA         6.7950   15.2340   16.7110 C.3     1  0G61        0.1725
      3  C          5.8920   16.3010   17.3090 C.2     1  0G61        0.2475
      4  O          6.1840   16.7760   18.4040 O.2     1  0G61       -0.2730
      5  CB         8.0750   15.7040   15.9970 C.3     1  0G61        0.0547
      6  CG         7.8810   16.6980   14.9010 C.ar    1  0G61       -0.0202
      7  CD1        7.4470   16.3080   13.6210 C.ar    1  0G61       -0.0042
      8  CD2        8.0550   18.0710   15.1780 C.ar    1  0G61       -0.0042
      9  CE1        7.3010   17.3380   12.6560 C.ar    1  0G61       -0.0003
     10  CE2        7.8180   19.0920   14.2570 C.ar    1  0G61       -0.0003
     11  CZ         7.4980   18.7100   12.9640 C.ar    1  0G61       -0.0000
     12  N1         4.8030   16.5900   16.6400 N.am    1  0G61       -0.2492
     13  CA1        3.8530   17.5980   17.1600 C.3     1  0G61        0.1619
     14  C1         3.2700   17.1580   18.4930 C.2     1  0G61        0.2605
     15  O1         3.0080   15.9670   18.7370 O.2     1  0G61       -0.2715
     16  CB1        2.8010   17.7630   16.0920 C.3     1  0G61        0.0570
     17  CG1        3.1250   16.8140   14.9770 C.2     1  0G61       -0.0077
     18  CD         4.3910   16.0370   15.3330 C.2     1  0G61        0.0634
     19  N2         3.0210   18.0690   19.3790 N.am    1  0G61       -0.1982
     20  CA2        2.3910   17.7920   20.6860 C.3     1  0G61        0.1524
     21  C2         0.9550   18.3540   20.6940 C.2     1  0G61        0.1707
     22  O2         0.2280   18.1610   21.7280 O.2     1  0G61       -0.2943
     23  CB2        3.3200   18.2700   21.8290 C.3     1  0G61        0.0329
     24  CG2        4.6450   17.4910   21.8870 C.3     1  0G61        0.0491
     25  CD3        5.6550   18.0970   22.8200 C.3     1  0G61        0.2205
     26  NE         6.6950   17.1280   23.2230 N.pl3   1  0G61       -0.0865
     27  CZ1        7.5990   17.2400   24.2020 C.cat   1  0G61        0.5346
     28  NH1        7.7160   18.3230   24.9790 N.pl3   1  0G61        0.1354
     29  NH2        8.3100   16.1310   24.5350 N.pl3   1  0G61        0.1354
     30  C3         0.4700   19.0380   19.7400 C.3     1  0G61        0.0741
@<TRIPOS>BOND
     1     9    11   ar
     2     9     7   ar
     3    11    10   ar
     4     7     6   ar
     5    10     8   ar
     6     6     8   ar
     7     6     5    1
     8    17    18    2
     9    17    16    1
    10    18    12    1
    11     5     2    1
    12    16    13    1
    13    12    13    1
    14    12     3   am
    15     2     3    1
    16     2     1    1
    17    13    14    1
    18     3     4    2
    19    14    15    2
    20    14    19   am
    21    19    20    1
    22    30    21    1
    23    20    21    1
    24    20    23    1
    25    21    22    2
    26    23    24    1
    27    24    25    1
    28    25    26    1
    29    26    27    2
    30    27    29    1
    31    27    28    1
