@<TRIPOS>MOLECULE
1abn_NDP_A_1.pdb
 48 52 0 0 0
SMALL
GASTEIGER

@<TRIPOS>ATOM
      1  PA        17.1090    4.0700   28.8710 P.3   351  NDP351      0.2189
      2  O1A       16.6690    4.6040   27.5760 O.2   351  NDP351     -0.5170
      3  O2A       18.2530    4.7170   29.5490 O.3   351  NDP351     -0.4371
      4  O5B       17.6120    2.5880   28.5260 O.3   351  NDP351     -0.3112
      5  C5B       17.7920    1.6420   29.6170 C.3   351  NDP351      0.1813
      6  C4B       18.0230    0.2430   29.0600 C.3   351  NDP351      0.1820
      7  O4B       19.0290    0.2940   27.9860 O.3   351  NDP351     -0.3136
      8  C3B       18.4570   -0.8740   30.0230 C.3   351  NDP351      0.2157
      9  O3B       17.8270   -2.0830   29.6810 O.3   351  NDP351     -0.2175
     10  C2B       19.9540   -0.9680   29.7400 C.3   351  NDP351      0.2314
     11  O2B       20.6060   -2.1990   30.0070 O.3   351  NDP351     -0.2630
     12  C1B       20.1050   -0.5890   28.2860 C.3   351  NDP351      0.3158
     13  N9A       21.5080    0.0180   28.2450 N.pl3 351  NDP351     -0.1439
     14  C8A       22.1990    1.0950   28.7180 C.3   351  NDP351      0.3377
     15  N7A       23.2540    1.4660   28.0180 N.2   351  NDP351     -0.2095
     16  C5A       23.3050    0.5260   26.9940 C.2   351  NDP351      0.2526
     17  C6A       24.1590    0.3440   25.8650 C.2   351  NDP351      0.4393
     18  N6A       25.2010    1.1500   25.5560 N.pl3 351  NDP351      0.2180
     19  N1A       23.8990   -0.6970   25.0360 N.2   351  NDP351      0.0021
     20  C2A       22.8690   -1.4990   25.3130 C.3   351  NDP351      0.5254
     21  N3A       22.0090   -1.4280   26.3360 N.2   351  NDP351     -0.0055
     22  C4A       22.2720   -0.3770   27.1320 C.2   351  NDP351      0.3518
     23  O3        15.8830    3.8160   29.7800 O.3   351  NDP351     -0.2703
     24  PN        15.4530    4.5650   31.0310 P.3   351  NDP351      0.2189
     25  O1N       15.5830    3.6010   32.1270 O.3   351  NDP351     -0.4371
     26  O2N       14.0780    5.1050   30.8480 O.2   351  NDP351     -0.5170
     27  O5D       16.5260    5.5500   31.3140 O.3   351  NDP351     -0.3112
     28  C5D       16.0450    6.7730   31.1410 C.3   351  NDP351      0.1813
     29  C4D       16.8510    7.7110   32.0180 C.3   351  NDP351      0.1799
     30  O4D       16.0890    8.9300   32.0180 O.3   351  NDP351     -0.3327
     31  C3D       17.1960    7.3770   33.5050 C.3   351  NDP351      0.2158
     32  O3D       18.5640    7.4750   33.7900 O.3   351  NDP351     -0.2175
     33  C2D       16.4130    8.3430   34.3760 C.3   351  NDP351      0.2309
     34  O2D       17.2980    9.1660   35.1360 O.3   351  NDP351     -0.2158
     35  C1D       15.6560    9.1850   33.3330 C.3   351  NDP351      0.2263
     36  N1N       14.1350    9.0570   33.3000 N.pl3 351  NDP351     -0.2787
     37  C2N       13.2600    9.9570   33.7870 C.3   351  NDP351      0.1244
     38  C3N       11.8740    9.7110   33.7380 C.2   351  NDP351      0.0544
     39  C7N       10.9300   10.5960   34.2190 C.2   351  NDP351      0.2818
     40  O7N        9.7300   10.3390   34.1400 O.2   351  NDP351     -0.2670
     41  N7N       11.2840   11.7330   34.7510 N.am  351  NDP351     -0.0839
     42  C4N       11.4370    8.5210   33.1540 C.2   351  NDP351      0.0033
     43  C5N       12.3640    7.6100   32.6560 C.2   351  NDP351      0.0157
     44  C6N       13.7210    7.9050   32.7380 C.2   351  NDP351      0.0633
     45  P2B       21.1650   -2.6370   31.4650 P.3   351  NDP351      0.5328
     46  O1X       22.6550   -2.7000   31.4360 O.2   351  NDP351     -0.2224
     47  O2X       20.7480   -1.6880   32.5250 O.3   351  NDP351     -0.1145
     48  O3X       20.6590   -4.0010   31.7780 O.3   351  NDP351     -0.1145
@<TRIPOS>BOND
     1    19    20    1
     2    19    17    2
     3    20    21    1
     4    18    17    1
     5    17    16    1
     6    21    22    2
     7    16    22    1
     8    16    15    2
     9    22    13    1
    10     2     1    2
    11     7    12    1
    12     7     6    1
    13    15    14    1
    14    13    12    1
    15    13    14    1
    16    12    10    1
    17     4     1    1
    18     4     5    1
    19     1     3    1
    20     1    23    1
    21     6     5    1
    22     6     8    1
    23     9     8    1
    24    10    11    1
    25    10     8    1
    26    23    24    1
    27    11    45    1
    28    26    24    2
    29    24    27    1
    30    24    25    1
    31    28    27    1
    32    28    29    1
    33    46    45    2
    34    45    48    1
    35    45    47    1
    36    29    30    1
    37    29    31    1
    38    30    35    1
    39    43    44    2
    40    43    42    1
    41    44    36    1
    42    42    38    2
    43    36    35    1
    44    36    37    1
    45    35    33    1
    46    31    32    1
    47    31    33    1
    48    38    37    1
    49    38    39    1
    50    40    39    2
    51    39    41   am
    52    33    34    1
