@<TRIPOS>MOLECULE
1abr_MAN_B_1.pdb
 15 15 0 0 0
SMALL
GASTEIGER

@<TRIPOS>ATOM
      1  C1        71.5130   31.5670    9.0700 C.3   276  MAN276      0.1739
      2  C2        70.1300   30.8120    8.9210 C.3   276  MAN276      0.1692
      3  C3        70.3870   29.2940    8.6830 C.3   276  MAN276      0.1689
      4  C4        71.3100   29.0810    7.4520 C.3   276  MAN276      0.1692
      5  C5        72.5630   29.9790    7.5580 C.3   276  MAN276      0.1736
      6  C6        72.6360   31.0150    6.4110 C.3   276  MAN276      0.1692
      7  O2        69.3790   31.3660    7.8360 O.3   276  MAN276     -0.3794
      8  O3        69.1370   28.6160    8.5010 O.3   276  MAN276     -0.3794
      9  O4        71.7160   27.7000    7.3880 O.3   276  MAN276     -0.3794
     10  O5        72.5910   30.6310    8.8430 O.3   276  MAN276     -0.3485
     11  O6        73.8300   31.7810    6.4860 O.3   276  MAN276     -0.3794
     12  HO2       69.2840   32.3170    7.9750 H     276  MAN276      0.2105
     13  HO3       69.2960   27.6870    8.3040 H     276  MAN276      0.2105
     14  HO4       70.9390   27.1420    7.3310 H     276  MAN276      0.2105
     15  HO6       73.8640   32.2320    7.3360 H     276  MAN276      0.2105
@<TRIPOS>BOND
     1     6    11    1
     2     6     5    1
     3    11    15    1
     4    14     9    1
     5     9     4    1
     6     4     5    1
     7     4     3    1
     8     5    10    1
     9     7    12    1
    10     7     2    1
    11    13     8    1
    12     8     3    1
    13     3     2    1
    14    10     1    1
    15     2     1    1
