@<TRIPOS>MOLECULE
1abs_HEM_A_1.pdb
 43 50 0 0 0
SMALL
GASTEIGER

@<TRIPOS>ATOM
      1 FE         34.8010    4.0740   10.4390 Fe    154  HEM154      0.0000
      2  CHA       37.4470    2.3900   11.6500 C.2   154  HEM154      0.0000
      3  CHB       36.7510    5.3820    8.0550 C.2   154  HEM154      0.0000
      4  CHC       32.3010    6.0980    9.4830 C.2   154  HEM154      0.0000
      5  CHD       33.0650    3.2740   13.2120 C.2   154  HEM154      0.0000
      6  NA        36.7040    3.9230    9.9570 N.ar  154  HEM154      0.0000
      7  C1A       37.6480    3.1360   10.4950 C.ar  154  HEM154      0.0000
      8  C2A       38.8280    3.1060    9.7580 C.ar  154  HEM154      0.0000
      9  C3A       38.6100    3.9680    8.7070 C.ar  154  HEM154      0.0000
     10  C4A       37.3310    4.4600    8.8970 C.ar  154  HEM154      0.0000
     11  CMA       39.5690    4.2960    7.5670 C.3   154  HEM154      0.0000
     12  CAA       40.0830    2.2760   10.0150 C.3   154  HEM154      0.0000
     13  CBA       40.1940    1.0640    9.0940 C.3   154  HEM154      0.0000
     14  CGA       38.9440    0.1870    9.0850 C.2   154  HEM154      0.0000
     15  O1A       38.6420   -0.4460   10.0990 O.co2 154  HEM154      0.0000
     16  O2A       38.2930    0.1160    8.0450 O.co2 154  HEM154      0.0000
     17  NB        34.5630    5.4270    9.0170 N.2   154  HEM154      0.0000
     18  C1B       35.4370    5.8110    8.0830 C.2   154  HEM154      0.0000
     19  C2B       34.8940    6.6620    7.1290 C.2   154  HEM154      0.0000
     20  C3B       33.6060    6.8770    7.5620 C.2   154  HEM154      0.0000
     21  C4B       33.4630    6.1250    8.7200 C.2   154  HEM154      0.0000
     22  CMB       35.5550    7.1780    5.8460 C.3   154  HEM154      0.0000
     23  CAB       32.6260    7.6550    6.9450 C.3   154  HEM154      0.0000
     24  CBB       32.8920    8.9280    6.2970 C.3   154  HEM154      0.0000
     25  NC        33.0060    4.5130   11.1470 N.ar  154  HEM154      0.0000
     26  C1C       32.1040    5.3820   10.6490 C.ar  154  HEM154      0.0000
     27  C2C       30.9710    5.5220   11.4450 C.ar  154  HEM154      0.0000
     28  C3C       31.2170    4.7080   12.5420 C.ar  154  HEM154      0.0000
     29  C4C       32.4570    4.1430   12.3190 C.ar  154  HEM154      0.0000
     30  CMC       29.7450    6.3870   11.1600 C.3   154  HEM154      0.0000
     31  CAC       30.3910    4.4290   13.6340 C.3   154  HEM154      0.0000
     32  CBC       29.1400    5.1080   13.9390 C.3   154  HEM154      0.0000
     33  ND        35.1640    3.0180   12.0630 N.2   154  HEM154      0.0000
     34  C1D       34.3410    2.7570   13.1000 C.2   154  HEM154      0.0000
     35  C2D       34.8990    1.9150   14.0450 C.2   154  HEM154      0.0000
     36  C3D       36.2020    1.7450   13.6450 C.2   154  HEM154      0.0000
     37  C4D       36.2980    2.3820   12.4180 C.2   154  HEM154      0.0000
     38  CMD       34.2260    1.3550   15.2830 C.3   154  HEM154      0.0000
     39  CAD       37.3200    1.1270   14.4490 C.3   154  HEM154      0.0000
     40  CBD       37.8740    2.1060   15.4710 C.3   154  HEM154      0.0000
     41  CGD       39.0430    1.5360   16.2500 C.2   154  HEM154      0.0000
     42  O1D       38.8880    1.3090   17.4460 O.co2 154  HEM154      0.0000
     43  O2D       40.1560    1.5970   15.7410 O.co2 154  HEM154      0.0000
@<TRIPOS>BOND
     1    22    19    1
     2    24    23    1
     3    23    20    1
     4    19    20    2
     5    19    18    1
     6    20    21    1
     7    11     9    1
     8    16    14   ar
     9     3    18    1
    10     3    10    2
    11    18    17    2
    12     9    10   ar
    13     9     8   ar
    14    21    17    1
    15    21     4    2
    16    10     6   ar
    17    17     1    1
    18    14    13    1
    19    14    15   ar
    20    13    12    1
    21     4    26    1
    22     8    12    1
    23     8     7   ar
    24     6     1    1
    25     6     7   ar
    26     1    25    1
    27     1    33    1
    28     7     2    2
    29    26    25   ar
    30    26    27   ar
    31    25    29   ar
    32    30    27    1
    33    27    28   ar
    34     2    37    1
    35    33    37    2
    36    33    34    1
    37    29    28   ar
    38    29     5    1
    39    37    36    1
    40    28    31    1
    41    34     5    2
    42    34    35    1
    43    31    32    1
    44    36    35    2
    45    36    39    1
    46    35    38    1
    47    39    40    1
    48    40    41    1
    49    43    41   ar
    50    41    42   ar
