@<TRIPOS>MOLECULE
1abw_HEM_A_1.pdb
 43 50 0 0 0
SMALL
GASTEIGER

@<TRIPOS>ATOM
      1  CHA       19.1170   18.4930   20.3080 C.2   284  HEM284      0.0000
      2  CHB       21.3990   20.5130   24.0960 C.2   284  HEM284      0.0000
      3  CHC       18.9670   17.6330   27.1770 C.2   284  HEM284      0.0000
      4  CHD       17.0340   15.3180   23.3740 C.2   284  HEM284      0.0000
      5  C1A       19.9260   19.3360   21.0770 C.2   284  HEM284      0.0000
      6  C2A       20.8980   20.2720   20.5440 C.2   284  HEM284      0.0000
      7  C3A       21.5730   20.7940   21.5940 C.2   284  HEM284      0.0000
      8  C4A       20.9940   20.2230   22.7910 C.2   284  HEM284      0.0000
      9  CMA       22.7510   21.7660   21.5450 C.3   284  HEM284      0.0000
     10  CAA       21.0560   20.4840   19.0490 C.3   284  HEM284      0.0000
     11  CBA       20.5640   21.8160   18.5060 C.3   284  HEM284      0.0000
     12  CGA       20.4300   21.8380   16.9730 C.2   284  HEM284      0.0000
     13  O1A       21.1200   21.0530   16.2730 O.co2 284  HEM284      0.0000
     14  O2A       19.6110   22.6490   16.4790 O.co2 284  HEM284      0.0000
     15  C1B       20.8960   19.9350   25.2690 C.ar  284  HEM284      0.0000
     16  C2B       21.3540   20.2600   26.5830 C.ar  284  HEM284      0.0000
     17  C3B       20.7650   19.3870   27.4330 C.ar  284  HEM284      0.0000
     18  C4B       19.7820   18.6460   26.6740 C.ar  284  HEM284      0.0000
     19  CMB       22.4050   21.3640   26.8420 C.3   284  HEM284      0.0000
     20  CAB       21.2670   19.0730   28.6820 C.2   284  HEM284      0.0000
     21  CBB       20.8440   19.5130   29.8920 C.2   284  HEM284      0.0000
     22  C1C       18.1550   16.7770   26.4170 C.2   284  HEM284      0.0000
     23  C2C       17.5200   15.5860   26.9220 C.2   284  HEM284      0.0000
     24  C3C       16.9980   14.9300   25.8630 C.2   284  HEM284      0.0000
     25  C4C       17.3450   15.6770   24.6830 C.2   284  HEM284      0.0000
     26  CMC       17.5350   15.1770   28.4030 C.3   284  HEM284      0.0000
     27  CAC       16.1910   13.7950   25.9120 C.3   284  HEM284      0.0000
     28  CBC       16.6240   12.5410   26.3660 C.3   284  HEM284      0.0000
     29  C1D       17.3610   16.0360   22.2080 C.ar  284  HEM284      0.0000
     30  C2D       16.9810   15.6610   20.8680 C.ar  284  HEM284      0.0000
     31  C3D       17.5650   16.5470   20.0200 C.ar  284  HEM284      0.0000
     32  C4D       18.2750   17.5000   20.8220 C.ar  284  HEM284      0.0000
     33  CMD       16.0230   14.5210   20.4260 C.3   284  HEM284      0.0000
     34  CAD       17.5250   16.6220   18.4900 C.3   284  HEM284      0.0000
     35  CBD       18.6060   15.6820   17.9830 C.3   284  HEM284      0.0000
     36  CGD       18.7860   15.7120   16.4770 C.2   284  HEM284      0.0000
     37  O1D       19.8940   16.0380   16.0380 O.co2 284  HEM284      0.0000
     38  O2D       17.8430   15.3720   15.7460 O.co2 284  HEM284      0.0000
     39  NA        19.9990   19.3220   22.4570 N.2   284  HEM284      0.0000
     40  NB        19.9020   18.9750   25.3430 N.ar  284  HEM284      0.0000
     41  NC        18.0000   16.8210   25.0430 N.2   284  HEM284      0.0000
     42  ND        18.0720   17.2150   22.1590 N.ar  284  HEM284      0.0000
     43 FE         18.8420   18.1550   23.7670 Fe    284  HEM284      0.0000
@<TRIPOS>BOND
     1    38    36   ar
     2    37    36   ar
     3    13    12   ar
     4    36    35    1
     5    14    12   ar
     6    12    11    1
     7    35    34    1
     8    34    31    1
     9    11    10    1
    10    10     6    1
    11    31    32   ar
    12    31    30   ar
    13     1    32    2
    14     1     5    1
    15    33    30    1
    16     6     5    1
    17     6     7    2
    18    32    42   ar
    19    30    29   ar
    20     5    39    2
    21     9     7    1
    22     7     8    1
    23    42    29   ar
    24    42    43    1
    25    29     4    2
    26    39     8    1
    27    39    43    1
    28     8     2    2
    29     4    25    1
    30    43    41    1
    31    43    40    1
    32     2    15    1
    33    25    41    2
    34    25    24    1
    35    41    22    1
    36    15    40   ar
    37    15    16   ar
    38    40    18   ar
    39    24    27    1
    40    24    23    2
    41    27    28    1
    42    22    23    1
    43    22     3    2
    44    16    19    1
    45    16    17   ar
    46    18     3    1
    47    18    17   ar
    48    23    26    1
    49    17    20    1
    50    20    21    2
