@<TRIPOS>MOLECULE
1aby_HEM_A_1.pdb
 43 50 0 0 0
SMALL
GASTEIGER

@<TRIPOS>ATOM
      1 FE          8.2380   35.0250   16.8970 Fe    286  HEM286      0.0000
      2  CHA        5.1200   34.9710   15.5980 C.2   286  HEM286      0.0000
      3  CHB        6.9810   35.7280   20.0050 C.2   286  HEM286      0.0000
      4  CHC       11.4430   35.1240   18.2620 C.2   286  HEM286      0.0000
      5  CHD        9.6360   34.8350   13.8060 C.2   286  HEM286      0.0000
      6  NA         6.4200   35.3430   17.6420 N.2   286  HEM286      0.0000
      7  C1A        5.2250   35.2300   16.9610 C.2   286  HEM286      0.0000
      8  C2A        4.1280   35.5840   17.8330 C.2   286  HEM286      0.0000
      9  C3A        4.6590   35.8400   19.0530 C.2   286  HEM286      0.0000
     10  C4A        6.0870   35.6550   18.9410 C.2   286  HEM286      0.0000
     11  CMA        3.9030   36.1790   20.3460 C.3   286  HEM286      0.0000
     12  CAA        2.6540   35.6370   17.4980 C.3   286  HEM286      0.0000
     13  CBA        2.2560   34.2260   17.1120 C.3   286  HEM286      0.0000
     14  CGA        0.7640   34.0620   16.8820 C.2   286  HEM286      0.0000
     15  O1A        0.0190   35.0620   16.9940 O.co2 286  HEM286      0.0000
     16  O2A        0.3390   32.9200   16.5970 O.co2 286  HEM286      0.0000
     17  NB         9.0520   35.2520   18.7810 N.ar  286  HEM286      0.0000
     18  C1B        8.3600   35.5300   19.9440 C.ar  286  HEM286      0.0000
     19  C2B        9.2660   35.5610   21.0830 C.ar  286  HEM286      0.0000
     20  C3B       10.5160   35.3510   20.5890 C.ar  286  HEM286      0.0000
     21  C4B       10.3840   35.2480   19.1480 C.ar  286  HEM286      0.0000
     22  CMB        8.8530   35.7210   22.5560 C.3   286  HEM286      0.0000
     23  CAB       11.7550   35.1590   21.2420 C.3   286  HEM286      0.0000
     24  CBB       12.2630   35.8990   22.3890 C.3   286  HEM286      0.0000
     25  NC        10.1550   34.8940   16.1820 N.2   286  HEM286      0.0000
     26  C1C       11.3360   34.9740   16.8910 C.2   286  HEM286      0.0000
     27  C2C       12.4470   35.0050   15.9870 C.2   286  HEM286      0.0000
     28  C3C       11.9430   34.9240   14.7370 C.2   286  HEM286      0.0000
     29  C4C       10.5180   34.8600   14.8590 C.2   286  HEM286      0.0000
     30  CMC       13.8910   35.1220   16.4680 C.3   286  HEM286      0.0000
     31  CAC       12.6230   34.9610   13.5700 C.3   286  HEM286      0.0000
     32  CBC       13.4970   36.0920   13.4090 C.3   286  HEM286      0.0000
     33  ND         7.5320   34.8840   15.0860 N.ar  286  HEM286      0.0000
     34  C1D        8.2550   34.8460   13.9150 C.ar  286  HEM286      0.0000
     35  C2D        7.3490   34.7710   12.7960 C.ar  286  HEM286      0.0000
     36  C3D        6.0900   34.8160   13.2980 C.ar  286  HEM286      0.0000
     37  C4D        6.1980   34.8330   14.7300 C.ar  286  HEM286      0.0000
     38  CMD        7.8260   34.5900   11.3580 C.3   286  HEM286      0.0000
     39  CAD        4.7720   34.8200   12.6230 C.3   286  HEM286      0.0000
     40  CBD        4.5420   35.8970   11.5980 C.3   286  HEM286      0.0000
     41  CGD        3.1710   35.7790   10.9810 C.2   286  HEM286      0.0000
     42  O1D        2.1640   36.0220   11.6980 O.co2 286  HEM286      0.0000
     43  O2D        3.1010   35.4080    9.7890 O.co2 286  HEM286      0.0000
@<TRIPOS>BOND
     1    43    41   ar
     2    41    40    1
     3    41    42   ar
     4    38    35    1
     5    40    39    1
     6    39    36    1
     7    35    36   ar
     8    35    34   ar
     9    36    37   ar
    10    32    31    1
    11    31    28    1
    12     5    34    2
    13     5    29    1
    14    34    33   ar
    15    37    33   ar
    16    37     2    2
    17    28    29    1
    18    28    27    2
    19    29    25    2
    20    33     1    1
    21     2     7    1
    22    27    30    1
    23    27    26    1
    24    25    26    1
    25    25     1    1
    26    16    14   ar
    27    14    15   ar
    28    14    13    1
    29    26     4    2
    30     1     6    1
    31     1    17    1
    32     7     6    2
    33     7     8    1
    34    13    12    1
    35    12     8    1
    36     6    10    1
    37     8     9    2
    38     4    21    1
    39    17    21   ar
    40    17    18   ar
    41    10     9    1
    42    10     3    2
    43     9    11    1
    44    21    20   ar
    45    18     3    1
    46    18    19   ar
    47    20    19   ar
    48    20    23    1
    49    19    22    1
    50    23    24    1
