@<TRIPOS>MOLECULE
1ac0_BGC_A_1.pdb
 21 21 0 0 0
SMALL
GASTEIGER

@<TRIPOS>ATOM
      1  C2        12.7220   -3.6940  -15.5460 C.3     2  BGC2        0.1122
      2  C3        13.9150   -3.0510  -14.8450 C.3     2  BGC2        0.1151
      3  C4        15.1330   -2.9840  -15.7660 C.3     2  BGC2        0.1500
      4  C5        14.8570   -3.6550  -17.1120 C.3     2  BGC2        0.1138
      5  C6        14.6310   -5.1510  -16.9940 C.3     2  BGC2        0.0730
      6  C1        12.5150   -3.0870  -16.9210 C.3     2  BGC2        0.1161
      7  O2        11.5530   -3.5040  -14.7630 O.3     2  BGC2       -0.3865
      8  O3        14.2440   -3.8010  -13.6850 O.3     2  BGC2       -0.3864
      9  O4        15.5120   -1.6100  -15.9750 O.3     2  BGC2       -0.2256
     10  O5        13.6850   -3.0850  -17.7320 O.3     2  BGC2       -0.3630
     11  O6        15.7180   -5.8780  -17.5480 O.3     2  BGC2       -0.3924
     12  H2        12.8780   -4.7740  -15.6430 H       2  BGC2        0.0647
     13  H3        13.6410   -2.0260  -14.5590 H       2  BGC2        0.0648
     14  H4        15.9590   -3.5210  -15.2800 H       2  BGC2        0.0682
     15  H5        15.7090   -3.4760  -17.7830 H       2  BGC2        0.0647
     16 H6C1       13.7020   -5.4390  -17.5020 H       2  BGC2        0.0584
     17 H6C2       14.5350   -5.4080  -15.9300 H       2  BGC2        0.0584
     18  H1        12.2950   -2.0100  -16.8690 H       2  BGC2        0.0650
     19  HB        11.4830   -4.2070  -14.1130 H       2  BGC2        0.2100
     20  HC        14.9200   -4.4450  -13.9050 H       2  BGC2        0.2100
     21  H6        15.7280   -5.7590  -18.5010 H       2  BGC2        0.2095
@<TRIPOS>BOND
     1    21    11    1
     2    15     4    1
     3    10     4    1
     4    10     6    1
     5    11     5    1
     6    16     5    1
     7     4     5    1
     8     4     3    1
     9     5    17    1
    10     6    18    1
    11     6     1    1
    12     9     3    1
    13     3    14    1
    14     3     2    1
    15    12     1    1
    16     1     2    1
    17     1     7    1
    18     2    13    1
    19     2     8    1
    20     7    19    1
    21    20     8    1
