@<TRIPOS>MOLECULE
1ac0_GLC_A_1.pdb
 21 21 0 0 0
SMALL
GASTEIGER

@<TRIPOS>ATOM
      1  C1        16.3410   -1.0700  -14.9850 C.3     3  GLC3        0.1161
      2  C2        15.7320    0.2250  -14.4590 C.3     3  GLC3        0.1122
      3  C3        16.5430    0.7300  -13.2720 C.3     3  GLC3        0.1151
      4  C4        18.0210    0.7350  -13.6360 C.3     3  GLC3        0.1500
      5  C5        18.2730    0.4010  -15.1110 C.3     3  GLC3        0.1138
      6  C6        19.7510    0.2820  -15.4320 C.3     3  GLC3        0.0730
      7  O2        15.7260    1.2050  -15.4870 O.3     3  GLC3       -0.3865
      8  O3        16.3280   -0.1170  -12.1520 O.3     3  GLC3       -0.3864
      9  O4        18.6580    1.9760  -13.2540 O.3     3  GLC3       -0.2256
     10  O5        17.6730   -0.8680  -15.4550 O.3     3  GLC3       -0.3630
     11  O6        19.9850    0.3930  -16.8280 O.3     3  GLC3       -0.3924
     12  H1        16.4190   -1.8230  -14.1860 H       3  GLC3        0.0650
     13  H2        14.7090    0.0220  -14.1170 H       3  GLC3        0.0647
     14  H3        16.2170    1.7510  -13.0210 H       3  GLC3        0.0648
     15  H4        18.5190   -0.0280  -13.0200 H       3  GLC3        0.0682
     16  H5        17.8210    1.1480  -15.7760 H       3  GLC3        0.0647
     17  H61       20.0910   -0.7050  -15.0880 H       3  GLC3        0.0584
     18  H62       20.3420    1.0220  -14.8770 H       3  GLC3        0.0584
     19  HO2       15.1250    0.9330  -16.1840 H       3  GLC3        0.2100
     20  HO3       17.0440   -0.7530  -12.0960 H       3  GLC3        0.2100
     21  HO6       20.3400    1.2620  -17.0290 H       3  GLC3        0.2095
@<TRIPOS>BOND
     1    21    11    1
     2    11     6    1
     3    19     7    1
     4    16     5    1
     5     7     2    1
     6    10     5    1
     7    10     1    1
     8     6     5    1
     9     6    17    1
    10     6    18    1
    11     5     4    1
    12     1     2    1
    13     1    12    1
    14     2    13    1
    15     2     3    1
    16     4     3    1
    17     4     9    1
    18     4    15    1
    19     3    14    1
    20     3     8    1
    21     8    20    1
