@<TRIPOS>MOLECULE
1ac4_HEM_A_1.pdb
 43 50 0 0 0
SMALL
GASTEIGER

@<TRIPOS>ATOM
      1 FE         -5.6990   57.1570  111.7850 Fe    295  HEM295      0.0000
      2  CHA       -5.5710   53.9900  113.0210 C.2   295  HEM295      0.0000
      3  CHB       -7.5280   58.1450  114.4420 C.2   295  HEM295      0.0000
      4  CHC       -5.8700   60.3110  110.5030 C.2   295  HEM295      0.0000
      5  CHD       -3.5720   56.2980  109.3830 C.2   295  HEM295      0.0000
      6  NA        -6.5140   56.2060  113.4350 N.2   295  HEM295      0.0000
      7  C1A       -6.2860   54.9340  113.7860 C.2   295  HEM295      0.0000
      8  C2A       -6.8300   54.6760  115.0160 C.2   295  HEM295      0.0000
      9  C3A       -7.4110   55.8640  115.4440 C.2   295  HEM295      0.0000
     10  C4A       -7.1630   56.7790  114.4460 C.2   295  HEM295      0.0000
     11  CMA       -8.1430   56.0750  116.7780 C.3   295  HEM295      0.0000
     12  CAA       -6.7460   53.3340  115.7400 C.3   295  HEM295      0.0000
     13  CBA       -5.4840   53.1440  116.5670 C.3   295  HEM295      0.0000
     14  CGA       -5.3830   51.8020  117.2980 C.2   295  HEM295      0.0000
     15  O1A       -6.2130   51.4720  118.1490 O.co2 295  HEM295      0.0000
     16  O2A       -4.4340   51.0490  117.0680 O.co2 295  HEM295      0.0000
     17  NB        -6.6740   58.8990  112.2970 N.ar  295  HEM295      0.0000
     18  C1B       -7.3410   59.1190  113.4480 C.ar  295  HEM295      0.0000
     19  C2B       -7.8710   60.4100  113.4790 C.ar  295  HEM295      0.0000
     20  C3B       -7.4360   61.0030  112.2890 C.ar  295  HEM295      0.0000
     21  C4B       -6.6330   60.0700  111.6560 C.ar  295  HEM295      0.0000
     22  CMB       -8.7430   60.9350  114.6260 C.3   295  HEM295      0.0000
     23  CAB       -7.7220   62.2350  111.7000 C.3   295  HEM295      0.0000
     24  CBB       -8.6970   63.1880  112.1200 C.3   295  HEM295      0.0000
     25  NC        -4.8650   58.1320  110.2100 N.2   295  HEM295      0.0000
     26  C1C       -5.0350   59.4140  109.8250 C.2   295  HEM295      0.0000
     27  C2C       -4.2760   59.7300  108.7040 C.2   295  HEM295      0.0000
     28  C3C       -3.5780   58.5500  108.4260 C.2   295  HEM295      0.0000
     29  C4C       -3.9900   57.6210  109.3580 C.2   295  HEM295      0.0000
     30  CMC       -4.1770   61.1290  108.0540 C.3   295  HEM295      0.0000
     31  CAC       -2.6530   58.2400  107.4170 C.3   295  HEM295      0.0000
     32  CBC       -2.2780   59.0550  106.3050 C.3   295  HEM295      0.0000
     33  ND        -4.6420   55.4430  111.3360 N.ar  295  HEM295      0.0000
     34  C1D       -3.9090   55.2870  110.2350 C.ar  295  HEM295      0.0000
     35  C2D       -3.6110   53.9590  110.0020 C.ar  295  HEM295      0.0000
     36  C3D       -4.2370   53.2410  111.0210 C.ar  295  HEM295      0.0000
     37  C4D       -4.8430   54.2100  111.8360 C.ar  295  HEM295      0.0000
     38  CMD       -2.9010   53.3740  108.7950 C.3   295  HEM295      0.0000
     39  CAD       -4.1950   51.7120  111.1710 C.3   295  HEM295      0.0000
     40  CBD       -3.1450   51.2990  112.2180 C.3   295  HEM295      0.0000
     41  CGD       -3.0200   49.8290  112.6200 C.2   295  HEM295      0.0000
     42  O1D       -2.3750   49.5290  113.6230 O.co2 295  HEM295      0.0000
     43  O2D       -3.5560   48.9630  111.9400 O.co2 295  HEM295      0.0000
@<TRIPOS>BOND
     1    32    31    1
     2    31    28    1
     3    30    27    1
     4    28    27    2
     5    28    29    1
     6    27    26    1
     7    38    35    1
     8    29     5    1
     9    29    25    2
    10     5    34    2
    11    26    25    1
    12    26     4    2
    13    35    34   ar
    14    35    36   ar
    15    25     1    1
    16    34    33   ar
    17     4    21    1
    18    36    39    1
    19    36    37   ar
    20    39    40    1
    21    33     1    1
    22    33    37   ar
    23    21    20   ar
    24    21    17   ar
    25    23    24    1
    26    23    20    1
    27     1    17    1
    28     1     6    1
    29    37     2    2
    30    43    41   ar
    31    40    41    1
    32    20    19   ar
    33    17    18   ar
    34    41    42   ar
    35     2     7    1
    36     6     7    2
    37     6    10    1
    38    18    19   ar
    39    18     3    1
    40    19    22    1
    41     7     8    1
    42     3    10    2
    43    10     9    1
    44     8     9    2
    45     8    12    1
    46     9    11    1
    47    12    13    1
    48    13    14    1
    49    16    14   ar
    50    14    15   ar
