@<TRIPOS>MOLECULE
1ac8_HEM_A_1.pdb
 43 50 0 0 0
SMALL
GASTEIGER

@<TRIPOS>ATOM
      1 FE         28.1800   93.9400   52.9900 Fe    295  HEM295      0.0000
      2  CHA       28.0200   95.9800   50.3200 C.2   295  HEM295      0.0000
      3  CHB       30.4800   95.9500   54.3900 C.2   295  HEM295      0.0000
      4  CHC       28.5000   91.7800   55.6000 C.2   295  HEM295      0.0000
      5  CHD       25.6600   92.0900   51.7500 C.2   295  HEM295      0.0000
      6  NA        29.2500   95.6100   52.3700 N.2   295  HEM295      0.0000
      7  C1A       28.9700   96.3600   51.3000 C.2   295  HEM295      0.0000
      8  C2A       29.7000   97.5300   51.3000 C.2   295  HEM295      0.0000
      9  C3A       30.4100   97.5100   52.4900 C.2   295  HEM295      0.0000
     10  C4A       30.0600   96.3400   53.1200 C.2   295  HEM295      0.0000
     11  CMA       31.3700   98.5500   53.0000 C.3   295  HEM295      0.0000
     12  CAA       29.7100   98.6100   50.2300 C.3   295  HEM295      0.0000
     13  CBA       28.5300   99.5700   50.3300 C.3   295  HEM295      0.0000
     14  CGA       28.5300  100.5700   49.2000 C.2   295  HEM295      0.0000
     15  O1A       29.5000  101.2700   48.9800 O.co2 295  HEM295      0.0000
     16  O2A       27.5600  100.7000   48.4900 O.co2 295  HEM295      0.0000
     17  NB        29.2900   93.8900   54.7400 N.ar  295  HEM295      0.0000
     18  C1B       30.1700   94.8000   55.1200 C.ar  295  HEM295      0.0000
     19  C2B       30.8000   94.4700   56.3000 C.ar  295  HEM295      0.0000
     20  C3B       30.2800   93.1900   56.6200 C.ar  295  HEM295      0.0000
     21  C4B       29.3300   92.9000   55.6400 C.ar  295  HEM295      0.0000
     22  CMB       31.8700   95.3400   56.9500 C.3   295  HEM295      0.0000
     23  CAB       30.6200   92.3000   57.6400 C.3   295  HEM295      0.0000
     24  CBB       31.7100   92.4100   58.6000 C.3   295  HEM295      0.0000
     25  NC        27.1400   92.2900   53.6500 N.2   295  HEM295      0.0000
     26  C1C       27.4500   91.5100   54.7100 C.2   295  HEM295      0.0000
     27  C2C       26.5600   90.4500   54.8300 C.2   295  HEM295      0.0000
     28  C3C       25.6500   90.6200   53.7500 C.2   295  HEM295      0.0000
     29  C4C       26.1300   91.7000   53.0100 C.2   295  HEM295      0.0000
     30  CMC       26.5300   89.4900   56.0300 C.3   295  HEM295      0.0000
     31  CAC       24.4900   89.9200   53.3500 C.3   295  HEM295      0.0000
     32  CBC       24.0100   88.6300   53.8300 C.3   295  HEM295      0.0000
     33  ND        27.0700   93.9800   51.2500 N.ar  295  HEM295      0.0000
     34  C1D       26.1200   93.1000   50.9000 C.ar  295  HEM295      0.0000
     35  C2D       25.7100   93.3100   49.5900 C.ar  295  HEM295      0.0000
     36  C3D       26.3900   94.4500   49.1700 C.ar  295  HEM295      0.0000
     37  C4D       27.1800   94.8500   50.2500 C.ar  295  HEM295      0.0000
     38  CMD       24.7500   92.4600   48.7600 C.3   295  HEM295      0.0000
     39  CAD       26.3000   95.1000   47.8000 C.3   295  HEM295      0.0000
     40  CBD       25.4500   96.3600   47.7900 C.3   295  HEM295      0.0000
     41  CGD       25.3300   97.0700   46.4500 C.2   295  HEM295      0.0000
     42  O1D       24.8800   98.2000   46.4100 O.co2 295  HEM295      0.0000
     43  O2D       25.6700   96.5200   45.4100 O.co2 295  HEM295      0.0000
@<TRIPOS>BOND
     1    43    41   ar
     2    42    41   ar
     3    41    40    1
     4    40    39    1
     5    39    36    1
     6    16    14   ar
     7    38    35    1
     8    15    14   ar
     9    36    35   ar
    10    36    37   ar
    11    14    13    1
    12    35    34   ar
    13    12    13    1
    14    12     8    1
    15    37     2    2
    16    37    33   ar
    17     2     7    1
    18    34    33   ar
    19    34     5    2
    20    33     1    1
    21     7     8    1
    22     7     6    2
    23     8     9    2
    24     5    29    1
    25     6     1    1
    26     6    10    1
    27     9    11    1
    28     9    10    1
    29     1    25    1
    30     1    17    1
    31    29    25    2
    32    29    28    1
    33    10     3    2
    34    31    28    1
    35    31    32    1
    36    25    26    1
    37    28    27    2
    38     3    18    1
    39    26    27    1
    40    26     4    2
    41    17    18   ar
    42    17    21   ar
    43    27    30    1
    44    18    19   ar
    45     4    21    1
    46    21    20   ar
    47    19    20   ar
    48    19    22    1
    49    20    23    1
    50    23    24    1
