@<TRIPOS>MOLECULE
1acj_THA_A_1.pdb
 15 17 0 0 0
SMALL
GASTEIGER

@<TRIPOS>ATOM
      1  C1         6.3620   71.2610   69.0250 C.2   999  THA999     -0.0229
      2  C2         6.6970   70.9550   67.7120 C.3   999  THA999      0.0843
      3  C3         5.7190   70.5180   66.8190 C.2   999  THA999      0.1098
      4  C4         4.3510   70.3810   67.2600 C.2   999  THA999      0.0209
      5  C5         4.0560   70.7020   68.6030 C.3   999  THA999      0.0553
      6  C6         5.0530   71.1360   69.4680 C.2   999  THA999     -0.0254
      7  N7         6.0680   70.2360   65.5850 N.2   999  THA999     -0.4144
      8  C8         5.2070   69.8210   64.6830 C.2   999  THA999      0.0912
      9  C9         3.8330   69.6340   64.9950 C.3   999  THA999      0.0871
     10  C10        3.3960   69.9330   66.3090 C.2   999  THA999      0.0712
     11  C11        5.7760   69.4590   63.2890 C.3   999  THA999      0.0548
     12  C12        4.7360   69.3630   62.1450 C.3   999  THA999      0.0071
     13  C13        3.5150   68.5400   62.5970 C.3   999  THA999      0.0012
     14  C14        2.8600   69.1770   63.8480 C.3   999  THA999      0.0125
     15  N15        2.0920   69.7980   66.6250 N.pl3 999  THA999     -0.1326
@<TRIPOS>BOND
     1    12    13    1
     2    12    11    1
     3    13    14    1
     4    11     8    1
     5    14     9    1
     6     8     9    1
     7     8     7    2
     8     9    10    1
     9     7     3    2
    10    10    15    1
    11    10     4    2
    12     3     4    1
    13     3     2    1
    14     4     5    1
    15     2     1    1
    16     5     6    1
    17     1     6    2
