@<TRIPOS>MOLECULE
1acl_DME_A_1.pdb
 18 17 0 0 0
SMALL
GASTEIGER

@<TRIPOS>ATOM
      1  N1         0.3540   62.2480   71.5670 N.4   999  DME999      0.3857
      2  C2         1.1740   62.2950   70.3400 C.3   999  DME999     -0.0733
      3  C3         1.9390   63.6250   70.2940 C.3   999  DME999     -0.0223
      4  C4         3.2110   63.7240   69.4520 C.3   999  DME999     -0.0021
      5  C5         3.7670   65.1430   69.6950 C.3   999  DME999     -0.0001
      6  C6         5.0090   65.5070   68.8920 C.3   999  DME999      0.0003
      7  C7         4.7490   66.4850   67.7710 C.3   999  DME999      0.0047
      8  C8         4.3390   67.9200   68.1360 C.3   999  DME999      0.0256
      9  C9         3.7110   68.6500   66.9140 C.2   999  DME999     -0.0328
     10  C10        4.2920   68.2410   65.5340 C.2   999  DME999     -0.0531
     11  C11        3.8400   69.0560   64.2930 C.3   999  DME999     -0.0466
     12  N12        4.7660   68.9640   63.1150 N.4   999  DME999      0.3884
     13  C13       -0.3820   63.5210   71.7960 C.3   999  DME999     -0.0960
     14  C14       -0.6830   61.2010   71.4540 C.3   999  DME999     -0.0960
     15  C15        1.2030   61.9000   72.7340 C.3   999  DME999     -0.0960
     16  C16        5.9640   69.8160   63.3260 C.3   999  DME999     -0.0955
     17  C17        4.0720   69.3780   61.8850 C.3   999  DME999     -0.0955
     18  C18        5.1670   67.5710   62.8830 C.3   999  DME999     -0.0955
@<TRIPOS>BOND
     1    17    12    1
     2    18    12    1
     3    12    16    1
     4    12    11    1
     5    11    10    1
     6    10     9    2
     7     9     8    1
     8     7     8    1
     9     7     6    1
    10     6     5    1
    11     4     5    1
    12     4     3    1
    13     3     2    1
    14     2     1    1
    15    14     1    1
    16     1    13    1
    17     1    15    1
