@<TRIPOS>MOLECULE
1acm_PAL_A_1.pdb
 16 15 0 0 0
SMALL
GASTEIGER

@<TRIPOS>ATOM
      1  P         46.2800   29.4470   15.9250 P.3   311  PAL311      0.1264
      2  O1P       46.0980   30.1730   17.2950 O.3   311  PAL311     -0.3568
      3  O2P       47.3790   28.3160   15.8980 O.3   311  PAL311     -0.3568
      4  O3P       46.5750   30.5510   14.8660 O.2   311  PAL311     -0.4596
      5  C1P       44.7000   28.6050   15.5040 C.3   311  PAL311      0.1454
      6  C1        43.5140   29.5120   15.7690 C.2   311  PAL311      0.2492
      7  O1        43.2480   30.4700   15.0320 O.2   311  PAL311     -0.2728
      8  N2        42.8040   29.2420   16.8690 N.am  311  PAL311     -0.1946
      9  C2        41.6680   30.0370   17.3020 C.3   311  PAL311      0.2090
     10  C4        41.9850   31.4340   17.8360 C.2   311  PAL311      0.3848
     11  O2        41.0640   32.1840   18.1300 O.co2 311  PAL311     -0.2437
     12  O3        43.1480   31.7810   17.9920 O.co2 311  PAL311     -0.2437
     13  C3        40.9170   29.2080   18.3390 C.3   311  PAL311      0.1472
     14  C5        41.6340   28.8680   19.6480 C.2   311  PAL311      0.3672
     15  O4        42.7570   29.3220   19.9010 O.co2 311  PAL311     -0.2456
     16  O5        41.0420   28.1400   20.4400 O.co2 311  PAL311     -0.2456
@<TRIPOS>BOND
     1     4     1    2
     2     7     6    2
     3     5     6    1
     4     5     1    1
     5     6     8   am
     6     3     1    1
     7     1     2    1
     8     8     9    1
     9     9    10    1
    10     9    13    1
    11    10    12   ar
    12    10    11   ar
    13    13    14    1
    14    14    15   ar
    15    14    16   ar
