@<TRIPOS>MOLECULE
1aco_TRA_A_1.pdb
 12 11 0 0 0
SMALL
GASTEIGER

@<TRIPOS>ATOM
      1  CA        36.6080   34.6410   73.2690 C.2   755  TRA755      0.0890
      2  CB        35.8370   34.1500   72.2900 C.2   755  TRA755      0.0754
      3  CG        36.3280   33.8810   70.8090 C.3   755  TRA755      0.1471
      4  CAC       38.0250   35.0480   73.0680 C.2   755  TRA755      0.3879
      5  CBC       34.3940   33.8400   72.7050 C.2   755  TRA755      0.3846
      6  CGC       35.4990   34.7560   69.9400 C.2   755  TRA755      0.3694
      7  OA1       38.1510   36.2650   72.7950 O.co2 755  TRA755     -0.2406
      8  OA2       38.9750   34.2400   73.2040 O.co2 755  TRA755     -0.2406
      9  OB1       33.5110   33.7490   71.8330 O.co2 755  TRA755     -0.2409
     10  OB2       34.0840   33.7530   73.8950 O.co2 755  TRA755     -0.2409
     11  OG1       35.3450   35.9800   70.1410 O.co2 755  TRA755     -0.2453
     12  OG2       34.9590   34.1970   68.9490 O.co2 755  TRA755     -0.2453
@<TRIPOS>BOND
     1    12     6   ar
     2     6    11   ar
     3     6     3    1
     4     3     2    1
     5     9     5   ar
     6     2     5    1
     7     2     1    2
     8     5    10   ar
     9     7     4   ar
    10     4     8   ar
    11     4     1    1
