@<TRIPOS>MOLECULE
1acz_GLC_A_1.pdb
 11 11 0 0 0
SMALL
GASTEIGER

@<TRIPOS>ATOM
      1  C1       -18.8180   10.5580   -3.8520 C.3   617  GLC617      0.1777
      2  C2       -17.4830   10.1550   -3.2690 C.3   617  GLC617      0.2141
      3  C3       -16.3770   10.9350   -3.9760 C.3   617  GLC617      0.2173
      4  C4       -16.6820   12.4520   -4.0270 C.3   617  GLC617      0.2142
      5  C5       -18.1610   12.8190   -4.2500 C.3   617  GLC617      0.1810
      6  C6       -18.5290   12.7670   -5.7180 C.3   617  GLC617      0.2141
      7  O2       -17.4700   10.4350   -1.8770 O.3   617  GLC617     -0.2176
      8  O3       -16.2510   10.4440   -5.3020 O.3   617  GLC617     -0.2175
      9  O4       -16.1720   13.1280   -2.8610 O.3   617  GLC617     -0.2176
     10  O5       -19.0470   11.9200   -3.5600 O.3   617  GLC617     -0.3481
     11  O6       -19.7740   12.1140   -5.9160 O.3   617  GLC617     -0.2176
@<TRIPOS>BOND
     1    11     6    1
     2     6     5    1
     3     8     3    1
     4     5     4    1
     5     5    10    1
     6     4     3    1
     7     4     9    1
     8     3     2    1
     9     1    10    1
    10     1     2    1
    11     2     7    1
