@<TRIPOS>MOLECULE
1ad3_NAD_A_1.pdb
 44 48 0 0 0
SMALL
GASTEIGER

@<TRIPOS>ATOM
      1  PA        37.0900   31.5900   29.4510 P.3   600  NAD600      0.2189
      2  O1A       38.1980   32.0030   28.4940 O.2   600  NAD600     -0.5170
      3  O2A       36.1300   30.5320   28.8830 O.3   600  NAD600     -0.4371
      4  O5B       36.1900   32.8650   29.8790 O.3   600  NAD600     -0.3112
      5  C5B       36.8330   34.1680   29.7600 C.3   600  NAD600      0.1813
      6  C4B       35.8880   35.3150   30.0730 C.3   600  NAD600      0.1821
      7  O4B       36.8620   36.4140   30.2930 O.3   600  NAD600     -0.3135
      8  C3B       35.1440   35.6680   28.7650 C.3   600  NAD600      0.2184
      9  O3B       33.7710   36.0530   28.9780 O.3   600  NAD600     -0.2174
     10  C2B       35.9100   36.8680   28.1650 C.3   600  NAD600      0.2570
     11  O2B       35.2200   37.8460   27.3240 O.3   600  NAD600     -0.2130
     12  C1B       36.5310   37.5310   29.3960 C.3   600  NAD600      0.3186
     13  N9A       37.7270   38.3360   29.0440 N.pl3 600  NAD600     -0.1439
     14  C8A       38.7800   37.7580   28.4460 C.3   600  NAD600      0.3377
     15  N7A       39.6710   38.7290   28.1730 N.2   600  NAD600     -0.2095
     16  C5A       39.1400   39.8780   28.6120 C.2   600  NAD600      0.2526
     17  C6A       39.7270   41.1340   28.5170 C.2   600  NAD600      0.4393
     18  N6A       40.9420   41.2620   27.9770 N.pl3 600  NAD600      0.2180
     19  N1A       39.0000   42.1680   29.0040 N.2   600  NAD600      0.0021
     20  C2A       37.8100   41.9310   29.5820 C.3   600  NAD600      0.5254
     21  N3A       37.2430   40.7130   29.6870 N.2   600  NAD600     -0.0055
     22  C4A       37.9030   39.6610   29.1720 C.2   600  NAD600      0.3518
     23  O3        37.7050   31.0450   30.8260 O.3   600  NAD600     -0.2703
     24  PN        37.6970   31.8340   32.2690 P.3   600  NAD600      0.2189
     25  O1N       36.3040   31.9390   32.7770 O.3   600  NAD600     -0.4371
     26  O2N       38.6890   32.9570   32.1920 O.2   600  NAD600     -0.5170
     27  O5D       38.4260   30.8000   33.2970 O.3   600  NAD600     -0.3112
     28  C5D       39.8410   30.5320   33.3100 C.3   600  NAD600      0.1813
     29  C4D       40.1150   29.7760   34.6420 C.3   600  NAD600      0.1799
     30  O4D       39.6020   30.5070   35.8350 O.3   600  NAD600     -0.3327
     31  C3D       39.4280   28.3830   34.7580 C.3   600  NAD600      0.2158
     32  O3D       40.1920   27.5740   35.6970 O.3   600  NAD600     -0.2175
     33  C2D       38.0330   28.7370   35.3110 C.3   600  NAD600      0.2309
     34  O2D       37.4490   27.6270   35.9870 O.3   600  NAD600     -0.2158
     35  C1D       38.4770   29.7520   36.3470 C.3   600  NAD600      0.2263
     36  N1N       37.3910   30.6680   36.7800 N.pl3 600  NAD600     -0.2787
     37  C2N       36.2230   30.8910   36.0750 C.3   600  NAD600      0.1244
     38  C3N       35.2230   31.6510   36.6840 C.2   600  NAD600      0.0544
     39  C7N       33.8170   31.9840   36.1160 C.2   600  NAD600      0.2818
     40  O7N       32.8520   32.1490   36.9130 O.2   600  NAD600     -0.2670
     41  N7N       33.7830   32.0230   34.7760 N.am  600  NAD600     -0.0839
     42  C4N       35.3940   32.1690   37.9700 C.2   600  NAD600      0.0033
     43  C5N       36.6170   31.9270   38.5860 C.2   600  NAD600      0.0157
     44  C6N       37.6920   31.2050   38.0580 C.2   600  NAD600      0.0633
@<TRIPOS>BOND
     1    11    10    1
     2    18    17    1
     3    10     8    1
     4    10    12    1
     5    15    14    1
     6    15    16    2
     7    14    13    1
     8     2     1    2
     9    17    16    1
    10    17    19    2
    11    16    22    1
    12     8     9    1
    13     8     6    1
    14     3     1    1
    15    19    20    1
    16    13    22    1
    17    13    12    1
    18    22    21    2
    19    12     7    1
    20     1     4    1
    21     1    23    1
    22    20    21    1
    23     5     4    1
    24     5     6    1
    25     6     7    1
    26    23    24    1
    27    26    24    2
    28    24    25    1
    29    24    27    1
    30    27    28    1
    31    28    29    1
    32    29    31    1
    33    29    30    1
    34    31    33    1
    35    31    32    1
    36    41    39   am
    37    33    34    1
    38    33    35    1
    39    30    35    1
    40    37    38    1
    41    37    36    1
    42    39    38    1
    43    39    40    2
    44    35    36    1
    45    38    42    2
    46    36    44    1
    47    42    43    1
    48    44    43    2
