@<TRIPOS>MOLECULE
1ad4_HH2_A_1.pdb
 22 23 0 0 0
SMALL
GASTEIGER

@<TRIPOS>ATOM
      1  N1        32.9650    8.6610   39.9020 N.2   271  HH2271     -0.3831
      2  C2        32.8250    8.6380   41.2180 C.2   271  HH2271      0.1441
      3  C3        33.8330    7.9600   42.1150 C.3   271  HH2271      0.1939
      4  N4        34.9990    7.3840   41.4130 N.2   271  HH2271     -0.1992
      5  N5        36.1680    6.9530   39.4130 N.2   271  HH2271     -0.2672
      6  C6        36.2960    7.0490   38.0320 C.1   271  HH2271      0.2609
      7  N6        37.4610    6.4850   37.5520 N.pl3 271  HH2271     -0.0220
      8  N7        35.3800    7.6470   37.2640 N.2   271  HH2271     -0.2466
      9  C8        34.3080    8.1720   37.8580 C.1   271  HH2271      0.2569
     10  O8        33.4110    8.8300   37.0890 O.2   271  HH2271     -0.2052
     11  C9        34.1030    8.0880   39.2360 C.2   271  HH2271      0.2989
     12  C10       35.0540    7.4800   40.0410 C.1   271  HH2271      0.1401
     13  C11       31.6210    9.3260   41.7970 C.3   271  HH2271      0.2051
     14  O4        31.6690    9.2820   43.2200 O.3   271  HH2271     -0.3064
     15  P1        30.3450    9.3530   44.1550 P.3   271  HH2271      0.2234
     16  O1P       29.5760   10.5810   43.8250 O.2   271  HH2271     -0.5169
     17  O2P       30.7480    9.2200   45.5800 O.3   271  HH2271     -0.4370
     18  O3P       29.4730    8.0530   43.7310 O.3   271  HH2271     -0.2261
     19  P2        29.9340    6.5230   43.4210 P.3   271  HH2271      0.5373
     20  O4P       30.2570    6.4690   41.9660 O.2   271  HH2271     -0.2221
     21  O5P       28.7510    5.6700   43.7640 O.3   271  HH2271     -0.1143
     22  O6P       31.1190    6.2240   44.2850 O.3   271  HH2271     -0.1143
@<TRIPOS>BOND
     1    10     9    2
     2     8     9    2
     3     8     6    2
     4     7     6    1
     5     9    11    1
     6     6     5    2
     7    11     1    2
     8    11    12    1
     9     5    12    2
    10     1     2    2
    11    12     4    2
    12     2    13    1
    13     2     3    1
    14     4     3    1
    15    13    14    1
    16    20    19    2
    17    14    15    1
    18    19    18    1
    19    19    21    1
    20    19    22    1
    21    18    15    1
    22    16    15    2
    23    15    17    1
