@<TRIPOS>MOLECULE
1ad5_ANP_A_1.pdb
 31 33 0 0 0
SMALL
GASTEIGER

@<TRIPOS>ATOM
      1  PG        22.2240   47.7590  101.6020 P.3     1  ANP1        0.4884
      2  O1G       21.0710   47.2370  102.3920 O.3     1  ANP1       -0.1240
      3  O2G       22.7660   46.8070  100.5920 O.2     1  ANP1       -0.2331
      4  O3G       22.0550   49.1540  101.1170 O.3     1  ANP1       -0.1240
      5  PB        24.7130   48.8900  102.8110 P.3     1  ANP1        0.4669
      6  O1B       25.3930   48.6280  104.0920 O.3     1  ANP1       -0.1253
      7  O2B       24.2790   50.2870  102.5060 O.2     1  ANP1       -0.2351
      8  N3B       23.4110   47.8840  102.7070 N.3     1  ANP1       -0.0163
      9  PA        26.8470   48.7350  100.8070 P.3     1  ANP1        0.2220
     10  O1A       26.6110   49.9270   99.9590 O.2     1  ANP1       -0.5170
     11  O2A       28.0370   48.7170  101.6740 O.3     1  ANP1       -0.4370
     12  O3A       25.5700   48.3360  101.6510 O.3     1  ANP1       -0.2360
     13  O5'       26.8700   47.4640   99.9060 O.3     1  ANP1       -0.3111
     14  C5'       27.0370   46.1820  100.5200 C.3     1  ANP1        0.1813
     15  C4'       27.0520   45.0830   99.5200 C.3     1  ANP1        0.1821
     16  O4'       28.1980   45.3120   98.6920 O.3     1  ANP1       -0.3135
     17  C3'       27.1890   43.7050  100.1450 C.3     1  ANP1        0.2184
     18  O3'       26.0610   42.9680   99.6690 O.3     1  ANP1       -0.2174
     19  C2'       28.5030   43.1620   99.6240 C.3     1  ANP1        0.2570
     20  O2'       28.3460   42.0520   98.7360 O.3     1  ANP1       -0.2130
     21  C1'       29.1740   44.2770   98.8190 C.3     1  ANP1        0.3186
     22  N9        30.4160   44.8250   99.4550 N.pl3   1  ANP1       -0.1439
     23  C8        30.5660   45.9590  100.2250 C.3     1  ANP1        0.3377
     24  N7        31.7840   46.1890  100.6320 N.2     1  ANP1       -0.2095
     25  C5        32.4980   45.1220  100.0910 C.2     1  ANP1        0.2526
     26  C6        33.8790   44.7640  100.1520 C.2     1  ANP1        0.4393
     27  N6        34.7540   45.5050  100.8080 N.pl3   1  ANP1        0.2180
     28  N1        34.2680   43.6460   99.5120 N.2     1  ANP1        0.0021
     29  C2        33.3680   42.9280   98.8550 C.3     1  ANP1        0.5254
     30  N3        32.0540   43.1420   98.7220 N.2     1  ANP1       -0.0055
     31  C4        31.6780   44.2830   99.3800 C.2     1  ANP1        0.3518
@<TRIPOS>BOND
     1    16    21    1
     2    16    15    1
     3    30    29    1
     4    30    31    2
     5    20    19    1
     6    21    22    1
     7    21    19    1
     8    29    28    1
     9    31    22    1
    10    31    25    1
    11    22    23    1
    12    28    26    2
    13    15    17    1
    14    15    14    1
    15    19    17    1
    16    18    17    1
    17    13    14    1
    18    13     9    1
    19    10     9    2
    20    25    26    1
    21    25    24    2
    22    26    27    1
    23    23    24    1
    24     3     1    2
    25     9    12    1
    26     9    11    1
    27     4     1    1
    28     1     2    1
    29     1     8    1
    30    12     5    1
    31     7     5    2
    32     8     5    1
    33     5     6    1
