@<TRIPOS>MOLECULE
1ad8_MDL_H_1.pdb
 40 43 0 0 0
SMALL
GASTEIGER

@<TRIPOS>ATOM
      1  N2        15.8950  -11.0370   23.5940 N.3   250  MDL250     -0.2084
      2  C6        17.1720  -10.3510   23.5120 C.3   250  MDL250      0.1533
      3  C7        16.8650   -8.9970   22.8660 C.2   250  MDL250      0.2421
      4  O9        15.8720   -8.3520   23.2220 O.2   250  MDL250     -0.2733
      5  C55       17.6590  -10.1940   24.9630 C.3   250  MDL250      0.0530
      6  C57       19.1330   -9.8040   25.1100 C.ar  250  MDL250     -0.0203
      7  C60       20.1800  -10.5490   24.4860 C.ar  250  MDL250     -0.0042
      8  C64       19.4730   -8.6740   25.8890 C.ar  250  MDL250     -0.0042
      9  C61       21.5280  -10.1140   24.5930 C.ar  250  MDL250     -0.0003
     10  C63       20.8140   -8.2520   26.0010 C.ar  250  MDL250     -0.0003
     11  C62       21.8340   -8.9550   25.3220 C.ar  250  MDL250     -0.0000
     12  C1        15.1490  -11.2790   22.3630 C.3   250  MDL250      0.1080
     13  N8        17.7300   -8.5700   21.9090 N.am  250  MDL250     -0.2718
     14  C18       17.4130   -7.2910   21.1840 C.3   250  MDL250      0.1535
     15  C21       16.0790   -7.3500   20.4530 C.2   250  MDL250      0.2595
     16  O24       15.6120   -8.4180   20.0790 O.2   250  MDL250     -0.2716
     17  C15       18.5890   -7.1580   20.2290 C.3   250  MDL250      0.0310
     18  C12       19.6880   -8.0480   20.6850 C.3   250  MDL250      0.0237
     19  C11       19.0080   -9.1800   21.4450 C.3   250  MDL250      0.0939
     20  N23       15.4790   -6.1370   20.3520 N.am  250  MDL250     -0.2026
     21  C25       14.2680   -5.9280   19.5570 C.3   250  MDL250      0.1358
     22  C26       13.2860   -5.1530   20.4200 C.3   250  MDL250      0.0524
     23  C27       12.6970   -6.0570   21.4030 C.2   250  MDL250     -0.0001
     24  C30       12.3900   -7.3920   21.1870 C.2   250  MDL250      0.0942
     25  C31       12.1050   -5.6480   22.6300 C.2   250  MDL250      0.0115
     26  C32       11.3890   -6.7300   23.1110 C.2   250  MDL250      0.0631
     27  N33       11.6000   -7.7830   22.2130 N.2   250  MDL250     -0.2482
     28  C34       10.6560   -6.5940   24.3180 C.3   250  MDL250      0.0717
     29  C35       10.6700   -5.3780   25.0520 C.2   250  MDL250     -0.0198
     30  C36       11.4250   -4.2820   24.5990 C.2   250  MDL250     -0.0042
     31  C37       12.1290   -4.4380   23.3850 C.2   250  MDL250      0.0006
     32  C44       14.5960   -5.1330   18.3040 C.3   250  MDL250      0.2412
     33  O46       13.3210   -4.8120   17.7850 O.3   250  MDL250     -0.2151
     34  C47       15.4280   -6.0350   17.3240 C.3   250  MDL250      0.3778
     35  F48       14.8260   -7.2230   17.1640 F     250  MDL250     -0.1923
     36  F49       16.6030   -6.2760   17.8850 F     250  MDL250     -0.1923
     37  C50       15.7770   -5.4260   15.9940 C.3   250  MDL250      0.4572
     38  F51       16.3750   -6.3770   15.3350 F     250  MDL250     -0.1649
     39  F52       16.5910   -4.3950   16.1330 F     250  MDL250     -0.1649
     40  F53       14.6780   -5.0860   15.4090 F     250  MDL250     -0.1649
@<TRIPOS>BOND
     1    38    37    1
     2    40    37    1
     3    37    39    1
     4    37    34    1
     5    35    34    1
     6    34    36    1
     7    34    32    1
     8    33    32    1
     9    32    21    1
    10    21    20    1
    11    21    22    1
    12    16    15    2
    13    17    18    1
    14    17    14    1
    15    20    15   am
    16    22    23    1
    17    15    14    1
    18    18    19    1
    19    14    13    1
    20    24    23    2
    21    24    27    1
    22    23    25    1
    23    19    13    1
    24    13     3   am
    25    27    26    2
    26    12     1    1
    27    25    26    1
    28    25    31    2
    29     3     4    2
    30     3     2    1
    31    26    28    1
    32    31    30    1
    33     2     1    1
    34     2     5    1
    35    28    29    1
    36     7     9   ar
    37     7     6   ar
    38     9    11   ar
    39    30    29    2
    40     5     6    1
    41     6     8   ar
    42    11    10   ar
    43     8    10   ar
