@<TRIPOS>MOLECULE
1add_1DA_A_1.pdb
 19 21 0 0 0
SMALL
GASTEIGER

@<TRIPOS>ATOM
      1  O5'        8.6220   20.5190   35.3750 O.3   353  1DA353     -0.2176
      2  C5'        9.2760   20.0150   36.5430 C.3   353  1DA353      0.2143
      3  C4'        8.3930   19.0390   37.3130 C.3   353  1DA353      0.1851
      4  O4'        7.2280   19.7130   37.8090 O.3   353  1DA353     -0.3134
      5  C3'        7.8630   17.8880   36.4540 C.3   353  1DA353      0.2186
      6  O3'        8.7560   16.7710   36.3720 O.3   353  1DA353     -0.2174
      7  C2'        6.5540   17.5230   37.1310 C.3   353  1DA353      0.2570
      8  O2'        6.9290   16.6110   38.1510 O.3   353  1DA353     -0.2130
      9  C1'        6.1420   18.7850   37.8890 C.3   353  1DA353      0.3186
     10  N9         4.9200   19.2740   37.3940 N.pl3 353  1DA353     -0.1441
     11  C8         4.5430   19.3890   36.1080 C.3   353  1DA353      0.3373
     12  N7         3.2800   19.8290   36.0060 N.2   353  1DA353     -0.2190
     13  C5         2.8340   19.9040   37.2880 C.2   353  1DA353      0.1614
     14  C6         1.6200   20.2460   37.8160 C.3   353  1DA353      0.1645
     15  N6         0.5680   20.5230   37.0410 N.3   353  1DA353     -0.1212
     16  C1         1.5020   20.2950   39.1870 C.2   353  1DA353      0.0492
     17  C2         2.5860   20.0040   40.0050 C.2   353  1DA353      0.2330
     18  N3         3.7490   19.6750   39.4650 N.2   353  1DA353     -0.0351
     19  C4         3.8570   19.6260   38.1290 C.2   353  1DA353      0.3422
@<TRIPOS>BOND
     1     1     2    1
     2    12    11    1
     3    12    13    2
     4    11    10    1
     5     6     5    1
     6     5     7    1
     7     5     3    1
     8     2     3    1
     9    15    14    1
    10     7     9    1
    11     7     8    1
    12    13    14    1
    13    13    19    1
    14     3     4    1
    15    10     9    1
    16    10    19    1
    17     4     9    1
    18    14    16    1
    19    19    18    2
    20    16    17    2
    21    18    17    1
