@<TRIPOS>MOLECULE
1adj_HIS_A_1.pdb
 11 11 0 0 0
SMALL
GASTEIGER

@<TRIPOS>ATOM
      1  N         30.8760   40.8590   27.9500 N.3   423  HIS423     -0.1204
      2  CA        30.1260   40.3340   29.0870 C.3   423  HIS423      0.1999
      3  C         30.9070   40.4480   30.3910 C.2   423  HIS423      0.3822
      4  O         32.0270   40.9910   30.3410 O.co2 423  HIS423     -0.2440
      5  CB        29.7120   38.8790   28.8260 C.3   423  HIS423      0.0740
      6  CG        28.8040   38.7220   27.6490 C.2   423  HIS423      0.0651
      7  ND1       27.6750   39.4920   27.4790 N.2   423  HIS423     -0.2310
      8  CD2       28.8870   37.9320   26.5530 C.3   423  HIS423      0.1683
      9  CE1       27.1040   39.1890   26.3300 C.2   423  HIS423      0.1939
     10  NE2       27.8190   38.2450   25.7490 N.2   423  HIS423     -0.2440
     11  OXT       30.3880   40.0260   31.4510 O.co2 423  HIS423     -0.2440
@<TRIPOS>BOND
     1    10     9    2
     2    10     8    1
     3     9     7    1
     4     8     6    1
     5     7     6    2
     6     6     5    1
     7     1     2    1
     8     5     2    1
     9     2     3    1
    10     4     3   ar
    11     3    11   ar
