@<TRIPOS>MOLECULE
1adl_ACD_A_1.pdb
 22 21 0 0 0
SMALL
GASTEIGER

@<TRIPOS>ATOM
      1  C1       -45.2660   66.7790   -6.1190 C.2   135  ACD135      0.3649
      2  C2       -45.8140   68.0270   -5.4800 C.3   135  ACD135      0.1144
      3  C3       -45.4540   69.2900   -6.2320 C.3   135  ACD135      0.0165
      4  C4       -46.3450   70.4390   -5.7980 C.3   135  ACD135      0.0263
      5  C5       -46.0310   71.6830   -6.4670 C.2   135  ACD135     -0.0304
      6  C6       -47.0010   72.3420   -7.2130 C.2   135  ACD135     -0.0260
      7  C7       -48.3430   71.8000   -7.3350 C.3   135  ACD135      0.0513
      8  C8       -49.3750   72.7980   -7.1340 C.2   135  ACD135     -0.0257
      9  C9       -50.5050   72.8260   -7.9440 C.2   135  ACD135     -0.0257
     10  C10      -50.6890   71.8590   -9.0160 C.3   135  ACD135      0.0513
     11  C11      -51.8680   72.1300   -9.8220 C.2   135  ACD135     -0.0257
     12  C12      -52.1030   71.4520  -11.0180 C.2   135  ACD135     -0.0257
     13  C13      -51.1800   70.4440  -11.5090 C.3   135  ACD135      0.0513
     14  C14      -51.8110   69.4860  -12.4070 C.2   135  ACD135     -0.0260
     15  C15      -51.2460   68.2290  -12.6230 C.2   135  ACD135     -0.0304
     16  C16      -50.0130   67.8490  -11.9600 C.3   135  ACD135      0.0257
     17  C17      -50.2370   67.2300  -10.5850 C.3   135  ACD135      0.0047
     18  C18      -48.9160   66.9360   -9.8970 C.3   135  ACD135      0.0003
     19  C19      -48.1220   68.2090   -9.6480 C.3   135  ACD135      0.0000
     20  C20      -46.7200   67.8860   -9.1950 C.3   135  ACD135      0.0000
     21  O1       -44.0870   66.7640   -6.5490 O.co2 135  ACD135     -0.2457
     22  O2       -46.0240   65.7870   -6.2080 O.co2 135  ACD135     -0.2457
@<TRIPOS>BOND
     1    15    14    2
     2    15    16    1
     3    14    13    1
     4    16    17    1
     5    13    12    1
     6    12    11    2
     7    17    18    1
     8    18    19    1
     9    11    10    1
    10    19    20    1
    11    10     9    1
    12     9     8    2
    13     7     6    1
    14     7     8    1
    15     6     5    2
    16    21     1   ar
    17     5     4    1
    18     3     4    1
    19     3     2    1
    20    22     1   ar
    21     1     2    1
