@<TRIPOS>MOLECULE
1ado_13P_A_1.pdb
 12 11 0 0 0
SMALL
GASTEIGER

@<TRIPOS>ATOM
      1  P         23.0580   27.2320   23.7810 P.3   1104  13P1104     0.2110
      2  O1P       23.2740   25.7610   24.4310 O.3   1104  13P1104    -0.4374
      3  O2P       21.6730   26.9720   23.0650 O.3   1104  13P1104    -0.3435
      4  O3P       24.0790   27.5410   22.6520 O.2   1104  13P1104    -0.5173
      5  O1        22.8890   28.5100   24.7710 O.3   1104  13P1104    -0.3060
      6  C1        23.4170   29.8220   24.4360 C.3   1104  13P1104     0.2156
      7  C2        24.5750   30.2800   25.3010 C.2   1104  13P1104     0.2102
      8  O2        24.6250   29.9610   26.4860 O.2   1104  13P1104    -0.2908
      9  C3        25.6620   31.1460   24.6940 C.3   1104  13P1104     0.2046
     10  O3        25.8750   30.7770   23.3430 O.3   1104  13P1104    -0.3749
     11 HOP2       21.5520   25.9660   23.0970 H     1104  13P1104     0.2176
     12  HO3       26.1720   29.8530   23.3150 H     1104  13P1104     0.2110
@<TRIPOS>BOND
     1     4     1    2
     2     3    11    1
     3     3     1    1
     4    12    10    1
     5    10     9    1
     6     1     2    1
     7     1     5    1
     8     6     5    1
     9     6     7    1
    10     9     7    1
    11     7     8    2
