@<TRIPOS>MOLECULE
1ads_NAP_A_1.pdb
 48 52 0 0 0
SMALL
GASTEIGER

@<TRIPOS>ATOM
      1  PA        23.5070   28.2600   72.2340 P.3   350  NAP350      0.2189
      2  O1A       24.4350   29.2900   71.6900 O.2   350  NAP350     -0.5170
      3  O2A       22.5070   28.6700   73.1930 O.3   350  NAP350     -0.4371
      4  O5B       24.4470   27.0760   72.8310 O.3   350  NAP350     -0.3112
      5  C5B       23.8660   25.8660   73.3490 C.3   350  NAP350      0.1813
      6  C4B       24.9830   24.9430   73.7480 C.3   350  NAP350      0.1820
      7  O4B       25.6980   25.5880   74.7970 O.3   350  NAP350     -0.3136
      8  C3B       24.5290   23.6090   74.2610 C.3   350  NAP350      0.2157
      9  O3B       25.4940   22.6100   73.8960 O.3   350  NAP350     -0.2175
     10  C2B       24.5620   23.7920   75.7600 C.3   350  NAP350      0.2314
     11  O2B       24.9100   22.5680   76.4390 O.3   350  NAP350     -0.2630
     12  C1B       25.7400   24.7250   75.9300 C.3   350  NAP350      0.3158
     13  N9A       25.6950   25.5810   77.1500 N.pl3 350  NAP350     -0.1439
     14  C8A       24.6250   26.2730   77.6890 C.3   350  NAP350      0.3377
     15  N7A       24.9410   26.9210   78.7740 N.2   350  NAP350     -0.2095
     16  C5A       26.2820   26.6660   78.9570 C.2   350  NAP350      0.2526
     17  C6A       27.1780   27.0610   79.9490 C.2   350  NAP350      0.4393
     18  N6A       26.8110   27.8290   80.9600 N.pl3 350  NAP350      0.2180
     19  N1A       28.4420   26.6150   79.8610 N.2   350  NAP350      0.0021
     20  C2A       28.8050   25.8300   78.8460 C.3   350  NAP350      0.5254
     21  N3A       28.0280   25.4070   77.8670 N.2   350  NAP350     -0.0055
     22  C4A       26.7640   25.8810   77.9730 C.2   350  NAP350      0.3518
     23  O3        22.8620   27.4610   70.9840 O.3   350  NAP350     -0.2703
     24  PN        21.4830   27.4730   70.1620 P.3   350  NAP350      0.2189
     25  O1N       20.7030   26.3280   70.6530 O.3   350  NAP350     -0.4371
     26  O2N       21.9200   27.4540   68.7200 O.2   350  NAP350     -0.5170
     27  O5D       20.7760   28.9020   70.3290 O.3   350  NAP350     -0.3112
     28  C5D       19.9130   29.1730   71.4660 C.3   350  NAP350      0.1813
     29  C4D       18.4190   29.0790   71.1130 C.3   350  NAP350      0.1799
     30  O4D       18.1640   30.0150   70.0840 O.3   350  NAP350     -0.3327
     31  C3D       18.0350   27.7720   70.4230 C.3   350  NAP350      0.2158
     32  O3D       17.8900   26.6530   71.3100 O.3   350  NAP350     -0.2175
     33  C2D       16.7110   28.1280   69.8050 C.3   350  NAP350      0.2309
     34  O2D       15.7270   28.1930   70.8020 O.3   350  NAP350     -0.2158
     35  C1D       17.0700   29.5610   69.2830 C.3   350  NAP350      0.2263
     36  N1N       17.4930   29.4840   67.8780 N.pl3 350  NAP350     -0.2787
     37  C2N       16.6450   30.0850   66.9600 C.3   350  NAP350      0.1244
     38  C3N       17.0080   29.9890   65.5920 C.2   350  NAP350      0.0544
     39  C7N       16.1870   30.5960   64.5530 C.2   350  NAP350      0.2818
     40  O7N       16.4410   30.4580   63.3530 O.2   350  NAP350     -0.2670
     41  N7N       15.1390   31.3680   64.8750 N.am  350  NAP350     -0.0839
     42  C4N       18.1700   29.3310   65.2440 C.2   350  NAP350      0.0033
     43  C5N       18.9560   28.7430   66.1440 C.2   350  NAP350      0.0157
     44  C6N       18.6280   28.8260   67.4610 C.2   350  NAP350      0.0633
     45  P2B       23.8390   21.7050   77.2500 P.3   350  NAP350      0.5328
     46  O1X       22.4990   21.8350   76.6220 O.2   350  NAP350     -0.2224
     47  O2X       24.4640   20.3820   77.1260 O.3   350  NAP350     -0.1145
     48  O3X       23.9390   22.2600   78.6040 O.3   350  NAP350     -0.1145
@<TRIPOS>BOND
     1    40    39    2
     2    39    41   am
     3    39    38    1
     4    42    38    2
     5    42    43    1
     6    38    37    1
     7    43    44    2
     8    37    36    1
     9    44    36    1
    10    36    35    1
    11    26    24    2
    12    35    33    1
    13    35    30    1
    14    33    31    1
    15    33    34    1
    16    30    29    1
    17    24    27    1
    18    24    25    1
    19    24    23    1
    20    27    28    1
    21    31    29    1
    22    31    32    1
    23    23     1    1
    24    29    28    1
    25     2     1    2
    26     1     4    1
    27     1     3    1
    28     4     5    1
    29     5     6    1
    30     6     8    1
    31     6     7    1
    32     9     8    1
    33     8    10    1
    34     7    12    1
    35    10    12    1
    36    10    11    1
    37    12    13    1
    38    11    45    1
    39    46    45    2
    40    47    45    1
    41    13    14    1
    42    13    22    1
    43    45    48    1
    44    14    15    1
    45    21    22    2
    46    21    20    1
    47    22    16    1
    48    15    16    2
    49    20    19    1
    50    16    17    1
    51    19    17    2
    52    17    18    1
