@<TRIPOS>MOLECULE
1ady_HAM_A_1.pdb
 33 36 0 0 0
SMALL
GASTEIGER

@<TRIPOS>ATOM
      1  P         30.5760   41.1500   33.4540 P.3   423  HAM423      0.2723
      2  O1P       31.2630   42.4500   33.3020 O.2   423  HAM423     -0.5082
      3  O2P       29.3680   41.1710   34.3060 O.3   423  HAM423     -0.4273
      4  O3P       30.2770   40.5900   31.9760 O.3   423  HAM423     -0.4091
      5  O5'       31.5130   40.0550   34.1470 O.3   423  HAM423     -0.3024
      6  C5'       31.1630   38.6770   34.0220 C.3   423  HAM423      0.1823
      7  C4'       31.9470   37.8100   34.9880 C.3   423  HAM423      0.1822
      8  O4'       33.3400   38.1590   34.9360 O.3   423  HAM423     -0.3135
      9  C3'       31.5400   38.0500   36.4280 C.3   423  HAM423      0.2184
     10  O3'       30.3900   37.3140   36.8520 O.3   423  HAM423     -0.2174
     11  C2'       32.7610   37.4980   37.1360 C.3   423  HAM423      0.2570
     12  O2'       32.7430   36.0600   37.2240 O.3   423  HAM423     -0.2130
     13  C1'       33.8980   37.9710   36.2420 C.3   423  HAM423      0.3186
     14  N9        34.5730   39.2110   36.6760 N.pl3 423  HAM423     -0.1439
     15  C8        34.2420   40.4800   36.3740 C.3   423  HAM423      0.3377
     16  N7        35.0110   41.3640   37.0230 N.2   423  HAM423     -0.2095
     17  C5        35.8310   40.5800   37.7250 C.2   423  HAM423      0.2526
     18  C6        36.8250   41.0380   38.6040 C.2   423  HAM423      0.4393
     19  N6        37.0120   42.3140   38.8010 N.pl3 423  HAM423      0.2180
     20  N1        37.5730   40.0860   39.2010 N.2   423  HAM423      0.0021
     21  C2        37.3410   38.7920   38.9820 C.3   423  HAM423      0.5254
     22  N3        36.3710   38.3550   38.1770 N.2   423  HAM423     -0.0055
     23  C4        35.6070   39.2630   37.5260 C.2   423  HAM423      0.3518
     24  C         30.9160   40.7350   30.7000 C.2   423  HAM423      0.3389
     25  O         32.0990   41.0240   30.6370 O.2   423  HAM423     -0.2482
     26  CA        30.1200   40.5840   29.4070 C.3   423  HAM423      0.1959
     27  N         30.9040   41.0260   28.2700 N.3   423  HAM423     -0.1206
     28  CB        29.6820   39.1250   29.2060 C.3   423  HAM423      0.0738
     29  CG        28.9030   38.9110   27.9440 C.2   423  HAM423      0.0651
     30  CD2       29.1940   38.2060   26.8250 C.3   423  HAM423      0.1683
     31  ND1       27.7100   39.5540   27.6900 N.2   423  HAM423     -0.2310
     32  CE1       27.3170   39.2760   26.4610 C.2   423  HAM423      0.1939
     33  NE2       28.2020   38.4660   25.9110 N.2   423  HAM423     -0.2440
@<TRIPOS>BOND
     1    33    32    2
     2    33    30    1
     3    32    31    1
     4    30    29    1
     5    31    29    2
     6    29    28    1
     7    27    26    1
     8    28    26    1
     9    26    24    1
    10    25    24    2
    11    24     4    1
    12     4     1    1
    13     2     1    2
    14     1     5    1
    15     1     3    1
    16     6     5    1
    17     6     7    1
    18     8     7    1
    19     8    13    1
    20     7     9    1
    21    13    14    1
    22    13    11    1
    23    15    14    1
    24    15    16    1
    25     9    10    1
    26     9    11    1
    27    14    23    1
    28    16    17    2
    29    11    12    1
    30    23    17    1
    31    23    22    2
    32    17    18    1
    33    22    21    1
    34    18    19    1
    35    18    20    2
    36    21    20    1
