@<TRIPOS>MOLECULE
1ae1_NAP_A_1.pdb
 48 52 0 0 0
SMALL
GASTEIGER

@<TRIPOS>ATOM
      1  PA        43.8380  106.6260   46.9400 P.3   274  NAP274      0.2189
      2  O1A       44.4200  105.9050   45.7880 O.2   274  NAP274     -0.5170
      3  O2A       44.7170  107.4060   47.8120 O.3   274  NAP274     -0.4371
      4  O5B       42.9160  105.6810   47.8050 O.3   274  NAP274     -0.3112
      5  C5B       41.8940  104.8820   47.1870 C.3   274  NAP274      0.1813
      6  C4B       41.2790  104.0830   48.2970 C.3   274  NAP274      0.1820
      7  O4B       40.3500  103.1780   47.6930 O.3   274  NAP274     -0.3136
      8  C3B       42.2730  103.2150   49.0340 C.3   274  NAP274      0.2157
      9  O3B       41.8990  102.9420   50.3900 O.3   274  NAP274     -0.2175
     10  C2B       42.2300  101.8950   48.2690 C.3   274  NAP274      0.2314
     11  O2B       42.5800  100.8300   49.1840 O.3   274  NAP274     -0.2630
     12  C1B       40.7630  101.8360   47.9330 C.3   274  NAP274      0.3158
     13  N9A       40.5680  100.9030   46.8010 N.pl3 274  NAP274     -0.1439
     14  C8A       41.0200  101.0620   45.5380 C.3   274  NAP274      0.3377
     15  N7A       40.6560  100.0400   44.7660 N.2   274  NAP274     -0.2095
     16  C5A       39.9730   99.2620   45.5900 C.2   274  NAP274      0.2526
     17  C6A       39.3860   98.0430   45.2440 C.2   274  NAP274      0.4393
     18  N6A       39.4530   97.5500   44.0020 N.pl3 274  NAP274      0.2180
     19  N1A       38.7350   97.4000   46.2530 N.2   274  NAP274      0.0021
     20  C2A       38.6610   97.8950   47.5020 C.3   274  NAP274      0.5254
     21  N3A       39.2380   99.0620   47.8140 N.2   274  NAP274     -0.0055
     22  C4A       39.9050   99.7650   46.8750 C.2   274  NAP274      0.3518
     23  O3        42.7120  107.5910   46.3570 O.3   274  NAP274     -0.2703
     24  PN        42.2970  109.1030   46.5780 P.3   274  NAP274      0.2189
     25  O1N       43.3420  109.9140   45.9750 O.2   274  NAP274     -0.5170
     26  O2N       41.9650  109.3050   47.9900 O.3   274  NAP274     -0.4371
     27  O5D       40.9700  109.2440   45.6970 O.3   274  NAP274     -0.3112
     28  C5D       39.6970  108.8190   46.1640 C.3   274  NAP274      0.1813
     29  C4D       38.5880  109.2030   45.1770 C.3   274  NAP274      0.1799
     30  O4D       38.7270  110.6110   44.8610 O.3   274  NAP274     -0.3327
     31  C3D       38.6740  108.4750   43.8490 C.3   274  NAP274      0.2158
     32  O3D       37.3900  108.1170   43.3090 O.3   274  NAP274     -0.2175
     33  C2D       39.3450  109.4780   42.9010 C.3   274  NAP274      0.2309
     34  O2D       38.8460  109.2410   41.5920 O.3   274  NAP274     -0.2158
     35  C1D       38.7940  110.7890   43.4440 C.3   274  NAP274      0.2263
     36  N1N       39.7040  111.8990   43.1630 N.pl3 274  NAP274     -0.2787
     37  C2N       40.9730  112.0460   43.7940 C.3   274  NAP274      0.1244
     38  C3N       41.7820  113.1360   43.4580 C.2   274  NAP274      0.0544
     39  C7N       43.1660  113.4190   44.0410 C.2   274  NAP274      0.2818
     40  O7N       43.8170  114.4060   43.7200 O.2   274  NAP274     -0.2670
     41  N7N       43.6860  112.5590   44.9090 N.am  274  NAP274     -0.0839
     42  C4N       41.3020  114.0340   42.5100 C.2   274  NAP274      0.0033
     43  C5N       40.0640  113.8900   41.8930 C.2   274  NAP274      0.0157
     44  C6N       39.2520  112.8120   42.2160 C.2   274  NAP274      0.0633
     45  P2B       43.7570   99.7920   48.8980 P.3   274  NAP274      0.5328
     46  O1X       44.0040   99.0710   50.3100 O.3   274  NAP274     -0.1145
     47  O2X       44.9620  100.5480   48.5340 O.3   274  NAP274     -0.1145
     48  O3X       43.2530   98.8050   47.9690 O.2   274  NAP274     -0.2224
@<TRIPOS>BOND
     1    34    33    1
     2    43    44    2
     3    43    42    1
     4    44    36    1
     5    42    38    2
     6    33    35    1
     7    33    31    1
     8    36    35    1
     9    36    37    1
    10    32    31    1
    11    35    30    1
    12    38    37    1
    13    38    39    1
    14    40    39    2
    15    31    29    1
    16    18    17    1
    17    39    41   am
    18    15    14    1
    19    15    16    2
    20    30    29    1
    21    29    28    1
    22    17    16    1
    23    17    19    2
    24    14    13    1
    25    16    22    1
    26    27    28    1
    27    27    24    1
    28     2     1    2
    29    25    24    2
    30    19    20    1
    31    23    24    1
    32    23     1    1
    33    24    26    1
    34    13    22    1
    35    13    12    1
    36    22    21    2
    37     1     4    1
    38     1     3    1
    39     5     4    1
    40     5     6    1
    41    20    21    1
    42     7    12    1
    43     7     6    1
    44    12    10    1
    45    48    45    2
    46    10     8    1
    47    10    11    1
    48     6     8    1
    49    47    45    1
    50    45    11    1
    51    45    46    1
    52     8     9    1
