@<TRIPOS>MOLECULE
1ae4_NAP_A_1.pdb
 48 52 0 0 0
SMALL
GASTEIGER

@<TRIPOS>ATOM
      1  PA       -34.1980   32.3180   16.2730 P.3   350  NAP350      0.2189
      2  O1A      -32.7500   32.3810   16.3830 O.2   350  NAP350     -0.5170
      3  O2A      -35.0240   33.2890   17.0000 O.3   350  NAP350     -0.4371
      4  O5B      -34.4020   30.8390   16.7800 O.3   350  NAP350     -0.3112
      5  C5B      -35.6980   30.5480   17.2120 C.3   350  NAP350      0.1813
      6  C4B      -35.4610   29.2580   17.9000 C.3   350  NAP350      0.1820
      7  O4B      -35.1630   29.5350   19.2530 O.3   350  NAP350     -0.3136
      8  C3B      -36.7480   28.5020   17.9980 C.3   350  NAP350      0.2157
      9  O3B      -36.4620   27.1630   18.5200 O.3   350  NAP350     -0.2175
     10  C2B      -37.6340   29.2880   18.9480 C.3   350  NAP350      0.2314
     11  O2B      -38.8210   28.4130   19.0980 O.3   350  NAP350     -0.2630
     12  C1B      -36.4470   29.3660   19.9380 C.3   350  NAP350      0.3158
     13  N9A      -36.5170   30.2090   21.1400 N.pl3 350  NAP350     -0.1439
     14  C8A      -37.1250   31.3820   21.4260 C.3   350  NAP350      0.3377
     15  N7A      -36.8820   31.8120   22.6580 N.2   350  NAP350     -0.2095
     16  C5A      -36.0600   30.8790   23.0920 C.2   350  NAP350      0.2526
     17  C6A      -35.5010   30.8740   24.3370 C.2   350  NAP350      0.4393
     18  N6A      -35.7700   31.8690   25.1710 N.pl3 350  NAP350      0.2180
     19  N1A      -34.7150   29.8310   24.6010 N.2   350  NAP350      0.0021
     20  C2A      -34.4320   28.8930   23.6890 C.3   350  NAP350      0.5254
     21  N3A      -34.9190   28.8770   22.4530 N.2   350  NAP350     -0.0055
     22  C4A      -35.7350   29.9020   22.1580 C.2   350  NAP350      0.3518
     23  O3       -34.9470   32.1490   14.8350 O.3   350  NAP350     -0.2703
     24  PN       -35.3400   32.6900   13.3240 P.3   350  NAP350      0.2189
     25  O1N      -36.7870   32.5730   13.1260 O.3   350  NAP350     -0.4371
     26  O2N      -34.4550   32.0440   12.3630 O.2   350  NAP350     -0.5170
     27  O5D      -34.9000   34.2240   13.2560 O.3   350  NAP350     -0.3112
     28  C5D      -35.7080   35.1690   13.9210 C.3   350  NAP350      0.1813
     29  C4D      -36.6840   35.8110   12.9920 C.3   350  NAP350      0.1799
     30  O4D      -35.8240   36.4900   12.1000 O.3   350  NAP350     -0.3327
     31  C3D      -37.4700   34.9470   12.0610 C.3   350  NAP350      0.2158
     32  O3D      -38.7630   34.6100   12.4970 O.3   350  NAP350     -0.2175
     33  C2D      -37.7660   35.9200   10.9880 C.3   350  NAP350      0.2309
     34  O2D      -38.5610   36.9020   11.5860 O.3   350  NAP350     -0.2158
     35  C1D      -36.4110   36.4920   10.7720 C.3   350  NAP350      0.2263
     36  N1N      -35.6340   35.9280    9.6370 N.pl3 350  NAP350     -0.2787
     37  C2N      -35.5280   36.7450    8.5020 C.3   350  NAP350      0.1244
     38  C3N      -34.7360   36.3770    7.4110 C.2   350  NAP350      0.0544
     39  C7N      -34.4910   37.3750    6.2710 C.2   350  NAP350      0.2818
     40  O7N      -34.0150   36.9560    5.2370 O.2   350  NAP350     -0.2670
     41  N7N      -34.8150   38.6580    6.4490 N.am  350  NAP350     -0.0839
     42  C4N      -34.1170   35.1150    7.4360 C.2   350  NAP350      0.0033
     43  C5N      -34.2430   34.2470    8.5270 C.2   350  NAP350      0.0157
     44  C6N      -34.9850   34.6740    9.6410 C.2   350  NAP350      0.0633
     45  P2B      -39.9910   28.4370   20.2250 P.3   350  NAP350      0.5328
     46  O1X      -41.2680   28.9560   19.6690 O.2   350  NAP350     -0.2224
     47  O2X      -40.1910   27.0660   20.7010 O.3   350  NAP350     -0.1145
     48  O3X      -39.3390   29.2900   21.2630 O.3   350  NAP350     -0.1145
@<TRIPOS>BOND
     1    40    39    2
     2    39    41   am
     3    39    38    1
     4    38    42    2
     5    38    37    1
     6    42    43    1
     7    37    36    1
     8    43    44    2
     9    36    44    1
    10    36    35    1
    11    35    33    1
    12    35    30    1
    13    33    34    1
    14    33    31    1
    15    31    32    1
    16    31    29    1
    17    30    29    1
    18    26    24    2
    19    29    28    1
    20    25    24    1
    21    27    24    1
    22    27    28    1
    23    24    23    1
    24    23     1    1
    25     1     2    2
    26     1     4    1
    27     1     3    1
    28     4     5    1
    29     5     6    1
    30     6     8    1
    31     6     7    1
    32     8     9    1
    33     8    10    1
    34    10    11    1
    35    10    12    1
    36    11    45    1
    37     7    12    1
    38    46    45    2
    39    12    13    1
    40    45    47    1
    41    45    48    1
    42    13    14    1
    43    13    22    1
    44    14    15    1
    45    22    21    2
    46    22    16    1
    47    21    20    1
    48    15    16    2
    49    16    17    1
    50    20    19    1
    51    17    19    2
    52    17    18    1
