@<TRIPOS>MOLECULE
1ae8_AZL_H_1.pdb
 30 31 0 0 0
SMALL
GASTEIGER

@<TRIPOS>ATOM
      1  C23       16.7700  -18.3540   23.8280 C.2   600  AZL600      0.4215
      2  O23       17.8330  -18.7340   23.3830 O.2   600  AZL600     -0.2246
      3  O24       15.6670  -19.0840   23.9780 O.3   600  AZL600     -0.4335
      4  C24       14.6030  -19.4080   23.0990 C.3   600  AZL600      0.2103
      5  C25       13.9100  -20.7090   23.5560 C.3   600  AZL600      0.0513
      6  N9        16.7740  -17.0260   24.1380 N.am  600  AZL600     -0.1608
      7  C15       18.0060  -16.2790   24.0200 C.3   600  AZL600      0.1793
      8  C14       17.7750  -14.9220   23.3340 C.2   600  AZL600      0.2500
      9  O14       16.8600  -14.1800   23.6670 O.2   600  AZL600     -0.2727
     10  C16       18.5910  -16.0950   25.4230 C.3   600  AZL600      0.0575
     11  C17       19.9940  -15.5760   25.4130 C.ar  600  AZL600     -0.0200
     12  C18       21.0540  -16.3160   24.8770 C.ar  600  AZL600     -0.0042
     13  C22       20.2530  -14.3360   25.9810 C.ar  600  AZL600     -0.0042
     14  C19       22.3590  -15.8240   24.9160 C.ar  600  AZL600     -0.0003
     15  C21       21.5510  -13.8390   26.0290 C.ar  600  AZL600     -0.0003
     16  C20       22.6060  -14.5800   25.4990 C.ar  600  AZL600     -0.0000
     17  N8        18.6650  -14.5390   22.4630 N.am  600  AZL600     -0.2490
     18  C9        18.5360  -13.2170   21.8590 C.3   600  AZL600      0.1633
     19  C8        17.1720  -13.0360   21.1350 C.2   600  AZL600      0.2763
     20  O8        16.7160  -13.9590   20.5140 O.2   600  AZL600     -0.2701
     21  C10       19.6880  -13.0940   20.8630 C.3   600  AZL600      0.0570
     22  C11       20.5500  -14.3460   21.0150 C.2   600  AZL600     -0.0077
     23  C12       19.8030  -15.2890   21.9490 C.2   600  AZL600      0.0634
     24  N1        10.5710  -12.9710   24.0840 N.3   600  AZL600     -0.1314
     25  C2        10.9960  -12.1610   22.9970 C.3   600  AZL600      0.1094
     26  C3        12.3300  -12.5690   22.5120 C.3   600  AZL600      0.0220
     27  C4        12.9680  -11.5610   21.5890 C.3   600  AZL600      0.0224
     28  C5        14.4500  -11.4660   21.8700 C.3   600  AZL600      0.1136
     29  N6        15.3350  -11.5250   20.7240 N.3   600  AZL600     -0.1084
     30  N7        16.6470  -11.7660   21.0510 N.am  600  AZL600     -0.1101
@<TRIPOS>BOND
     1    20    19    2
     2    29    30    1
     3    29    28    1
     4    21    22    1
     5    21    18    1
     6    22    23    2
     7    30    19   am
     8    19    18    1
     9    27    28    1
    10    27    26    1
    11    18    17    1
    12    23    17    1
    13    17     8   am
    14    26    25    1
    15    25    24    1
    16     4     5    1
    17     4     3    1
    18     8     9    2
    19     8     7    1
    20     2     1    2
    21     1     3    1
    22     1     6   am
    23     7     6    1
    24     7    10    1
    25    12    14   ar
    26    12    11   ar
    27    14    16   ar
    28    11    10    1
    29    11    13   ar
    30    16    15   ar
    31    13    15   ar
