@<TRIPOS>MOLECULE
1aeb_3MT_A_1.pdb
 12 12 0 0 0
SMALL
GASTEIGER

@<TRIPOS>ATOM
      1  C1        33.7990   92.5870   47.7630 C.3   296  3MT296      0.0013
      2  N7        32.4910   93.2520   47.9520 N.pl3 296  3MT296     -0.3237
      3  C5        31.5320   93.3090   46.9510 C.2   296  3MT296     -0.0010
      4  C11       30.4100   93.9650   47.3430 C.2   296  3MT296     -0.0131
      5  S10       30.5560   94.5140   48.9800 S.3   296  3MT296     -0.1065
      6  C8        32.1140   93.8450   49.0800 C.3   296  3MT296      0.1012
      7 H11A       34.3790   92.6770   48.6810 H     296  3MT296      0.0428
      8  H12       33.6300   91.5330   47.5330 H     296  3MT296      0.0428
      9  H13       34.3290   93.0740   46.9420 H     296  3MT296      0.0428
     10  H5        31.7360   92.8570   45.9900 H     296  3MT296      0.0785
     11  H11       29.5160   94.1540   46.7650 H     296  3MT296      0.0703
     12  H8        32.7410   93.8910   49.9600 H     296  3MT296      0.0646
@<TRIPOS>BOND
     1    10     3    1
     2    11     4    1
     3     9     1    1
     4     3     4    2
     5     3     2    1
     6     4     5    1
     7     8     1    1
     8     1     2    1
     9     1     7    1
    10     2     6    1
    11     5     6    1
    12     6    12    1
