@<TRIPOS>MOLECULE
1aec_E64_A_1.pdb
 33 32 0 0 0
SMALL
GASTEIGER

@<TRIPOS>ATOM
      1  C1        62.6290   21.4420   15.4360 C.2   219  E64219      0.3678
      2  O1        62.6080   22.6620   15.3030 O.co2 219  E64219     -0.2455
      3  O2        63.4390   20.8720   16.1520 O.co2 219  E64219     -0.2455
      4  C2        61.6060   20.6190   14.6900 C.3   219  E64219      0.1526
      5  C3        62.3330   19.4640   13.9450 C.3   219  E64219      0.1980
      6  O3        63.0220   20.0780   12.8690 O.3   219  E64219     -0.3754
      7  C4        61.4010   18.3780   13.4470 C.2   219  E64219      0.2502
      8  O4        61.4810   17.2240   13.8570 O.2   219  E64219     -0.2725
      9  N1        60.4850   18.7760   12.5710 N.am  219  E64219     -0.2964
     10  C6        59.4700   17.8650   12.0940 C.3   219  E64219      0.1486
     11  C7        58.1530   18.6340   12.1340 C.3   219  E64219      0.0290
     12  C8        56.8210   17.9020   12.1990 C.3   219  E64219      0.0021
     13  C9        56.3400   17.4060   10.8470 C.3   219  E64219      0.0001
     14  C10       56.8980   16.7670   13.1910 C.3   219  E64219      0.0001
     15  C11       59.9070   17.4400   10.7020 C.2   219  E64219      0.2403
     16  O5        60.0330   18.2570    9.7900 O.2   219  E64219     -0.2733
     17  N2        60.2230   16.1450   10.5970 N.am  219  E64219     -0.3030
     18  C12       60.7470   15.5230    9.3920 C.3   219  E64219      0.0896
     19  C13       62.1310   14.9740    9.6810 C.3   219  E64219      0.0248
     20  C14       62.6100   14.0030    8.6360 C.3   219  E64219      0.0446
     21  C15       64.0080   13.5900    9.0530 C.3   219  E64219      0.1739
     22  N3        64.5630   12.5990    8.1480 N.pl3 219  E64219     -0.2651
     23  C16       65.8760   12.4640    7.9720 C.cat 219  E64219      0.3417
     24  N4        66.3170   11.6480    7.0230 N.pl3 219  E64219     -0.2918
     25  N5        66.7610   13.1090    8.7390 N.pl3 219  E64219     -0.2918
     26  HO3       63.1080   19.4650   12.1360 H     219  E64219      0.2110
     27  HN1       60.4830   19.7100   12.2730 H     219  E64219      0.1499
     28  HN2       60.1250   15.5870   11.3890 H     219  E64219      0.1495
     29  HN3       63.9560   11.9990    7.6640 H     219  E64219      0.2586
     30 HN41       67.2990   11.5110    6.8890 H     219  E64219      0.2545
     31 HN42       65.6530   11.1480    6.4670 H     219  E64219      0.2545
     32 HN51       66.4560   13.6930    9.4920 H     219  E64219      0.2545
     33 HN52       67.7370   12.9550    8.5930 H     219  E64219      0.2545
@<TRIPOS>BOND
     1    31    24    1
     2    30    24    1
     3    24    23    2
     4    29    22    1
     5    23    22    1
     6    23    25    1
     7    22    21    1
     8    33    25    1
     9    20    21    1
    10    20    19    1
    11    25    32    1
    12    18    19    1
    13    18    17    1
    14    16    15    2
    15    17    15   am
    16    17    28    1
    17    15    10    1
    18    13    12    1
    19    10    11    1
    20    10     9    1
    21    11    12    1
    22    26     6    1
    23    12    14    1
    24    27     9    1
    25     9     7   am
    26     6     5    1
    27     7     8    2
    28     7     5    1
    29     5     4    1
    30     4     1    1
    31     2     1   ar
    32     1     3   ar
