@<TRIPOS>MOLECULE
1aed_HEM_A_1.pdb
 43 50 0 0 0
SMALL
GASTEIGER

@<TRIPOS>ATOM
      1 FE         28.1870   93.9480   52.9950 Fe    295  HEM295      0.0000
      2  CHA       28.0230   95.9830   50.3220 C.2   295  HEM295      0.0000
      3  CHB       30.4880   95.9550   54.3920 C.2   295  HEM295      0.0000
      4  CHC       28.5010   91.7850   55.6050 C.2   295  HEM295      0.0000
      5  CHD       25.6690   92.0950   51.7550 C.2   295  HEM295      0.0000
      6  NA        29.2550   95.6130   52.3760 N.2   295  HEM295      0.0000
      7  C1A       28.9710   96.3600   51.3050 C.2   295  HEM295      0.0000
      8  C2A       29.7060   97.5320   51.3040 C.2   295  HEM295      0.0000
      9  C3A       30.4180   97.5110   52.4900 C.2   295  HEM295      0.0000
     10  C4A       30.0620   96.3420   53.1210 C.2   295  HEM295      0.0000
     11  CMA       31.3780   98.5520   53.0020 C.3   295  HEM295      0.0000
     12  CAA       29.7120   98.6170   50.2320 C.3   295  HEM295      0.0000
     13  CBA       28.5370   99.5770   50.3320 C.3   295  HEM295      0.0000
     14  CGA       28.5350  100.5780   49.2090 C.2   295  HEM295      0.0000
     15  O1A       29.5060  101.2790   48.9850 O.co2 295  HEM295      0.0000
     16  O2A       27.5660  100.7010   48.4910 O.co2 295  HEM295      0.0000
     17  NB        29.2960   93.8900   54.7420 N.ar  295  HEM295      0.0000
     18  C1B       30.1780   94.8090   55.1250 C.ar  295  HEM295      0.0000
     19  C2B       30.8000   94.4750   56.3070 C.ar  295  HEM295      0.0000
     20  C3B       30.2890   93.1980   56.6240 C.ar  295  HEM295      0.0000
     21  C4B       29.3360   92.9080   55.6480 C.ar  295  HEM295      0.0000
     22  CMB       31.8730   95.3470   56.9550 C.3   295  HEM295      0.0000
     23  CAB       30.6250   92.3020   57.6450 C.3   295  HEM295      0.0000
     24  CBB       31.7120   92.4100   58.6060 C.3   295  HEM295      0.0000
     25  NC        27.1400   92.2980   53.6570 N.2   295  HEM295      0.0000
     26  C1C       27.4500   91.5190   54.7130 C.2   295  HEM295      0.0000
     27  C2C       26.5610   90.4560   54.8310 C.2   295  HEM295      0.0000
     28  C3C       25.6530   90.6280   53.7500 C.2   295  HEM295      0.0000
     29  C4C       26.1350   91.7020   53.0120 C.2   295  HEM295      0.0000
     30  CMC       26.5350   89.4920   56.0310 C.3   295  HEM295      0.0000
     31  CAC       24.4940   89.9280   53.3570 C.3   295  HEM295      0.0000
     32  CBC       24.0150   88.6320   53.8360 C.3   295  HEM295      0.0000
     33  ND        27.0740   93.9880   51.2520 N.ar  295  HEM295      0.0000
     34  C1D       26.1230   93.1090   50.9010 C.ar  295  HEM295      0.0000
     35  C2D       25.7120   93.3170   49.5920 C.ar  295  HEM295      0.0000
     36  C3D       26.3950   94.4560   49.1740 C.ar  295  HEM295      0.0000
     37  C4D       27.1820   94.8540   50.2570 C.ar  295  HEM295      0.0000
     38  CMD       24.7530   92.4640   48.7630 C.3   295  HEM295      0.0000
     39  CAD       26.3030   95.1060   47.8050 C.3   295  HEM295      0.0000
     40  CBD       25.4540   96.3650   47.7950 C.3   295  HEM295      0.0000
     41  CGD       25.3330   97.0720   46.4520 C.2   295  HEM295      0.0000
     42  O1D       24.8830   98.2060   46.4170 O.co2 295  HEM295      0.0000
     43  O2D       25.6740   96.5280   45.4160 O.co2 295  HEM295      0.0000
@<TRIPOS>BOND
     1    43    41   ar
     2    42    41   ar
     3    41    40    1
     4    40    39    1
     5    39    36    1
     6    16    14   ar
     7    38    35    1
     8    15    14   ar
     9    36    35   ar
    10    36    37   ar
    11    14    13    1
    12    35    34   ar
    13    12    13    1
    14    12     8    1
    15    37     2    2
    16    37    33   ar
    17     2     7    1
    18    34    33   ar
    19    34     5    2
    20    33     1    1
    21     8     7    1
    22     8     9    2
    23     7     6    2
    24     5    29    1
    25     6     1    1
    26     6    10    1
    27     9    11    1
    28     9    10    1
    29     1    25    1
    30     1    17    1
    31    29    25    2
    32    29    28    1
    33    10     3    2
    34    31    28    1
    35    31    32    1
    36    25    26    1
    37    28    27    2
    38     3    18    1
    39    26    27    1
    40    26     4    2
    41    17    18   ar
    42    17    21   ar
    43    27    30    1
    44    18    19   ar
    45     4    21    1
    46    21    20   ar
    47    19    20   ar
    48    19    22    1
    49    20    23    1
    50    23    24    1
