@<TRIPOS>MOLECULE
1aed_DTI_A_1.pdb
 15 15 0 0 0
SMALL
GASTEIGER

@<TRIPOS>ATOM
      1  N10       32.3440   93.0260   48.0810 N.pl3 296  DTI296     -0.3213
      2  C9        31.4960   93.7630   47.2450 C.2   296  DTI296      0.0103
      3  S13       31.2060   94.6520   49.6430 S.3   296  DTI296     -0.1062
      4  C11       32.2950   93.3850   49.3590 C.3   296  DTI296      0.1014
      5  C14       30.8050   94.6950   47.9600 C.2   296  DTI296     -0.0101
      6  C1        31.4240   93.4960   45.7750 C.3   296  DTI296     -0.0261
      7  C5        33.2180   91.9420   47.5860 C.3   296  DTI296      0.0016
      8  H11       32.8900   92.9100   50.1270 H     296  DTI296      0.0646
      9  H14       30.0820   95.4040   47.5830 H     296  DTI296      0.0706
     10 H11A       31.0950   92.4720   45.5670 H     296  DTI296      0.0290
     11  H12       30.7070   94.1780   45.3130 H     296  DTI296      0.0290
     12  H13       32.3950   93.6480   45.2900 H     296  DTI296      0.0290
     13  H51       33.7790   91.5310   48.4250 H     296  DTI296      0.0428
     14  H52       32.6040   91.1590   47.1370 H     296  DTI296      0.0428
     15  H53       33.9100   92.3460   46.8450 H     296  DTI296      0.0428
@<TRIPOS>BOND
     1    12     6    1
     2    11     6    1
     3    10     6    1
     4     6     2    1
     5    15     7    1
     6    14     7    1
     7     2     5    2
     8     2     1    1
     9     9     5    1
    10     7     1    1
    11     7    13    1
    12     5     3    1
    13     1     4    1
    14     4     3    1
    15     4     8    1
