@<TRIPOS>MOLECULE
1aee_HEM_A_1.pdb
 43 50 0 0 0
SMALL
GASTEIGER

@<TRIPOS>ATOM
      1 FE         28.2190   93.9930   52.9490 Fe    295  HEM295      0.0000
      2  CHA       28.1070   95.9540   50.1950 C.2   295  HEM295      0.0000
      3  CHB       30.5160   95.9520   54.3190 C.2   295  HEM295      0.0000
      4  CHC       28.4410   91.8130   55.6040 C.2   295  HEM295      0.0000
      5  CHD       25.6560   92.1270   51.6970 C.2   295  HEM295      0.0000
      6  NA        29.2790   95.6340   52.2840 N.2   295  HEM295      0.0000
      7  C1A       29.0170   96.3520   51.1930 C.2   295  HEM295      0.0000
      8  C2A       29.7220   97.5440   51.2070 C.2   295  HEM295      0.0000
      9  C3A       30.4240   97.5550   52.4080 C.2   295  HEM295      0.0000
     10  C4A       30.0820   96.3650   53.0420 C.2   295  HEM295      0.0000
     11  CMA       31.4020   98.6190   52.8940 C.3   295  HEM295      0.0000
     12  CAA       29.6610   98.6290   50.1330 C.3   295  HEM295      0.0000
     13  CBA       28.5280   99.6540   50.3400 C.3   295  HEM295      0.0000
     14  CGA       28.4850  100.6940   49.2280 C.2   295  HEM295      0.0000
     15  O1A       29.4550  101.4030   48.9920 O.co2 295  HEM295      0.0000
     16  O2A       27.4970  100.8220   48.5290 O.co2 295  HEM295      0.0000
     17  NB        29.2950   93.8920   54.7190 N.ar  295  HEM295      0.0000
     18  C1B       30.2100   94.8000   55.0760 C.ar  295  HEM295      0.0000
     19  C2B       30.8390   94.4430   56.2530 C.ar  295  HEM295      0.0000
     20  C3B       30.2980   93.1880   56.5900 C.ar  295  HEM295      0.0000
     21  C4B       29.3180   92.9180   55.6340 C.ar  295  HEM295      0.0000
     22  CMB       31.9040   95.3030   56.9500 C.3   295  HEM295      0.0000
     23  CAB       30.6490   92.3120   57.6270 C.3   295  HEM295      0.0000
     24  CBB       31.7770   92.4310   58.5500 C.3   295  HEM295      0.0000
     25  NC        27.1290   92.3430   53.6080 N.2   295  HEM295      0.0000
     26  C1C       27.3940   91.5720   54.6900 C.2   295  HEM295      0.0000
     27  C2C       26.4660   90.5370   54.8060 C.2   295  HEM295      0.0000
     28  C3C       25.5860   90.7080   53.7140 C.2   295  HEM295      0.0000
     29  C4C       26.1110   91.7530   52.9640 C.2   295  HEM295      0.0000
     30  CMC       26.4040   89.5990   56.0180 C.3   295  HEM295      0.0000
     31  CAC       24.4200   90.0240   53.3280 C.3   295  HEM295      0.0000
     32  CBC       23.9200   88.7710   53.8460 C.3   295  HEM295      0.0000
     33  ND        27.0910   94.0200   51.2180 N.ar  295  HEM295      0.0000
     34  C1D       26.1290   93.1410   50.8710 C.ar  295  HEM295      0.0000
     35  C2D       25.6980   93.3540   49.5740 C.ar  295  HEM295      0.0000
     36  C3D       26.4120   94.4690   49.1310 C.ar  295  HEM295      0.0000
     37  C4D       27.2310   94.8530   50.1860 C.ar  295  HEM295      0.0000
     38  CMD       24.6720   92.5300   48.7900 C.3   295  HEM295      0.0000
     39  CAD       26.3360   95.1170   47.7550 C.3   295  HEM295      0.0000
     40  CBD       25.4060   96.3240   47.7470 C.3   295  HEM295      0.0000
     41  CGD       25.2690   97.0660   46.4140 C.2   295  HEM295      0.0000
     42  O1D       24.7310   98.1670   46.3860 O.co2 295  HEM295      0.0000
     43  O2D       25.6570   96.5560   45.3710 O.co2 295  HEM295      0.0000
@<TRIPOS>BOND
     1    43    41   ar
     2    42    41   ar
     3    41    40    1
     4    40    39    1
     5    39    36    1
     6    16    14   ar
     7    38    35    1
     8    15    14   ar
     9    36    35   ar
    10    36    37   ar
    11    14    13    1
    12    35    34   ar
    13    12    13    1
    14    12     8    1
    15    37     2    2
    16    37    33   ar
    17     2     7    1
    18    34    33   ar
    19    34     5    2
    20     7     8    1
    21     7     6    2
    22     8     9    2
    23    33     1    1
    24     5    29    1
    25     6     1    1
    26     6    10    1
    27     9    11    1
    28     9    10    1
    29     1    25    1
    30     1    17    1
    31    29    25    2
    32    29    28    1
    33    10     3    2
    34    31    28    1
    35    31    32    1
    36    25    26    1
    37    28    27    2
    38     3    18    1
    39    26    27    1
    40    26     4    2
    41    17    18   ar
    42    17    21   ar
    43    27    30    1
    44    18    19   ar
    45     4    21    1
    46    21    20   ar
    47    19    20   ar
    48    19    22    1
    49    20    23    1
    50    23    24    1
