@<TRIPOS>MOLECULE
1aef_3AP_A_1.pdb
 14 14 0 0 0
SMALL
GASTEIGER

@<TRIPOS>ATOM
      1  N1        33.0970   93.1790   47.9000 N.pl3 296  3AP296     -0.3397
      2  C2        32.1970   93.1550   46.8940 C.3   296  3AP296      0.0815
      3  C3        30.9040   93.6670   47.1020 C.2   296  3AP296      0.0240
      4  C4        30.6250   94.1900   48.3910 C.2   296  3AP296     -0.0421
      5  C5        31.5900   94.1870   49.3860 C.2   296  3AP296     -0.0468
      6  C6        32.8550   93.6680   49.1300 C.2   296  3AP296     -0.0100
      7  N3        29.9780   93.6590   46.1150 N.pl3 296  3AP296     -0.3597
      8  HN1       34.0200   92.7980   47.7070 H     296  3AP296      0.1462
      9  H2        32.5270   92.7300   45.9550 H     296  3AP296      0.0582
     10  H4        29.6390   94.5960   48.5970 H     296  3AP296      0.0634
     11  H5        31.3690   94.5890   50.3690 H     296  3AP296      0.0630
     12  H6        33.6630   93.6280   49.8500 H     296  3AP296      0.0778
     13 HN31       29.0500   94.0240   46.2690 H     296  3AP296      0.1421
     14 HN32       30.1740   93.2860   45.1990 H     296  3AP296      0.1421
@<TRIPOS>BOND
     1    14     7    1
     2     9     2    1
     3     7    13    1
     4     7     3    1
     5     2     3    1
     6     2     1    1
     7     3     4    2
     8     8     1    1
     9     1     6    1
    10     4    10    1
    11     4     5    1
    12     6     5    2
    13     6    12    1
    14     5    11    1
