@<TRIPOS>MOLECULE
1aeg_4AP_A_1.pdb
 14 14 0 0 0
SMALL
GASTEIGER

@<TRIPOS>ATOM
      1  N1        33.1860   93.2160   48.7420 N.pl3 296  4AP296     -0.3411
      2  C2        33.4020   92.9950   47.4170 C.3   296  4AP296      0.0623
      3  C3        32.4020   93.2020   46.5060 C.2   296  4AP296     -0.0413
      4  C4        31.1220   93.6510   46.9450 C.2   296  4AP296      0.0236
      5  C5        30.9450   93.8690   48.3420 C.2   296  4AP296     -0.0278
      6  C6        31.9830   93.6460   49.2040 C.2   296  4AP296     -0.0084
      7  N4        30.1250   93.8610   46.0760 N.pl3 296  4AP296     -0.3581
      8  HN1       33.9420   93.0570   49.4000 H     296  4AP296      0.1462
      9  H2        34.3900   92.6540   47.1370 H     296  4AP296      0.0564
     10  H3        32.5950   93.0190   45.4550 H     296  4AP296      0.0609
     11  H5        29.9930   94.2100   48.7330 H     296  4AP296      0.0648
     12  H6        31.8990   93.7940   50.2740 H     296  4AP296      0.0779
     13 HN41       30.2460   93.7090   45.0840 H     296  4AP296      0.1423
     14 HN42       29.2150   94.1790   46.3810 H     296  4AP296      0.1423
@<TRIPOS>BOND
     1    13     7    1
     2    10     3    1
     3     7    14    1
     4     7     4    1
     5     3     4    2
     6     3     2    1
     7     4     5    1
     8     9     2    1
     9     2     1    1
    10     5    11    1
    11     5     6    2
    12     1     6    1
    13     1     8    1
    14     6    12    1
