@<TRIPOS>MOLECULE
1aej_NVI_A_1.pdb
 14 14 0 0 0
SMALL
GASTEIGER

@<TRIPOS>ATOM
      1  N1        31.5580   93.5970   47.8900 N.pl3 296  NVI296     -0.2902
      2  C2        32.1730   93.4270   49.0690 C.3   296  NVI296      0.1266
      3  N3        33.3610   92.8600   48.8360 N.pl3 296  NVI296     -0.3277
      4  C4        33.5180   92.6440   47.4790 C.2   296  NVI296      0.0051
      5  C5        32.3830   93.1050   46.8850 C.2   296  NVI296      0.0116
      6  C6        30.2630   94.1820   47.6850 C.2   296  NVI296     -0.0089
      7  C7        29.6220   94.1190   46.5230 C.2   296  NVI296     -0.0846
      8  H2        31.7610   93.6760   50.0360 H     296  NVI296      0.0747
      9  HN3       34.0280   92.6070   49.5560 H     296  NVI296      0.1474
     10  H4        34.4070   92.1960   47.0640 H     296  NVI296      0.0791
     11  H5        32.0940   93.1440   45.8460 H     296  NVI296      0.0796
     12  H6        29.8730   94.6700   48.5690 H     296  NVI296      0.0778
     13  H71       30.0070   93.5880   45.6560 H     296  NVI296      0.0547
     14  H72       28.6580   94.6060   46.4170 H     296  NVI296      0.0547
@<TRIPOS>BOND
     1    13     7    1
     2    11     5    1
     3    14     7    1
     4     7     6    2
     5     5     4    2
     6     5     1    1
     7    10     4    1
     8     4     3    1
     9     6     1    1
    10     6    12    1
    11     1     2    1
    12     3     2    1
    13     3     9    1
    14     2     8    1
