@<TRIPOS>MOLECULE
1aem_MPI_A_1.pdb
 16 17 0 0 0
SMALL
GASTEIGER

@<TRIPOS>ATOM
      1  N1        31.8230   93.3410   47.2160 N.pl3 296  MPI296     -0.2835
      2  C2        32.3280   93.2570   48.4960 C.3   296  MPI296      0.1647
      3  C3        31.5980   93.7290   49.5950 C.2   296  MPI296     -0.0385
      4  C4        30.3570   94.2770   49.3480 C.2   296  MPI296     -0.0608
      5  C5        29.8500   94.3590   48.0260 C.2   296  MPI296     -0.0478
      6  C6        30.5870   93.8890   46.9720 C.2   296  MPI296     -0.0013
      7  N7        33.5500   92.6740   48.3870 N.pl3 296  MPI296     -0.3215
      8  C8        33.8170   92.3940   47.0620 C.2   296  MPI296      0.0055
      9  C9        32.7520   92.8020   46.3240 C.2   296  MPI296      0.0122
     10  H3        32.0110   93.6540   50.5950 H     296  MPI296      0.0611
     11  H4        29.7610   94.6520   50.1730 H     296  MPI296      0.0616
     12  H5        28.8740   94.7910   47.8360 H     296  MPI296      0.0630
     13  H6        30.2700   93.9160   45.9370 H     296  MPI296      0.0784
     14  HN7       34.1650   92.4790   49.1670 H     296  MPI296      0.1480
     15  H8        34.7390   91.9250   46.7510 H     296  MPI296      0.0791
     16  H9        32.5670   92.7640   45.2630 H     296  MPI296      0.0797
@<TRIPOS>BOND
     1    16     9    1
     2    13     6    1
     3     9     8    2
     4     9     1    1
     5    15     8    1
     6     6     1    1
     7     6     5    2
     8     8     7    1
     9     1     2    1
    10    12     5    1
    11     5     4    1
    12     7     2    1
    13     7    14    1
    14     2     3    1
    15     4     3    2
    16     4    11    1
    17     3    10    1
