@<TRIPOS>MOLECULE
1aeo_2AP_A_1.pdb
 14 14 0 0 0
SMALL
GASTEIGER

@<TRIPOS>ATOM
      1  N1       -10.7730   53.9420  110.9010 N.pl3 296  2AP296     -0.3260
      2  C2       -11.4900   52.9170  110.3610 C.3   296  2AP296      0.1392
      3  C3       -10.8800   51.6410  110.3390 C.2   296  2AP296     -0.0429
      4  C4        -9.6100   51.4810  110.8520 C.2   296  2AP296     -0.0611
      5  C5        -8.9040   52.5750  111.4030 C.2   296  2AP296     -0.0484
      6  C6        -9.5110   53.7990  111.4140 C.2   296  2AP296     -0.0089
      7  N        -12.7200   53.1560  109.8820 N.3   296  2AP296     -0.3039
      8  HN1      -11.1890   54.8690  110.9280 H     296  2AP296      0.1477
      9  H3       -11.4280   50.8070  109.9150 H     296  2AP296      0.0608
     10  H4        -9.1500   50.4970  110.8300 H     296  2AP296      0.0616
     11  H5        -7.9060   52.4590  111.8070 H     296  2AP296      0.0630
     12  H6        -9.0620   54.7010  111.8110 H     296  2AP296      0.0778
     13 HN1A      -13.1550   54.0680  109.8970 H     296  2AP296      0.1206
     14  HN2      -13.2610   52.4030  109.4770 H     296  2AP296      0.1206
@<TRIPOS>BOND
     1    14     7    1
     2     7    13    1
     3     7     2    1
     4     9     3    1
     5     3     2    1
     6     3     4    2
     7     2     1    1
     8    10     4    1
     9     4     5    1
    10     1     8    1
    11     1     6    1
    12     5     6    2
    13     5    11    1
    14     6    12    1
