@<TRIPOS>MOLECULE
1aer_TAD_A_1.pdb
 43 47 0 0 0
SMALL
GASTEIGER

@<TRIPOS>ATOM
      1  PA        55.0570   76.3730   14.7220 P.3   700  TAD700      0.3820
      2  O1A       55.6480   77.3150   15.6990 O.3   700  TAD700     -0.1392
      3  O2A       54.2010   76.9110   13.6380 O.2   700  TAD700     -0.2548
      4  O5B       54.2410   75.2660   15.5270 O.3   700  TAD700     -0.2896
      5  C5B       52.8550   75.4440   15.8730 C.3   700  TAD700      0.1836
      6  C4B       52.4170   74.3090   16.7950 C.3   700  TAD700      0.1822
      7  O4B       51.0560   74.5240   17.2220 O.3   700  TAD700     -0.3135
      8  C3B       52.3930   72.9810   16.0600 C.3   700  TAD700      0.2184
      9  O3B       52.5170   71.8540   16.9460 O.3   700  TAD700     -0.2174
     10  C2B       51.0130   73.0090   15.4390 C.3   700  TAD700      0.2570
     11  O2B       50.7610   71.6930   14.9340 O.3   700  TAD700     -0.2130
     12  C1B       50.2290   73.4830   16.6550 C.3   700  TAD700      0.3186
     13  N9A       48.8320   73.9280   16.4120 N.pl3 700  TAD700     -0.1439
     14  C8A       47.8510   73.7830   17.3150 C.3   700  TAD700      0.3377
     15  N7A       46.6530   74.1100   16.8210 N.2   700  TAD700     -0.2095
     16  C5A       46.9380   74.4830   15.5860 C.2   700  TAD700      0.2526
     17  C6A       45.9860   74.8950   14.6670 C.2   700  TAD700      0.4393
     18  N6A       44.6970   74.9670   14.9920 N.pl3 700  TAD700      0.2180
     19  N1A       46.4510   75.2290   13.4450 N.2   700  TAD700      0.0021
     20  C2A       47.7570   75.1680   13.1560 C.3   700  TAD700      0.5254
     21  N3A       48.6620   74.7540   14.0460 N.2   700  TAD700     -0.0055
     22  C4A       48.2800   74.3950   15.2900 C.2   700  TAD700      0.3518
     23  C3        56.3480   75.4090   13.9420 C.3   700  TAD700      0.2353
     24  PN        57.9030   75.3010   14.8220 P.3   700  TAD700      0.3820
     25  O1N       57.6530   74.8150   16.1980 O.3   700  TAD700     -0.1392
     26  O2N       58.6500   76.5640   14.6270 O.2   700  TAD700     -0.2548
     27  O5D       58.6700   74.1460   14.0370 O.3   700  TAD700     -0.2896
     28  C5D       59.2340   74.3950   12.7410 C.3   700  TAD700      0.1835
     29  C4D       60.0150   73.1780   12.2720 C.3   700  TAD700      0.1786
     30  O4D       59.2200   71.9850   12.3790 O.3   700  TAD700     -0.3431
     31  C3D       60.3080   73.2930   10.7920 C.3   700  TAD700      0.2144
     32  O3D       61.4700   74.0560   10.4650 O.3   700  TAD700     -0.2176
     33  C2D       60.4920   71.8480   10.3760 C.3   700  TAD700      0.2189
     34  O2D       61.8740   71.5020   10.2110 O.3   700  TAD700     -0.2172
     35  C1D       59.7920   71.0340   11.4570 C.3   700  TAD700      0.2057
     36  C2N       58.7490   70.0580   11.0380 C.2   700  TAD700      0.1642
     37  N3N       57.6520   69.8200   11.7470 N.2   700  TAD700     -0.3963
     38  C4N       56.9240   68.8960   11.1170 C.2   700  TAD700      0.1768
     39  C5N       57.4170   68.4330    9.9580 C.3   700  TAD700      0.1280
     40  S1N       58.8490   69.2580    9.5090 S.3   700  TAD700     -0.0765
     41  C6N       55.6630   68.4550   11.7540 C.2   700  TAD700      0.3106
     42  O6N       54.8150   67.7430   11.2150 O.2   700  TAD700     -0.2642
     43  N6N       55.5500   68.9270   12.9830 N.am  700  TAD700     -0.0817
@<TRIPOS>BOND
     1    40    39    1
     2    40    36    1
     3    39    38    1
     4    34    33    1
     5    33    31    1
     6    33    35    1
     7    32    31    1
     8    31    29    1
     9    36    35    1
    10    36    37    2
    11    38    37    2
    12    38    41    1
    13    42    41    2
    14    35    30    1
    15    41    43   am
    16    29    30    1
    17    29    28    1
    18    28    27    1
    19    20    19    1
    20    20    21    1
    21    19    17    2
    22     3     1    2
    23    23     1    1
    24    23    24    1
    25    27    24    1
    26    21    22    2
    27    26    24    2
    28    17    18    1
    29    17    16    1
    30     1     4    1
    31     1     2    1
    32    24    25    1
    33    11    10    1
    34    22    16    1
    35    22    13    1
    36    10     8    1
    37    10    12    1
    38     4     5    1
    39    16    15    2
    40     5     6    1
    41     8     6    1
    42     8     9    1
    43    13    12    1
    44    13    14    1
    45    12     7    1
    46     6     7    1
    47    15    14    1
