@<TRIPOS>MOLECULE
1aer_AMP_B_1.pdb
 23 25 0 0 0
SMALL
GASTEIGER

@<TRIPOS>ATOM
      1  P         23.9570   82.7410    8.5490 P.3   701  AMP701      0.5327
      2  O1P       24.6280   81.7810    9.5350 O.3   701  AMP701     -0.1145
      3  O2P       23.6460   82.2170    7.1140 O.2   701  AMP701     -0.2224
      4  O3P       22.7340   83.7980    9.2860 O.3   701  AMP701     -0.1145
      5  O5'       25.2210   83.7700    8.0620 O.3   701  AMP701     -0.2675
      6  C5'       25.2280   84.5420    6.7740 C.3   701  AMP701      0.1860
      7  C4'       24.8790   86.0410    6.8770 C.3   701  AMP701      0.1823
      8  O4'       25.8440   86.7530    7.7200 O.3   701  AMP701     -0.3135
      9  C3'       25.1160   86.7560    5.5640 C.3   701  AMP701      0.2184
     10  O3'       24.5550   88.1190    5.5730 O.3   701  AMP701     -0.2174
     11  C2'       26.6520   86.9040    5.5980 C.3   701  AMP701      0.2570
     12  O2'       26.8650   87.9120    4.5980 O.3   701  AMP701     -0.2130
     13  C1'       26.8700   87.5030    6.9660 C.3   701  AMP701      0.3186
     14  N9        28.2710   87.3920    7.4950 N.pl3 701  AMP701     -0.1439
     15  C8        28.9090   88.2510    8.2880 C.3   701  AMP701      0.3377
     16  N7        30.1070   87.7870    8.5600 N.2   701  AMP701     -0.2095
     17  C5        30.1710   86.5890    7.9220 C.2   701  AMP701      0.2526
     18  C6        31.2570   85.6910    7.7920 C.2   701  AMP701      0.4393
     19  N6        32.4110   85.9170    8.4540 N.pl3 701  AMP701      0.2180
     20  N1        31.1110   84.5610    7.0560 N.2   701  AMP701      0.0021
     21  C2        29.9640   84.2410    6.4780 C.3   701  AMP701      0.5254
     22  N3        28.9510   85.1190    6.5450 N.2   701  AMP701     -0.0055
     23  C4        29.0310   86.3080    7.2450 C.2   701  AMP701      0.3518
@<TRIPOS>BOND
     1    12    11    1
     2     9    10    1
     3     9    11    1
     4     9     7    1
     5    11    13    1
     6    21    22    1
     7    21    20    1
     8    22    23    2
     9     6     7    1
    10     6     5    1
    11     7     8    1
    12    13    14    1
    13    13     8    1
    14    20    18    2
    15     3     1    2
    16    23    14    1
    17    23    17    1
    18    14    15    1
    19    18    17    1
    20    18    19    1
    21    17    16    2
    22     5     1    1
    23    15    16    1
    24     1     4    1
    25     1     2    1
