@<TRIPOS>MOLECULE
1aer_TIA_B_1.pdb
 16 17 0 0 0
SMALL
GASTEIGER

@<TRIPOS>ATOM
      1  S1        20.6760   84.3750   -1.7100 S.3   700  TIA700     -0.0765
      2  C2        20.6990   84.9470   -0.0410 C.2   700  TIA700      0.1642
      3  N3        21.6430   85.8790    0.1710 N.2   700  TIA700     -0.3963
      4  C4        22.2770   86.1010   -1.0000 C.2   700  TIA700      0.1768
      5  C5        22.0020   85.4510   -2.1780 C.3   700  TIA700      0.1280
      6  C6        23.2490   87.1500   -0.8240 C.2   700  TIA700      0.3106
      7  O6        23.8750   87.5070   -1.8220 O.2   700  TIA700     -0.2642
      8  N6        23.3020   87.5730    0.4650 N.am  700  TIA700     -0.0817
      9  C1'       19.8350   84.6330    1.1260 C.3   700  TIA700      0.2056
     10  C2'       19.2070   83.3290    1.4890 C.3   700  TIA700      0.2188
     11  O2'       17.9350   83.1900    0.7720 O.3   700  TIA700     -0.2172
     12  C3'       19.0090   83.5210    3.0150 C.3   700  TIA700      0.2119
     13  O3'       17.7400   84.2240    3.1780 O.3   700  TIA700     -0.2177
     14  C4'       20.0370   84.5180    3.5600 C.3   700  TIA700      0.1487
     15  O4'       20.6180   85.0050    2.3350 O.3   700  TIA700     -0.3457
     16  C5'       21.0710   84.0410    4.6090 C.3   700  TIA700      0.0349
@<TRIPOS>BOND
     1     5     1    1
     2     5     4    1
     3     7     6    2
     4     1     2    1
     5     4     6    1
     6     4     3    2
     7     6     8   am
     8     2     3    2
     9     2     9    1
    10    11    10    1
    11     9    10    1
    12     9    15    1
    13    10    12    1
    14    15    14    1
    15    12    13    1
    16    12    14    1
    17    14    16    1
