@<TRIPOS>MOLECULE
1aes_HEM_A_1.pdb
 43 50 0 0 0
SMALL
GASTEIGER

@<TRIPOS>ATOM
      1 FE         28.2050   93.8890   53.0110 Fe    295  HEM295      0.0000
      2  CHA       27.9650   95.9350   50.2910 C.2   295  HEM295      0.0000
      3  CHB       30.5310   95.8850   54.3510 C.2   295  HEM295      0.0000
      4  CHC       28.4390   91.7940   55.6470 C.2   295  HEM295      0.0000
      5  CHD       25.6980   92.0380   51.7740 C.2   295  HEM295      0.0000
      6  NA        29.2200   95.5460   52.3470 N.2   295  HEM295      0.0000
      7  C1A       28.9110   96.2960   51.2720 C.2   295  HEM295      0.0000
      8  C2A       29.6480   97.4790   51.2820 C.2   295  HEM295      0.0000
      9  C3A       30.4110   97.4410   52.4390 C.2   295  HEM295      0.0000
     10  C4A       30.0580   96.2660   53.0880 C.2   295  HEM295      0.0000
     11  CMA       31.4370   98.4620   52.9050 C.3   295  HEM295      0.0000
     12  CAA       29.6310   98.5930   50.2470 C.3   295  HEM295      0.0000
     13  CBA       28.3800   99.4420   50.2420 C.3   295  HEM295      0.0000
     14  CGA       28.4310  100.5360   49.1920 C.2   295  HEM295      0.0000
     15  O1A       29.4330  101.1980   49.0000 O.co2 295  HEM295      0.0000
     16  O2A       27.4580  100.7670   48.5110 O.co2 295  HEM295      0.0000
     17  NB        29.3680   93.8140   54.7110 N.ar  295  HEM295      0.0000
     18  C1B       30.2520   94.7300   55.1030 C.ar  295  HEM295      0.0000
     19  C2B       30.8660   94.3860   56.3050 C.ar  295  HEM295      0.0000
     20  C3B       30.2630   93.1740   56.6500 C.ar  295  HEM295      0.0000
     21  C4B       29.3240   92.8910   55.6620 C.ar  295  HEM295      0.0000
     22  CMB       31.9410   95.2150   57.0570 C.3   295  HEM295      0.0000
     23  CAB       30.5720   92.2840   57.6690 C.3   295  HEM295      0.0000
     24  CBB       31.8670   92.1460   58.2610 C.3   295  HEM295      0.0000
     25  NC        27.1540   92.2500   53.7010 N.2   295  HEM295      0.0000
     26  C1C       27.4070   91.5040   54.7630 C.2   295  HEM295      0.0000
     27  C2C       26.4730   90.4870   54.9060 C.2   295  HEM295      0.0000
     28  C3C       25.6030   90.6460   53.8020 C.2   295  HEM295      0.0000
     29  C4C       26.1410   91.6750   53.0530 C.2   295  HEM295      0.0000
     30  CMC       26.3790   89.5490   56.1170 C.3   295  HEM295      0.0000
     31  CAC       24.4490   89.9700   53.3670 C.3   295  HEM295      0.0000
     32  CBC       23.8400   88.7600   53.8990 C.3   295  HEM295      0.0000
     33  ND        27.1190   93.8870   51.2530 N.ar  295  HEM295      0.0000
     34  C1D       26.1530   93.0330   50.9090 C.ar  295  HEM295      0.0000
     35  C2D       25.6850   93.2500   49.6220 C.ar  295  HEM295      0.0000
     36  C3D       26.3070   94.4110   49.2070 C.ar  295  HEM295      0.0000
     37  C4D       27.1530   94.7880   50.2590 C.ar  295  HEM295      0.0000
     38  CMD       24.7280   92.4340   48.7470 C.3   295  HEM295      0.0000
     39  CAD       26.1310   95.0180   47.7970 C.3   295  HEM295      0.0000
     40  CBD       25.2960   96.2770   47.8040 C.3   295  HEM295      0.0000
     41  CGD       25.2400   97.0520   46.5080 C.2   295  HEM295      0.0000
     42  O1D       24.7200   98.1600   46.5150 O.co2 295  HEM295      0.0000
     43  O2D       25.6960   96.5960   45.4620 O.co2 295  HEM295      0.0000
@<TRIPOS>BOND
     1    43    41   ar
     2    41    42   ar
     3    41    40    1
     4    39    40    1
     5    39    36    1
     6    16    14   ar
     7    38    35    1
     8    15    14   ar
     9    14    13    1
    10    36    35   ar
    11    36    37   ar
    12    35    34   ar
    13    13    12    1
    14    12     8    1
    15    37     2    2
    16    37    33   ar
    17     2     7    1
    18    34    33   ar
    19    34     5    2
    20    33     1    1
    21     7     8    1
    22     7     6    2
    23     8     9    2
    24     5    29    1
    25     6     1    1
    26     6    10    1
    27     9    11    1
    28     9    10    1
    29     1    25    1
    30     1    17    1
    31    29    25    2
    32    29    28    1
    33    10     3    2
    34    31    28    1
    35    31    32    1
    36    25    26    1
    37    28    27    2
    38     3    18    1
    39    17    18   ar
    40    17    21   ar
    41    26    27    1
    42    26     4    2
    43    27    30    1
    44    18    19   ar
    45     4    21    1
    46    21    20   ar
    47    19    20   ar
    48    19    22    1
    49    20    23    1
    50    23    24    1
