@<TRIPOS>MOLECULE
1aet_HEM_A_1.pdb
 43 50 0 0 0
SMALL
GASTEIGER

@<TRIPOS>ATOM
      1 FE         -5.7110   57.0480  111.8140 Fe    295  HEM295      0.0000
      2  CHA       -5.6160   53.9120  112.9790 C.2   295  HEM295      0.0000
      3  CHB       -7.5630   57.9950  114.5410 C.2   295  HEM295      0.0000
      4  CHC       -5.9910   60.1620  110.5580 C.2   295  HEM295      0.0000
      5  CHD       -3.5870   56.2040  109.3310 C.2   295  HEM295      0.0000
      6  NA        -6.5720   56.0930  113.4370 N.2   295  HEM295      0.0000
      7  C1A       -6.3150   54.8280  113.7880 C.2   295  HEM295      0.0000
      8  C2A       -6.7800   54.5690  115.0580 C.2   295  HEM295      0.0000
      9  C3A       -7.4090   55.7340  115.4930 C.2   295  HEM295      0.0000
     10  C4A       -7.1850   56.6520  114.4960 C.2   295  HEM295      0.0000
     11  CMA       -8.1970   55.9410  116.7780 C.3   295  HEM295      0.0000
     12  CAA       -6.6500   53.2510  115.7960 C.3   295  HEM295      0.0000
     13  CBA       -5.4060   53.0740  116.5950 C.3   295  HEM295      0.0000
     14  CGA       -5.3740   51.7110  117.2840 C.2   295  HEM295      0.0000
     15  O1A       -6.2520   51.3330  118.0680 O.co2 295  HEM295      0.0000
     16  O2A       -4.4460   50.9660  117.0360 O.co2 295  HEM295      0.0000
     17  NB        -6.7150   58.7670  112.4040 N.ar  295  HEM295      0.0000
     18  C1B       -7.3760   58.9740  113.5370 C.ar  295  HEM295      0.0000
     19  C2B       -7.9210   60.2650  113.5720 C.ar  295  HEM295      0.0000
     20  C3B       -7.4610   60.8870  112.4210 C.ar  295  HEM295      0.0000
     21  C4B       -6.6960   59.9330  111.7510 C.ar  295  HEM295      0.0000
     22  CMB       -8.8760   60.7460  114.6520 C.3   295  HEM295      0.0000
     23  CAB       -7.7150   62.1500  111.8930 C.3   295  HEM295      0.0000
     24  CBB       -8.8160   63.0140  112.2650 C.3   295  HEM295      0.0000
     25  NC        -4.9250   58.0380  110.2080 N.2   295  HEM295      0.0000
     26  C1C       -5.1420   59.3060  109.8410 C.2   295  HEM295      0.0000
     27  C2C       -4.4090   59.6630  108.7110 C.2   295  HEM295      0.0000
     28  C3C       -3.6620   58.5130  108.4210 C.2   295  HEM295      0.0000
     29  C4C       -4.0440   57.5400  109.3440 C.2   295  HEM295      0.0000
     30  CMC       -4.3260   61.0580  108.0630 C.3   295  HEM295      0.0000
     31  CAC       -2.7200   58.2310  107.4210 C.3   295  HEM295      0.0000
     32  CBC       -2.3730   58.9820  106.2560 C.3   295  HEM295      0.0000
     33  ND        -4.6940   55.3310  111.2530 N.ar  295  HEM295      0.0000
     34  C1D       -3.9570   55.1610  110.1680 C.ar  295  HEM295      0.0000
     35  C2D       -3.6880   53.8150  109.9600 C.ar  295  HEM295      0.0000
     36  C3D       -4.2890   53.1410  111.0160 C.ar  295  HEM295      0.0000
     37  C4D       -4.8970   54.1320  111.7900 C.ar  295  HEM295      0.0000
     38  CMD       -2.9700   53.1930  108.7770 C.3   295  HEM295      0.0000
     39  CAD       -4.2460   51.6400  111.3010 C.3   295  HEM295      0.0000
     40  CBD       -3.0860   51.2870  112.2450 C.3   295  HEM295      0.0000
     41  CGD       -2.9860   49.8250  112.7070 C.2   295  HEM295      0.0000
     42  O1D       -2.3040   49.5480  113.6780 O.co2 295  HEM295      0.0000
     43  O2D       -3.5740   48.9350  112.1070 O.co2 295  HEM295      0.0000
@<TRIPOS>BOND
     1    32    31    1
     2    31    28    1
     3    30    27    1
     4    28    27    2
     5    28    29    1
     6    27    26    1
     7    38    35    1
     8     5    29    1
     9     5    34    2
    10    29    25    2
    11    26    25    1
    12    26     4    2
    13    35    34   ar
    14    35    36   ar
    15    34    33   ar
    16    25     1    1
    17     4    21    1
    18    36    39    1
    19    36    37   ar
    20    33    37   ar
    21    33     1    1
    22    39    40    1
    23    21    17   ar
    24    21    20   ar
    25    37     2    2
    26     1    17    1
    27     1     6    1
    28    23    24    1
    29    23    20    1
    30    43    41   ar
    31    40    41    1
    32    17    18   ar
    33    20    19   ar
    34    41    42   ar
    35     2     7    1
    36     6     7    2
    37     6    10    1
    38    18    19   ar
    39    18     3    1
    40    19    22    1
    41     7     8    1
    42    10     3    2
    43    10     9    1
    44     8     9    2
    45     8    12    1
    46     9    11    1
    47    12    13    1
    48    13    14    1
    49    16    14   ar
    50    14    15   ar
