@<TRIPOS>MOLECULE
1aev_HEM_A_1.pdb
 43 50 0 0 0
SMALL
GASTEIGER

@<TRIPOS>ATOM
      1 FE         -5.5790   57.1380  111.7690 Fe    295  HEM295      0.0000
      2  CHA       -5.3370   54.0260  113.0580 C.2   295  HEM295      0.0000
      3  CHB       -7.3360   58.1380  114.5360 C.2   295  HEM295      0.0000
      4  CHC       -5.7830   60.2870  110.5870 C.2   295  HEM295      0.0000
      5  CHD       -3.4970   56.2560  109.2630 C.2   295  HEM295      0.0000
      6  NA        -6.2670   56.2370  113.4870 N.2   295  HEM295      0.0000
      7  C1A       -6.0560   54.9560  113.8360 C.2   295  HEM295      0.0000
      8  C2A       -6.6280   54.6950  115.0740 C.2   295  HEM295      0.0000
      9  C3A       -7.2460   55.8790  115.4930 C.2   295  HEM295      0.0000
     10  C4A       -6.9590   56.7950  114.5100 C.2   295  HEM295      0.0000
     11  CMA       -8.0460   56.1140  116.7830 C.3   295  HEM295      0.0000
     12  CAA       -6.5190   53.3730  115.8210 C.3   295  HEM295      0.0000
     13  CBA       -5.2570   53.1910  116.6420 C.3   295  HEM295      0.0000
     14  CGA       -5.1920   51.8470  117.3520 C.2   295  HEM295      0.0000
     15  O1A       -6.0850   51.4790  118.1150 O.co2 295  HEM295      0.0000
     16  O2A       -4.2340   51.1070  117.1550 O.co2 295  HEM295      0.0000
     17  NB        -6.5530   58.8850  112.3770 N.ar  295  HEM295      0.0000
     18  C1B       -7.1870   59.1030  113.5310 C.ar  295  HEM295      0.0000
     19  C2B       -7.7490   60.3770  113.5770 C.ar  295  HEM295      0.0000
     20  C3B       -7.3440   60.9830  112.3980 C.ar  295  HEM295      0.0000
     21  C4B       -6.5240   60.0620  111.7490 C.ar  295  HEM295      0.0000
     22  CMB       -8.6810   60.8740  114.6890 C.3   295  HEM295      0.0000
     23  CAB       -7.7010   62.2260  111.8650 C.3   295  HEM295      0.0000
     24  CBB       -8.6960   63.1490  112.3820 C.3   295  HEM295      0.0000
     25  NC        -4.8060   58.1110  110.1620 N.2   295  HEM295      0.0000
     26  C1C       -4.9710   59.4090  109.8380 C.2   295  HEM295      0.0000
     27  C2C       -4.2170   59.7540  108.7180 C.2   295  HEM295      0.0000
     28  C3C       -3.5010   58.5870  108.4090 C.2   295  HEM295      0.0000
     29  C4C       -3.9270   57.6080  109.2910 C.2   295  HEM295      0.0000
     30  CMC       -4.1140   61.1370  108.0490 C.3   295  HEM295      0.0000
     31  CAC       -2.5480   58.3030  107.4180 C.3   295  HEM295      0.0000
     32  CBC       -2.1230   59.0900  106.2890 C.3   295  HEM295      0.0000
     33  ND        -4.5170   55.4280  111.2540 N.ar  295  HEM295      0.0000
     34  C1D       -3.8120   55.2360  110.1390 C.ar  295  HEM295      0.0000
     35  C2D       -3.5320   53.9100  109.9480 C.ar  295  HEM295      0.0000
     36  C3D       -4.0730   53.2480  111.0480 C.ar  295  HEM295      0.0000
     37  C4D       -4.6590   54.2260  111.8390 C.ar  295  HEM295      0.0000
     38  CMD       -2.8870   53.2910  108.7260 C.3   295  HEM295      0.0000
     39  CAD       -4.0350   51.7370  111.3130 C.3   295  HEM295      0.0000
     40  CBD       -2.8310   51.3150  112.1720 C.3   295  HEM295      0.0000
     41  CGD       -2.8250   49.8630  112.6260 C.2   295  HEM295      0.0000
     42  O1D       -2.1800   49.5710  113.6200 O.co2 295  HEM295      0.0000
     43  O2D       -3.4700   49.0200  112.0040 O.co2 295  HEM295      0.0000
@<TRIPOS>BOND
     1    32    31    1
     2    31    28    1
     3    30    27    1
     4    28    27    2
     5    28    29    1
     6    27    26    1
     7    38    35    1
     8     5    29    1
     9     5    34    2
    10    29    25    2
    11    26    25    1
    12    26     4    2
    13    35    34   ar
    14    35    36   ar
    15    34    33   ar
    16    25     1    1
    17     4    21    1
    18    36    39    1
    19    36    37   ar
    20    33     1    1
    21    33    37   ar
    22    39    40    1
    23    21    17   ar
    24    21    20   ar
    25     1    17    1
    26     1     6    1
    27    37     2    2
    28    23    24    1
    29    23    20    1
    30    43    41   ar
    31    40    41    1
    32    17    18   ar
    33    20    19   ar
    34    41    42   ar
    35     2     7    1
    36     6     7    2
    37     6    10    1
    38    18    19   ar
    39    18     3    1
    40    19    22    1
    41     7     8    1
    42    10     3    2
    43    10     9    1
    44     8     9    2
    45     8    12    1
    46     9    11    1
    47    12    13    1
    48    13    14    1
    49    16    14   ar
    50    14    15   ar
