@<TRIPOS>MOLECULE
1aex_THP_A_1.pdb
 26 27 0 0 0
SMALL
GASTEIGER

@<TRIPOS>ATOM
      1  P2         6.4140   14.1830   20.4050 P.3   151  THP151      0.5327
      2  O4P        5.4700   14.2190   19.2670 O.2   151  THP151     -0.2224
      3  O5P        7.6950   14.8970   20.0910 O.3   151  THP151     -0.1145
      4  O6P        6.5260   12.8880   21.0800 O.3   151  THP151     -0.1145
      5  P1         4.9480   12.0590   26.0870 P.3   151  THP151      0.5326
      6  O1P        4.7190   11.9040   27.5160 O.3   151  THP151     -0.1145
      7  O2P        6.3330   12.0320   25.6360 O.3   151  THP151     -0.1145
      8  O3P        3.9770   11.3380   25.2340 O.2   151  THP151     -0.2224
      9  O5'        5.7120   15.0120   21.5510 O.3   151  THP151     -0.2675
     10  C5'        4.6780   14.4910   22.3480 C.3   151  THP151      0.1857
     11  C4'        5.1510   14.5320   23.7920 C.3   151  THP151      0.1750
     12  O4'        5.4040   15.8850   24.2120 O.3   151  THP151     -0.3327
     13  C3'        4.0140   14.1230   24.6820 C.3   151  THP151      0.1602
     14  O3'        4.5790   13.6250   25.9080 O.3   151  THP151     -0.2700
     15  C2'        3.2070   15.3480   24.8850 C.3   151  THP151      0.0867
     16  C1'        4.3080   16.3940   25.0240 C.3   151  THP151      0.2106
     17  N1         3.8500   17.7420   24.5970 N.ar  151  THP151     -0.2574
     18  C2         3.3600   18.5760   25.6110 C.ar  151  THP151      0.3322
     19  O2         3.3950   18.3620   26.8290 O.2   151  THP151     -0.2464
     20  N3         2.8480   19.7530   25.2020 N.ar  151  THP151     -0.2746
     21  C4         2.7050   20.1710   23.9250 C.ar  151  THP151      0.2584
     22  O4         2.0830   21.2180   23.7980 O.2   151  THP151     -0.2674
     23  C5         3.2670   19.2950   22.8890 C.ar  151  THP151      0.0515
     24  C5M        3.1030   19.6660   21.3710 C.3   151  THP151      0.0376
     25  C6         3.8810   18.1490   23.2720 C.ar  151  THP151      0.0823
     26  H3         2.5870   20.4150   25.9040 H     151  THP151      0.1734
@<TRIPOS>BOND
     1     2     1    2
     2     3     1    1
     3     1     4    1
     4     1     9    1
     5    24    23    1
     6     9    10    1
     7    10    11    1
     8    23    25   ar
     9    23    21   ar
    10    25    17   ar
    11    11    12    1
    12    11    13    1
    13    22    21    2
    14    21    20   ar
    15    12    16    1
    16    17    16    1
    17    17    18   ar
    18    13    15    1
    19    13    14    1
    20    15    16    1
    21    20    18   ar
    22    20    26    1
    23     8     5    2
    24    18    19    2
    25     7     5    1
    26    14     5    1
    27     5     6    1
