@<TRIPOS>MOLECULE
1af0_0Z9_A_1.pdb
 15 14 0 0 0
SMALL
GASTEIGER

@<TRIPOS>ATOM
      1  N        -14.3290   21.2140   33.1390 N.3   674  0Z9674     -0.1231
      2  CA       -13.9520   20.1990   34.1120 C.3   674  0Z9674      0.1693
      3  C        -13.5150   20.8000   35.4460 C.2   674  0Z9674      0.2591
      4  O        -12.6260   21.6530   35.4600 O.2   674  0Z9674     -0.2718
      5  CB       -12.7580   19.3930   33.5720 C.3   674  0Z9674      0.0284
      6  CG       -13.0420   17.9730   33.0920 C.3   674  0Z9674      0.0019
      7  CD1      -11.8110   17.3880   32.4150 C.3   674  0Z9674      0.0001
      8  CD2      -13.5000   17.0950   34.2460 C.3   674  0Z9674      0.0001
      9  N1       -14.0720   20.3220   36.5500 N.am  674  0Z9674     -0.1995
     10  CA1      -13.6460   20.8170   37.8560 C.3   674  0Z9674      0.1401
     11  CB1      -14.6580   20.4380   38.9220 C.3   674  0Z9674      0.0304
     12  C1       -12.2680   20.2400   38.1560 C.2   674  0Z9674      0.1067
     13  O1       -12.0120   19.0410   38.2340 O.2   674  0Z9674     -0.5379
     14  N2       -11.2980   21.1380   38.2950 N.am  674  0Z9674     -0.2012
     15  OH       -10.0410   20.5890   38.5600 O.3   674  0Z9674     -0.4026
@<TRIPOS>BOND
     1     7     6    1
     2     6     5    1
     3     6     8    1
     4     1     2    1
     5     5     2    1
     6     2     3    1
     7     3     4    2
     8     3     9   am
     9     9    10    1
    10    10    12    1
    11    10    11    1
    12    12    13    2
    13    12    14   am
    14    14    15    1
