@<TRIPOS>MOLECULE
1af2_U_A_1.pdb
 17 18 0 0 0
SMALL
GASTEIGER

@<TRIPOS>ATOM
      1  O5'       33.2440   51.8150   10.9650 O.3   295  U295       -0.2176
      2  C5'       34.0900   52.0600   12.1040 C.3   295  U295        0.2142
      3  C4'       35.4680   51.6920   11.7190 C.3   295  U295        0.1829
      4  O4'       35.6230   50.3370   11.3450 O.3   295  U295       -0.3318
      5  C3'       36.0780   52.5880   10.6320 C.3   295  U295        0.2159
      6  O3'       37.4630   52.7290   10.8190 O.3   295  U295       -0.2175
      7  C2'       35.8650   51.8640    9.3820 C.3   295  U295        0.2319
      8  O2'       36.9600   52.0210    8.4420 O.3   295  U295       -0.2157
      9  C1'       35.8430   50.4710    9.9260 C.3   295  U295        0.2401
     10  N1        35.2970   49.0220    9.4500 N.am  295  U295       -0.1766
     11  C2        36.0660   48.3560    8.5220 C.1   295  U295        0.2845
     12  O2        37.2830   48.4750    8.3920 O.2   295  U295       -0.1918
     13  N3        35.3750   47.5660    7.6410 N.2   295  U295       -0.2452
     14  C4        34.0150   47.4990    7.4960 C.1   295  U295        0.2182
     15  O4        33.5860   46.9810    6.5050 O.2   295  U295       -0.2085
     16  C5        33.2540   48.1100    8.5500 C.2   295  U295        0.1242
     17  C6        33.8690   48.8520    9.4840 C.2   295  U295        0.0929
@<TRIPOS>BOND
     1    15    14    2
     2    14    13    2
     3    14    16    1
     4    13    11    2
     5    12    11    2
     6     8     7    1
     7    11    10   am
     8    16    17    2
     9     7     9    1
    10     7     5    1
    11    10    17    1
    12    10     9    1
    13     9     4    1
    14     5     6    1
    15     5     3    1
    16     1     2    1
    17     4     3    1
    18     3     2    1
