@<TRIPOS>MOLECULE
1af6_FRU_A_1.pdb
 12 12 0 0 0
SMALL
GASTEIGER

@<TRIPOS>ATOM
      1  C1        11.4430   40.9520   87.8580 C.3   423  FRU423      0.2434
      2  C2        12.8040   41.2550   87.1810 C.3   423  FRU423      0.2807
      3  C3        13.9170   41.7790   88.1490 C.3   423  FRU423      0.2409
      4  C4        14.8430   42.4840   87.1270 C.3   423  FRU423      0.2168
      5  C5        13.7690   43.2140   86.2970 C.3   423  FRU423      0.1836
      6  C6        14.2040   43.6460   84.9250 C.3   423  FRU423      0.2142
      7  O1        10.9650   42.0370   88.6640 O.3   423  FRU423     -0.2148
      8  O2        13.2970   40.0420   86.5380 O.3   423  FRU423     -0.1896
      9  O3        14.5930   40.6720   88.7730 O.3   423  FRU423     -0.2149
     10  O4        15.7700   43.3640   87.7470 O.3   423  FRU423     -0.2175
     11  O5        12.6650   42.2850   86.1410 O.3   423  FRU423     -0.3253
     12  O6        13.2820   44.6090   84.4310 O.3   423  FRU423     -0.2176
@<TRIPOS>BOND
     1    12     6    1
     2     6     5    1
     3    11     5    1
     4    11     2    1
     5     5     4    1
     6     8     2    1
     7     4    10    1
     8     4     3    1
     9     2     1    1
    10     2     3    1
    11     1     7    1
    12     3     9    1
