@<TRIPOS>MOLECULE
1af6_GLC_A_1.pdb
 11 11 0 0 0
SMALL
GASTEIGER

@<TRIPOS>ATOM
      1  C1        12.4190   39.2880   85.7670 C.3   422  GLC422      0.1777
      2  C2        13.0120   37.8620   85.6750 C.3   422  GLC422      0.2141
      3  C3        14.4260   37.9190   85.0500 C.3   422  GLC422      0.2173
      4  C4        14.3370   38.5690   83.6650 C.3   422  GLC422      0.2142
      5  C5        13.5240   39.8610   83.6470 C.3   422  GLC422      0.1810
      6  C6        13.0830   40.1780   82.2090 C.3   422  GLC422      0.2141
      7  O2        13.0850   37.3160   86.9890 O.3   422  GLC422     -0.2176
      8  O3        14.9570   36.5940   84.9620 O.3   422  GLC422     -0.2175
      9  O4        15.6480   38.8500   83.1520 O.3   422  GLC422     -0.2176
     10  O5        12.3140   39.8530   84.4570 O.3   422  GLC422     -0.3481
     11  O6        12.3130   41.3720   82.2470 O.3   422  GLC422     -0.2176
@<TRIPOS>BOND
     1     6    11    1
     2     6     5    1
     3     9     4    1
     4     5     4    1
     5     5    10    1
     6     4     3    1
     7    10     1    1
     8     8     3    1
     9     3     2    1
    10     2     1    1
    11     2     7    1
