@<TRIPOS>MOLECULE
1af7_SAH_A_1.pdb
 26 28 0 0 0
SMALL
GASTEIGER

@<TRIPOS>ATOM
      1  N         28.2780   22.0890   42.1630 N.3   287  SAH287     -0.1208
      2  CA        29.4880   21.4340   42.6680 C.3   287  SAH287      0.1952
      3  CB        29.7260   21.8100   44.1510 C.3   287  SAH287      0.0422
      4  CG        28.6830   21.3110   45.1040 C.3   287  SAH287      0.0597
      5  SD        29.0020   21.5750   46.8870 S.3   287  SAH287     -0.1375
      6  C         29.4450   19.8900   42.4540 C.2   287  SAH287      0.3819
      7  O         28.5090   19.4360   41.7560 O.co2 287  SAH287     -0.2441
      8  OXT       30.5390   19.2910   42.4350 O.co2 287  SAH287     -0.2441
      9  C5'       27.5230   22.4910   47.2440 C.3   287  SAH287      0.0899
     10  C4'       27.7690   23.9330   47.6120 C.3   287  SAH287      0.1630
     11  O4'       26.5200   24.6240   47.7660 O.3   287  SAH287     -0.3153
     12  C3'       28.4970   24.0930   48.9370 C.3   287  SAH287      0.2168
     13  O3'       29.8560   24.4540   48.6970 O.3   287  SAH287     -0.2175
     14  C2'       27.7660   25.2090   49.6970 C.3   287  SAH287      0.2569
     15  O2'       28.5670   26.2530   50.2070 O.3   287  SAH287     -0.2130
     16  C1'       26.7040   25.6650   48.6900 C.3   287  SAH287      0.3185
     17  N9        25.4260   26.0970   49.2450 N.pl3 287  SAH287     -0.1439
     18  C8        24.6900   25.5240   50.2460 C.3   287  SAH287      0.3377
     19  N7        23.6200   26.2040   50.5730 N.2   287  SAH287     -0.2095
     20  C5        23.6430   27.2970   49.7170 C.2   287  SAH287      0.2526
     21  C6        22.8070   28.4240   49.6010 C.2   287  SAH287      0.4393
     22  N6        21.7370   28.6320   50.3720 N.pl3 287  SAH287      0.2180
     23  N1        23.1200   29.3420   48.6650 N.2   287  SAH287      0.0021
     24  C2        24.2100   29.1440   47.9050 C.3   287  SAH287      0.5254
     25  N3        25.0870   28.1280   47.9290 N.2   287  SAH287     -0.0055
     26  C4        24.7420   27.2320   48.8750 C.2   287  SAH287      0.3518
@<TRIPOS>BOND
     1     7     6   ar
     2     1     2    1
     3     8     6   ar
     4     6     2    1
     5     2     3    1
     6     3     4    1
     7     4     5    1
     8     5     9    1
     9     9    10    1
    10    10    11    1
    11    10    12    1
    12    11    16    1
    13    24    25    1
    14    24    23    1
    15    25    26    2
    16    23    21    2
    17    16    17    1
    18    16    14    1
    19    13    12    1
    20    26    17    1
    21    26    20    1
    22    12    14    1
    23    17    18    1
    24    21    20    1
    25    21    22    1
    26    14    15    1
    27    20    19    2
    28    18    19    1
