@<TRIPOS>MOLECULE
1afa_MBG_1_1.pdb
 13 13 0 0 0
SMALL
GASTEIGER

@<TRIPOS>ATOM
      1  C1        48.1220   -2.4430   21.4160 C.3     1  MBG1        0.2695
      2  C2        46.6810   -2.5300   21.9370 C.3     1  MBG1        0.2406
      3  C3        46.6080   -3.4720   23.1410 C.3     1  MBG1        0.2198
      4  C4        47.2490   -4.8190   22.8180 C.3     1  MBG1        0.2144
      5  C5        48.6510   -4.6350   22.2460 C.3     1  MBG1        0.1835
      6  C6        49.2320   -5.9600   21.7900 C.3     1  MBG1        0.2142
      7  C7        49.5130   -1.3100   19.8340 C.3     1  MBG1        0.1769
      8  O1        48.1800   -1.5760   20.3170 O.3     1  MBG1       -0.3259
      9  O2        46.2230   -1.2470   22.3170 O.3     1  MBG1       -0.2149
     10  O3        45.2570   -3.6860   23.5010 O.3     1  MBG1       -0.2174
     11  O4        46.4500   -5.5220   21.8850 O.3     1  MBG1       -0.2176
     12  O5        48.5960   -3.7520   21.1000 O.3     1  MBG1       -0.3256
     13  O6        50.6430   -5.8930   21.6610 O.3     1  MBG1       -0.2176
@<TRIPOS>BOND
     1     7     8    1
     2     8     1    1
     3    12     1    1
     4    12     5    1
     5     1     2    1
     6    13     6    1
     7     6     5    1
     8    11     4    1
     9     2     9    1
    10     2     3    1
    11     5     4    1
    12     4     3    1
    13     3    10    1
