@<TRIPOS>MOLECULE
1afb_NGA_1_1.pdb
 15 15 0 0 0
SMALL
GASTEIGER

@<TRIPOS>ATOM
      1  C1        48.4610   -2.5340   21.7150 C.3     1  NGA1        0.2917
      2  C2        46.9760   -2.4930   22.0850 C.3     1  NGA1        0.1871
      3  C3        46.7080   -3.4220   23.2720 C.3     1  NGA1        0.2095
      4  C4        47.2750   -4.8140   22.9930 C.3     1  NGA1        0.2136
      5  C5        48.7360   -4.7390   22.5290 C.3     1  NGA1        0.1835
      6  C6        49.3090   -6.0920   22.1240 C.3     1  NGA1        0.2142
      7  C7        46.1520   -0.2690   21.5310 C.2     1  NGA1        0.2421
      8  C8        45.8400    1.0970   22.1210 C.3     1  NGA1        0.0964
      9  N2        46.6050   -1.1380   22.4280 N.am    1  NGA1       -0.1991
     10  O1        48.6960   -1.7370   20.6130 O.3     1  NGA1       -0.1879
     11  O3        45.3100   -3.5340   23.4760 O.3     1  NGA1       -0.2183
     12  O4        46.4970   -5.4420   21.9930 O.3     1  NGA1       -0.2176
     13  O5        48.8390   -3.8700   21.3850 O.3     1  NGA1       -0.3242
     14  O6        50.7320   -6.0610   22.1040 O.3     1  NGA1       -0.2176
     15  O7        45.9530   -0.5660   20.3470 O.2     1  NGA1       -0.2733
@<TRIPOS>BOND
     1    15     7    2
     2    10     1    1
     3    13     1    1
     4    13     5    1
     5     7     8    1
     6     7     9   am
     7     1     2    1
     8    12     4    1
     9     2     9    1
    10     2     3    1
    11    14     6    1
    12     6     5    1
    13     5     4    1
    14     4     3    1
    15     3    11    1
