@<TRIPOS>MOLECULE
1afe_ALZ_H_1.pdb
 24 25 0 0 0
SMALL
GASTEIGER

@<TRIPOS>ATOM
      1  C14       17.9880  -14.7720   22.9920 C.2   600  ALZ600      0.4094
      2  O14       16.8720  -14.2490   23.1690 O.2   600  ALZ600     -0.2258
      3  O15       18.2670  -15.9830   23.4420 O.3   600  ALZ600     -0.4293
      4  C16       17.4980  -17.1240   23.6600 C.3   600  ALZ600      0.2367
      5  C17       17.8520  -17.6710   24.9840 C.ar  600  ALZ600      0.0213
      6  C18       17.7550  -19.0330   25.2480 C.ar  600  ALZ600     -0.0007
      7  C19       18.1350  -19.5490   26.4830 C.ar  600  ALZ600     -0.0002
      8  C20       18.6300  -18.6860   27.4600 C.ar  600  ALZ600     -0.0000
      9  C21       18.7430  -17.3190   27.2120 C.ar  600  ALZ600     -0.0002
     10  C22       18.3680  -16.8240   25.9620 C.ar  600  ALZ600     -0.0007
     11  N8        18.9230  -14.2270   22.2170 N.am  600  ALZ600     -0.2168
     12  C9        18.7390  -12.9860   21.3980 C.3   600  ALZ600      0.1665
     13  C8        17.3510  -12.9230   20.7540 C.2   600  ALZ600      0.2764
     14  O8        16.9430  -13.9050   20.1740 O.2   600  ALZ600     -0.2701
     15  C10       19.7980  -13.0670   20.2800 C.3   600  ALZ600      0.0571
     16  C11       20.5880  -14.3630   20.5170 C.2   600  ALZ600     -0.0076
     17  C12       20.0000  -15.0680   21.7560 C.2   600  ALZ600      0.0666
     18  N1        10.5240  -12.8780   24.1680 N.3   600  ALZ600     -0.1314
     19  C2        11.3660  -12.9950   22.9820 C.3   600  ALZ600      0.1094
     20  C3        12.2570  -11.7980   22.7700 C.3   600  ALZ600      0.0220
     21  C4        13.0080  -11.8510   21.4650 C.3   600  ALZ600      0.0224
     22  C5        14.3860  -11.2100   21.5400 C.3   600  ALZ600      0.1136
     23  N6        15.3100  -11.5970   20.4460 N.3   600  ALZ600     -0.1084
     24  N7        16.6650  -11.7090   20.7700 N.am  600  ALZ600     -0.1101
@<TRIPOS>BOND
     1    14    13    2
     2    15    16    1
     3    15    12    1
     4    23    24    1
     5    23    22    1
     6    16    17    2
     7    13    24   am
     8    13    12    1
     9    12    11    1
    10    21    22    1
    11    21    20    1
    12    17    11    1
    13    11     1   am
    14    20    19    1
    15    19    18    1
    16     1     2    2
    17     1     3    1
    18     3     4    1
    19     4     5    1
    20     5     6   ar
    21     5    10   ar
    22     6     7   ar
    23    10     9   ar
    24     7     8   ar
    25     9     8   ar
