@<TRIPOS>MOLECULE
1afk_PAP_A_1.pdb
 31 33 0 0 0
SMALL
GASTEIGER

@<TRIPOS>ATOM
      1  PB        37.0960   -2.6270   23.1460 P.3   125  PAP125      0.5373
      2  O1B       35.6450   -2.8540   22.9910 O.3   125  PAP125     -0.1143
      3  O2B       37.4700   -1.7080   24.2740 O.3   125  PAP125     -0.1143
      4  O3B       37.7900   -2.3100   21.8760 O.2   125  PAP125     -0.2221
      5  PA        38.8980   -5.1970   23.0660 P.3   125  PAP125      0.2231
      6  O1A       39.1010   -6.1020   24.2360 O.3   125  PAP125     -0.4370
      7  O2A       40.0900   -4.5480   22.4560 O.2   125  PAP125     -0.5169
      8  O3A       37.7130   -4.0790   23.6160 O.3   125  PAP125     -0.2261
      9  O5'       38.1350   -6.0710   21.9240 O.3   125  PAP125     -0.3111
     10  C5'       37.6540   -5.4600   20.7430 C.3   125  PAP125      0.1812
     11  C4'       37.4550   -6.5780   19.7620 C.3   125  PAP125      0.1795
     12  O4'       36.8070   -5.9900   18.6290 O.3   125  PAP125     -0.3136
     13  C3'       38.7890   -7.1850   19.2480 C.3   125  PAP125      0.1928
     14  O3'       38.6030   -8.6050   18.9820 O.3   125  PAP125     -0.2673
     15  P         39.2670   -9.7840   20.0240 P.3   125  PAP125      0.5327
     16  O1        38.0320  -10.3450   20.6260 O.3   125  PAP125     -0.1145
     17  O2        39.9760  -10.6860   19.0810 O.2   125  PAP125     -0.2224
     18  O3        40.1960   -9.0560   20.9410 O.3   125  PAP125     -0.1145
     19  C2'       38.9870   -6.4000   17.9570 C.3   125  PAP125      0.2543
     20  O2'       39.8810   -7.0970   17.0610 O.3   125  PAP125     -0.2131
     21  C1'       37.5180   -6.4600   17.4940 C.3   125  PAP125      0.3185
     22  N9        37.1230   -5.5360   16.4070 N.pl3 125  PAP125     -0.1439
     23  C8        36.2620   -5.9000   15.4020 C.3   125  PAP125      0.3377
     24  N7        36.0380   -4.9630   14.5290 N.2   125  PAP125     -0.2095
     25  C5        36.8190   -3.8500   14.9770 C.2   125  PAP125      0.2526
     26  C6        36.9920   -2.4990   14.4510 C.2   125  PAP125      0.4393
     27  N6        36.4470   -2.1010   13.2850 N.pl3 125  PAP125      0.2180
     28  N1        37.7970   -1.6570   15.1510 N.2   125  PAP125      0.0021
     29  C2        38.3900   -2.1300   16.2570 C.3   125  PAP125      0.5254
     30  N3        38.3300   -3.3480   16.8480 N.2   125  PAP125     -0.0055
     31  C4        37.4970   -4.1920   16.1420 C.2   125  PAP125      0.3518
@<TRIPOS>BOND
     1    27    26    1
     2    26    25    1
     3    26    28    2
     4    24    25    2
     5    24    23    1
     6    25    31    1
     7    28    29    1
     8    23    22    1
     9    31    22    1
    10    31    30    2
    11    29    30    1
    12    22    21    1
    13    20    19    1
    14    21    19    1
    15    21    12    1
    16    19    13    1
    17    12    11    1
    18    14    13    1
    19    14    15    1
    20    17    15    2
    21    13    11    1
    22    11    10    1
    23    15    16    1
    24    15    18    1
    25    10     9    1
    26     4     1    2
    27     9     5    1
    28     7     5    2
    29     2     1    1
    30     5     8    1
    31     5     6    1
    32     1     8    1
    33     1     3    1
