@<TRIPOS>MOLECULE
1afl_ATR_A_1.pdb
 31 33 0 0 0
SMALL
GASTEIGER

@<TRIPOS>ATOM
      1  PB        37.2410   -2.7860   23.0660 P.3   125  ATR125      0.5373
      2  O1B       37.8370   -2.2840   24.2990 O.3   125  ATR125     -0.1143
      3  O2B       35.7750   -2.8980   23.1260 O.3   125  ATR125     -0.1143
      4  O3B       37.8130   -2.1830   21.8570 O.2   125  ATR125     -0.2221
      5  PA        38.9650   -5.3250   22.7600 P.3   125  ATR125      0.2231
      6  O1A       38.3980   -6.7290   22.7470 O.2   125  ATR125     -0.5169
      7  O2A       40.1970   -4.9690   23.6130 O.3   125  ATR125     -0.4370
      8  O3A       37.5640   -4.3250   22.9850 O.3   125  ATR125     -0.2261
      9  O5'       39.2910   -5.0010   21.1570 O.3   125  ATR125     -0.3111
     10  C5'       38.0080   -5.0480   20.5090 C.3   125  ATR125      0.1813
     11  C4'       37.7680   -6.3040   19.8480 C.3   125  ATR125      0.1820
     12  O4'       36.8740   -5.7220   18.9300 O.3   125  ATR125     -0.3136
     13  C3'       38.9460   -7.0410   19.0570 C.3   125  ATR125      0.2157
     14  O3'       39.5370   -8.2850   19.6940 O.3   125  ATR125     -0.2175
     15  C2'       38.1080   -7.4720   17.8680 C.3   125  ATR125      0.2314
     16  O2'       37.4760   -8.6980   18.1800 O.3   125  ATR125     -0.2630
     17  P2'       36.7040   -9.4600   16.9420 P.3   125  ATR125      0.5328
     18  O1P       35.5790   -8.5940   16.4960 O.3   125  ATR125     -0.1145
     19  O2P       37.7790   -9.6880   15.9180 O.2   125  ATR125     -0.2224
     20  O3P       36.3620  -10.5970   17.8500 O.3   125  ATR125     -0.1145
     21  C1'       36.9470   -6.4800   17.7560 C.3   125  ATR125      0.3158
     22  N9        36.9050   -5.6480   16.4670 N.pl3 125  ATR125     -0.1439
     23  C8        36.1340   -6.0340   15.3550 C.3   125  ATR125      0.3377
     24  N7        36.0170   -5.1590   14.4050 N.2   125  ATR125     -0.2095
     25  C5        36.7960   -4.0540   14.9090 C.2   125  ATR125      0.2526
     26  C6        37.0430   -2.7400   14.3850 C.2   125  ATR125      0.4393
     27  N6        36.6280   -2.3860   13.1430 N.pl3 125  ATR125      0.2180
     28  N1        37.7940   -1.8900   15.1790 N.2   125  ATR125      0.0021
     29  C2        38.2670   -2.3180   16.3460 C.3   125  ATR125      0.5254
     30  N3        38.1250   -3.4940   16.9330 N.2   125  ATR125     -0.0055
     31  C4        37.3540   -4.3430   16.1620 C.2   125  ATR125      0.3518
@<TRIPOS>BOND
     1    27    26    1
     2    26    25    1
     3    26    28    2
     4    24    25    2
     5    24    23    1
     6    25    31    1
     7    28    29    1
     8    23    22    1
     9    19    17    2
    10    31    22    1
    11    31    30    2
    12    29    30    1
    13    22    21    1
    14    18    17    1
    15    17    20    1
    16    17    16    1
    17    21    15    1
    18    21    12    1
    19    15    16    1
    20    15    13    1
    21    12    11    1
    22    13    14    1
    23    13    11    1
    24    11    10    1
    25    10     9    1
    26     9     5    1
    27     4     1    2
    28     6     5    2
    29     5     8    1
    30     5     7    1
    31     8     1    1
    32     1     3    1
    33     1     2    1
