@<TRIPOS>MOLECULE
1afq_0FG_B_1.pdb
 28 29 0 0 0
SMALL
GASTEIGER

@<TRIPOS>ATOM
      1  N         19.4170   19.9530   21.2380 N.3   304  0FG304     -0.1231
      2  CA        20.3520   21.0270   21.5650 C.3   304  0FG304      0.1693
      3  CB        21.7850   20.5270   21.4470 C.3   304  0FG304      0.0284
      4  CG        22.6820   21.2040   20.4310 C.3   304  0FG304      0.0019
      5  CD1       23.9550   20.3940   20.3110 C.3   304  0FG304      0.0001
      6  CD2       21.9950   21.3080   19.0730 C.3   304  0FG304      0.0001
      7  C         20.1400   21.5420   22.9770 C.2   304  0FG304      0.2592
      8  O         20.1470   20.7690   23.9390 O.2   304  0FG304     -0.2718
      9  N1        19.9510   22.8440   23.0780 N.am  304  0FG304     -0.1962
     10  CA1       19.7910   23.4920   24.3680 C.3   304  0FG304      0.1771
     11  C1        18.3450   23.8550   24.6280 C.2   304  0FG304      0.2619
     12  O1        17.5870   24.1490   23.7110 O.2   304  0FG304     -0.2715
     13  CB1       20.6710   24.7340   24.4340 C.3   304  0FG304      0.0574
     14  CG1       22.1030   24.4330   24.0620 C.ar  304  0FG304     -0.0200
     15 CD11       22.8850   23.6340   24.8940 C.ar  304  0FG304     -0.0042
     16 CD21       22.6300   24.8940   22.8550 C.ar  304  0FG304     -0.0042
     17  CE1       24.1680   23.2740   24.5370 C.ar  304  0FG304     -0.0003
     18  CE2       23.9170   24.5510   22.4640 C.ar  304  0FG304     -0.0003
     19  CZ        24.7040   23.7380   23.3160 C.ar  304  0FG304     -0.0000
     20  C11       16.3710   25.6110   26.3310 C.ar  304  0FG304     -0.0004
     21  C2        15.0880   26.0890   26.6150 C.ar  304  0FG304     -0.0002
     22  C3        14.8390   27.4660   26.6140 C.ar  304  0FG304      0.0294
     23  C4        15.8620   28.3500   26.3370 C.ar  304  0FG304      0.1401
     24  C5        17.1510   27.8920   26.0460 C.ar  304  0FG304      0.0294
     25  C6        17.4040   26.5220   26.0440 C.ar  304  0FG304     -0.0002
     26  C7        16.6340   24.1160   26.3540 C.3   304  0FG304      0.1415
     27  N2        17.9900   23.8070   25.9050 N.am  304  0FG304     -0.1991
     28  F         15.5920   29.6660   26.4130 F     304  0FG304     -0.2042
@<TRIPOS>BOND
     1     6     4    1
     2     5     4    1
     3     4     3    1
     4     1     2    1
     5     3     2    1
     6     2     7    1
     7    18    16   ar
     8    18    19   ar
     9    16    14   ar
    10     7     9   am
    11     7     8    2
    12     9    10    1
    13    19    17   ar
    14    12    11    2
    15    14    13    1
    16    14    15   ar
    17    10    13    1
    18    10    11    1
    19    17    15   ar
    20    11    27   am
    21    27    26    1
    22    25    24   ar
    23    25    20   ar
    24    24    23   ar
    25    20    26    1
    26    20    21   ar
    27    23    28    1
    28    23    22   ar
    29    22    21   ar
