@<TRIPOS>MOLECULE
1afs_NAP_A_1.pdb
 48 52 0 0 0
SMALL
GASTEIGER

@<TRIPOS>ATOM
      1  PA       -32.4010   18.9610   -3.5620 P.3   324  NAP324      0.2189
      2  O1A      -32.7150   19.5470   -2.2380 O.3   324  NAP324     -0.4371
      3  O2A      -31.8950   19.8630   -4.6220 O.2   324  NAP324     -0.5170
      4  O5B      -33.7410   18.2580   -4.0930 O.3   324  NAP324     -0.3112
      5  C5B      -33.8360   17.7510   -5.4260 C.3   324  NAP324      0.1813
      6  C4B      -35.3020   17.4270   -5.5620 C.3   324  NAP324      0.1820
      7  O4B      -36.0560   18.6520   -5.5730 O.3   324  NAP324     -0.3136
      8  C3B      -35.5360   16.6970   -6.8620 C.3   324  NAP324      0.2157
      9  O3B      -36.1490   15.4440   -6.5580 O.3   324  NAP324     -0.2175
     10  C2B      -36.4600   17.5970   -7.6660 C.3   324  NAP324      0.2314
     11  O2B      -37.5280   16.8350   -8.2660 O.3   324  NAP324     -0.2630
     12  C1B      -37.0100   18.5740   -6.6400 C.3   324  NAP324      0.3158
     13  N9A      -37.2740   19.9100   -7.2370 N.pl3 324  NAP324     -0.1439
     14  C8A      -36.4620   20.6160   -8.0300 C.3   324  NAP324      0.3377
     15  N7A      -37.0740   21.7380   -8.4120 N.2   324  NAP324     -0.2095
     16  C5A      -38.2790   21.7500   -7.8500 C.2   324  NAP324      0.2526
     17  C6A      -39.3550   22.6450   -7.8490 C.2   324  NAP324      0.4393
     18  N6A      -39.3310   23.8190   -8.4660 N.pl3 324  NAP324      0.2180
     19  N1A      -40.4610   22.3290   -7.1410 N.2   324  NAP324      0.0021
     20  C2A      -40.5390   21.1970   -6.4590 C.3   324  NAP324      0.5254
     21  N3A      -39.5430   20.3290   -6.4380 N.2   324  NAP324     -0.0055
     22  C4A      -38.4130   20.5840   -7.1120 C.2   324  NAP324      0.3518
     23  O3       -31.4020   17.7180   -3.3000 O.3   324  NAP324     -0.2703
     24  PN       -30.5180   16.6190   -4.0680 P.3   324  NAP324      0.2189
     25  O1N      -31.0740   16.3450   -5.4090 O.2   324  NAP324     -0.5170
     26  O2N      -30.3380   15.4840   -3.1450 O.3   324  NAP324     -0.4371
     27  O5D      -29.0950   17.3550   -4.2090 O.3   324  NAP324     -0.3112
     28  C5D      -28.8570   18.3680   -5.1990 C.3   324  NAP324      0.1813
     29  C4D      -27.3680   18.5100   -5.4730 C.3   324  NAP324      0.1799
     30  O4D      -26.6110   18.8980   -4.3130 O.3   324  NAP324     -0.3327
     31  C3D      -26.7510   17.2050   -5.9120 C.3   324  NAP324      0.2158
     32  O3D      -27.0100   16.8710   -7.2790 O.3   324  NAP324     -0.2175
     33  C2D      -25.2810   17.4910   -5.7070 C.3   324  NAP324      0.2309
     34  O2D      -24.7730   18.1610   -6.8550 O.3   324  NAP324     -0.2158
     35  C1D      -25.2850   18.3540   -4.4680 C.3   324  NAP324      0.2263
     36  N1N      -24.9810   17.5090   -3.2910 N.pl3 324  NAP324     -0.2787
     37  C2N      -23.7020   17.5290   -2.7170 C.3   324  NAP324      0.1244
     38  C3N      -23.4270   16.7450   -1.6020 C.2   324  NAP324      0.0544
     39  C7N      -22.0570   16.7980   -0.9280 C.2   324  NAP324      0.2818
     40  O7N      -21.7430   15.9870   -0.0630 O.2   324  NAP324     -0.2670
     41  N7N      -21.2590   17.7700   -1.3400 N.am  324  NAP324     -0.0839
     42  C4N      -24.4200   15.9280   -1.0700 C.2   324  NAP324      0.0033
     43  C5N      -25.6870   15.8960   -1.6380 C.2   324  NAP324      0.0157
     44  C6N      -25.9720   16.6890   -2.7420 C.2   324  NAP324      0.0633
     45  P2B      -37.6950   16.7190   -9.8590 P.3   324  NAP324      0.5328
     46  O1X      -36.4370   16.2090  -10.4480 O.2   324  NAP324     -0.2224
     47  O2X      -38.9480   15.9830  -10.1150 O.3   324  NAP324     -0.1145
     48  O3X      -37.9080   18.2430  -10.3260 O.3   324  NAP324     -0.1145
@<TRIPOS>BOND
     1    46    45    2
     2    48    45    1
     3    47    45    1
     4    45    11    1
     5    18    17    1
     6    15    14    1
     7    15    16    2
     8    11    10    1
     9    14    13    1
    10    16    17    1
    11    16    22    1
    12    17    19    2
    13    10     8    1
    14    10    12    1
    15    32    31    1
    16    13    22    1
    17    13    12    1
    18    19    20    1
    19    22    21    2
    20     8     9    1
    21     8     6    1
    22    34    33    1
    23    12     7    1
    24    20    21    1
    25    31    33    1
    26    31    29    1
    27    33    35    1
    28     7     6    1
    29     6     5    1
    30    29    28    1
    31    29    30    1
    32     5     4    1
    33    25    24    2
    34    28    27    1
    35     3     1    2
    36    35    30    1
    37    35    36    1
    38    27    24    1
    39     4     1    1
    40    24    23    1
    41    24    26    1
    42     1    23    1
    43     1     2    1
    44    36    44    1
    45    36    37    1
    46    44    43    2
    47    37    38    1
    48    43    42    1
    49    38    42    2
    50    38    39    1
    51    41    39   am
    52    39    40    2
