@<TRIPOS>MOLECULE
1afs_TES_A_1.pdb
 21 24 0 0 0
SMALL
GASTEIGER

@<TRIPOS>ATOM
      1  C1       -22.5180   11.3170   -0.9480 C.3   325  TES325      0.0118
      2  C2       -22.4760   12.8480   -1.0230 C.3   325  TES325      0.0694
      3  C3       -22.9400   13.3450   -2.3430 C.2   325  TES325      0.1725
      4  O3       -22.3660   14.2240   -2.9420 O.2   325  TES325     -0.2914
      5  C4       -24.1190   12.7040   -2.8790 C.2   325  TES325      0.0289
      6  C5       -24.5710   11.5020   -2.4350 C.2   325  TES325     -0.0420
      7  C6       -25.7750   10.8850   -3.0880 C.3   325  TES325      0.0221
      8  C7       -25.5600    9.4260   -3.4790 C.3   325  TES325      0.0044
      9  C8       -25.0500    8.6540   -2.2570 C.3   325  TES325      0.0007
     10  C9       -23.7630    9.2550   -1.6810 C.3   325  TES325      0.0035
     11  C10      -23.9120   10.7280   -1.2680 C.3   325  TES325      0.0157
     12  C11      -23.1260    8.4900   -0.5000 C.3   325  TES325      0.0004
     13  C12      -22.9310    7.0130   -0.8740 C.3   325  TES325      0.0025
     14  C13      -24.2400    6.3860   -1.3520 C.3   325  TES325      0.0282
     15  C14      -24.7720    7.1850   -2.5490 C.3   325  TES325      0.0025
     16  C15      -25.8940    6.3220   -3.1300 C.3   325  TES325      0.0027
     17  C16      -25.3510    4.8910   -2.9630 C.3   325  TES325      0.0329
     18  C17      -24.0650    5.0280   -2.1060 C.3   325  TES325      0.1519
     19  O17      -23.7920    3.8940   -1.2710 O.3   325  TES325     -0.2232
     20  C18      -25.2810    6.2850   -0.2210 C.3   325  TES325      0.0025
     21  C19      -24.8490   10.8560   -0.0500 C.3   325  TES325      0.0041
@<TRIPOS>BOND
     1     8     7    1
     2     8     9    1
     3    16    17    1
     4    16    15    1
     5     7     6    1
     6    17    18    1
     7     4     3    2
     8     5     6    2
     9     5     3    1
    10    15     9    1
    11    15    14    1
    12     6    11    1
    13     3     2    1
    14     9    10    1
    15    18    14    1
    16    18    19    1
    17    10    11    1
    18    10    12    1
    19    14    13    1
    20    14    20    1
    21    11     1    1
    22    11    21    1
    23     2     1    1
    24    13    12    1
