@<TRIPOS>MOLECULE
1ag9_FMN_A_1.pdb
 31 33 0 0 0
SMALL
GASTEIGER

@<TRIPOS>ATOM
      1  N1        -0.0430   61.5430   24.7750 N.2   177  FMN177     -0.2890
      2  C2        -0.1900   62.2760   25.9270 C.1   177  FMN177      0.3669
      3  O2         0.7360   62.4200   26.6830 O.2   177  FMN177     -0.1744
      4  N3        -1.4260   62.8660   26.2360 N.2   177  FMN177     -0.2300
      5  C4        -2.5260   62.7340   25.4120 C.1   177  FMN177      0.2513
      6  O4        -3.5770   63.2580   25.6800 O.2   177  FMN177     -0.2057
      7  C4A       -2.3780   61.9190   24.1540 C.2   177  FMN177      0.2700
      8  N5        -3.4100   61.7410   23.3360 N.2   177  FMN177     -0.3878
      9  C5A       -3.2040   61.0560   22.1390 C.2   177  FMN177      0.1320
     10  C6        -4.2620   60.9870   21.1630 C.2   177  FMN177      0.0250
     11  C7        -4.0280   60.4080   19.9180 C.2   177  FMN177     -0.0238
     12  C7M       -5.0580   60.4770   18.8490 C.3   177  FMN177      0.0308
     13  C8        -2.7780   59.7630   19.6320 C.2   177  FMN177     -0.0280
     14  C8M       -2.5700   59.0880   18.3040 C.3   177  FMN177      0.0304
     15  C9        -1.7550   59.7920   20.5790 C.2   177  FMN177     -0.0041
     16  C9A       -1.9440   60.4450   21.8320 C.3   177  FMN177      0.1497
     17  N10       -0.9340   60.5620   22.7950 N.pl3 177  FMN177     -0.2691
     18  C10       -1.0570   61.3520   23.9270 C.2   177  FMN177      0.2416
     19  C1'        0.2820   59.8130   22.5530 C.3   177  FMN177      0.1294
     20  C2'        0.2420   58.3750   23.0800 C.3   177  FMN177      0.2044
     21  O2'        0.0230   58.3150   24.4910 O.3   177  FMN177     -0.2185
     22  C3'        1.5730   57.6900   22.7570 C.3   177  FMN177      0.2164
     23  O3'        1.7030   57.5240   21.3380 O.3   177  FMN177     -0.2175
     24  C4'        1.9130   56.3790   23.4820 C.3   177  FMN177      0.2147
     25  O4'        3.2480   55.9870   23.1630 O.3   177  FMN177     -0.2176
     26  C5'        0.8900   55.2850   23.1870 C.3   177  FMN177      0.1892
     27  O5'        1.1590   54.1790   24.0620 O.3   177  FMN177     -0.2674
     28  P          0.5590   52.8830   23.7940 P.3   177  FMN177      0.5327
     29  O1P        1.2460   52.3190   22.6330 O.2   177  FMN177     -0.2224
     30  O2P       -0.9140   52.9300   23.7380 O.3   177  FMN177     -0.1145
     31  O3P        0.9770   52.0670   24.9160 O.3   177  FMN177     -0.1145
@<TRIPOS>BOND
     1    14    13    1
     2    12    11    1
     3    13    11    1
     4    13    15    2
     5    11    10    2
     6    15    16    1
     7    10     9    1
     8    23    22    1
     9    16     9    1
    10    16    17    1
    11     9     8    2
    12    19    17    1
    13    19    20    1
    14    29    28    2
    15    22    20    1
    16    22    24    1
    17    17    18    1
    18    20    21    1
    19    25    24    1
    20    26    24    1
    21    26    27    1
    22     8     7    2
    23    30    28    1
    24    28    27    1
    25    28    31    1
    26    18     7    1
    27    18     1    2
    28     7     5    1
    29     1     2    2
    30     5     6    2
    31     5     4    2
    32     2     4    2
    33     2     3    2
