@<TRIPOS>MOLECULE
1ag9_BTB_A_1.pdb
 14 13 0 0 0
SMALL
GASTEIGER

@<TRIPOS>ATOM
      1  C1        11.9470   47.7970   22.8730 C.3   351  BTB351      0.2017
      2  O1        10.5950   47.3930   22.9340 O.3   351  BTB351     -0.2188
      3  C2        12.0730   49.2600   22.3110 C.3   351  BTB351      0.1378
      4  C3        11.4000   49.3710   20.8870 C.3   351  BTB351      0.2017
      5  O3        11.7900   50.5700   20.2280 O.3   351  BTB351     -0.2188
      6  C4        11.4130   50.2920   23.2410 C.3   351  BTB351      0.2017
      7  O4        11.7800   51.6010   22.8330 O.3   351  BTB351     -0.2188
      8  N         13.6310   49.6700   22.1590 N.3   351  BTB351     -0.2641
      9  C5        14.2990   48.7300   21.1680 C.3   351  BTB351      0.1082
     10  C6        15.3440   49.5310   20.4020 C.3   351  BTB351      0.1993
     11  O6        14.7740   50.7160   19.8430 O.3   351  BTB351     -0.2189
     12  C7        14.3570   49.5400   23.5220 C.3   351  BTB351      0.1082
     13  C8        14.5890   50.9370   24.0760 C.3   351  BTB351      0.1993
     14  O8        14.7980   51.8850   23.0350 O.3   351  BTB351     -0.2189
@<TRIPOS>BOND
     1    11    10    1
     2     5     4    1
     3    10     9    1
     4     4     3    1
     5     9     8    1
     6     8     3    1
     7     8    12    1
     8     3     1    1
     9     3     6    1
    10     7     6    1
    11     1     2    1
    12    14    13    1
    13    12    13    1
