@<TRIPOS>MOLECULE
1agm_ACR_A_1.pdb
 44 47 0 0 0
SMALL
GASTEIGER

@<TRIPOS>ATOM
      1  C1A       32.9990   20.4720    8.0250 C.3   495  ACR495      0.1273
      2  C2A       34.2520   20.3350    8.9340 C.3   495  ACR495      0.2049
      3  C3A       33.8790   19.5410   10.2010 C.3   495  ACR495      0.2179
      4  C4A       32.8160   20.2990   11.0310 C.3   495  ACR495      0.2053
      5  C5A       31.6570   20.7750   10.1590 C.2   495  ACR495      0.0180
      6  C6A       30.5110   21.4730   10.8740 C.3   495  ACR495      0.2066
      7  C7A       31.8320   20.9610    8.8150 C.2   495  ACR495     -0.0100
      8  O2A       35.3210   19.6840    8.1870 O.3   495  ACR495     -0.2184
      9  O3A       35.0670   19.2930   10.9520 O.3   495  ACR495     -0.2172
     10  O4A       32.3380   19.3820   12.0290 O.3   495  ACR495     -0.2157
     11  O6A       31.0510   22.6760   11.4800 O.3   495  ACR495     -0.2155
     12  C1B       31.6500   18.1080    3.4280 C.3   495  ACR495      0.2694
     13  C2B       33.1570   18.4000    3.6780 C.3   495  ACR495      0.2394
     14  C3B       33.4910   18.2840    5.1820 C.3   495  ACR495      0.2054
     15  C4B       32.5430   19.1850    5.9830 C.3   495  ACR495      0.1333
     16  C5B       31.0810   18.7360    5.6940 C.3   495  ACR495      0.1364
     17  C6B       30.0400   19.6350    6.3750 C.3   495  ACR495      0.0337
     18  N4B       32.7980   19.1470    7.4130 N.3   495  ACR495     -0.2087
     19  O2B       34.0410   17.5150    2.9490 O.3   495  ACR495     -0.2149
     20  O3B       34.8410   18.6220    5.4600 O.3   495  ACR495     -0.2186
     21  O5B       30.8430   18.8660    4.3030 O.3   495  ACR495     -0.3295
     22  C1C       28.3960   13.9480    2.5860 C.3   495  ACR495      0.2695
     23  C2C       28.1460   15.4160    2.1230 C.3   495  ACR495      0.2404
     24  C3C       29.4980   16.2110    2.0600 C.3   495  ACR495      0.2167
     25  C4C       30.1650   16.1320    3.4480 C.3   495  ACR495      0.1804
     26  C5C       30.3120   14.6630    3.8850 C.3   495  ACR495      0.1803
     27  C6C       30.7570   14.5730    5.3680 C.3   495  ACR495      0.2141
     28  O2C       27.4260   15.5580    0.8960 O.3   495  ACR495     -0.2149
     29  O3C       29.2050   17.5840    1.7190 O.3   495  ACR495     -0.2175
     30  O4C       31.4100   16.7430    3.5310 O.3   495  ACR495     -0.3257
     31  O5C       29.0420   14.0310    3.8510 O.3   495  ACR495     -0.3257
     32  O6C       31.0110   13.2140    5.6280 O.3   495  ACR495     -0.2176
     33  C1D       29.2450    9.5910   -0.3540 C.3   495  ACR495      0.3023
     34  C2D       27.8620   10.2870   -0.2620 C.3   495  ACR495      0.2433
     35  C3D       28.0240   11.7470    0.1990 C.3   495  ACR495      0.2168
     36  C4D       28.8320   11.8280    1.5050 C.3   495  ACR495      0.1804
     37  C5D       30.1500   11.0580    1.3600 C.3   495  ACR495      0.1804
     38  C6D       30.9020   10.9260    2.7140 C.3   495  ACR495      0.2141
     39  O1D       29.0150    8.2220   -0.5340 O.3   495  ACR495     -0.1869
     40  O2D       27.1240   10.3120   -1.5130 O.3   495  ACR495     -0.2148
     41  O3D       26.7720   12.4720    0.3010 O.3   495  ACR495     -0.2175
     42  O4D       29.1530   13.2260    1.6560 O.3   495  ACR495     -0.3257
     43  O5D       29.9890    9.7440    0.8480 O.3   495  ACR495     -0.3237
     44  O6D       32.3110   11.0880    2.4300 O.3   495  ACR495     -0.2176
@<TRIPOS>BOND
     1    40    34    1
     2    39    33    1
     3    33    34    1
     4    33    43    1
     5    34    35    1
     6    35    41    1
     7    35    36    1
     8    43    37    1
     9    28    23    1
    10    37    36    1
    11    37    38    1
    12    36    42    1
    13    42    22    1
    14    29    24    1
    15    24    23    1
    16    24    25    1
    17    23    22    1
    18    44    38    1
    19    22    31    1
    20    19    13    1
    21    12    30    1
    22    12    13    1
    23    12    21    1
    24    25    30    1
    25    25    26    1
    26    13    14    1
    27    31    26    1
    28    26    27    1
    29    21    16    1
    30    14    20    1
    31    14    15    1
    32    27    32    1
    33    16    15    1
    34    16    17    1
    35    15    18    1
    36    18     1    1
    37     1     7    1
    38     1     2    1
    39     8     2    1
    40     7     5    2
    41     2     3    1
    42     5     6    1
    43     5     4    1
    44     3     9    1
    45     3     4    1
    46     6    11    1
    47     4    10    1
