@<TRIPOS>MOLECULE
1agm_MAN_A_10.pdb
 11 11 0 0 0
SMALL
GASTEIGER

@<TRIPOS>ATOM
      1  C1        26.6970   -2.4570   32.5390 C.3   490  MAN490      0.1777
      2  C2        25.2440   -2.9290   32.3940 C.3   490  MAN490      0.2141
      3  C3        24.2950   -1.8400   32.9330 C.3   490  MAN490      0.2173
      4  C4        24.6690   -1.4290   34.3520 C.3   490  MAN490      0.2142
      5  C5        26.0820   -0.8150   34.2830 C.3   490  MAN490      0.1810
      6  C6        26.6370   -0.2660   35.5850 C.3   490  MAN490      0.2141
      7  O2        25.0070   -4.0970   33.1560 O.3   490  MAN490     -0.2176
      8  O3        22.9540   -2.3020   32.9090 O.3   490  MAN490     -0.2175
      9  O4        23.7480   -0.4520   34.8410 O.3   490  MAN490     -0.2176
     10  O5        26.9990   -1.8470   33.8470 O.3   490  MAN490     -0.3481
     11  O6        26.9230   -1.2820   36.5370 O.3   490  MAN490     -0.2176
@<TRIPOS>BOND
     1     2     1    1
     2     2     3    1
     3     2     7    1
     4     1    10    1
     5     8     3    1
     6     3     4    1
     7    10     5    1
     8     5     4    1
     9     5     6    1
    10     4     9    1
    11     6    11    1
