@<TRIPOS>MOLECULE
1agn_NAD_A_1.pdb
 44 48 0 0 0
SMALL
GASTEIGER

@<TRIPOS>ATOM
      1  PA        -1.2670   -0.5820   23.6930 P.3   377  NAD377      0.2189
      2  O1A       -2.0940    0.6000   23.4060 O.3   377  NAD377     -0.4371
      3  O2A       -1.5610   -1.6790   22.7510 O.2   377  NAD377     -0.5170
      4  O5B       -1.8000   -0.9830   25.1290 O.3   377  NAD377     -0.3112
      5  C5B       -2.3040    0.0620   26.0290 C.3   377  NAD377      0.1813
      6  C4B       -2.9420   -0.8110   27.1020 C.3   377  NAD377      0.1821
      7  O4B       -3.1420    0.0120   28.2440 O.3   377  NAD377     -0.3135
      8  C3B       -4.3240   -1.2970   26.6540 C.3   377  NAD377      0.2184
      9  O3B       -4.6390   -2.5350   27.2930 O.3   377  NAD377     -0.2174
     10  C2B       -5.1520   -0.1870   27.2930 C.3   377  NAD377      0.2570
     11  O2B       -6.4930   -0.6570   27.4650 O.3   377  NAD377     -0.2130
     12  C1B       -4.4680   -0.0630   28.6710 C.3   377  NAD377      0.3186
     13  N9A       -4.7230    1.1320   29.5180 N.pl3 377  NAD377     -0.1439
     14  C8A       -4.6450    2.5040   29.2710 C.3   377  NAD377      0.3377
     15  N7A       -5.0080    3.3480   30.3170 N.2   377  NAD377     -0.2095
     16  C5A       -5.3220    2.3750   31.2580 C.2   377  NAD377      0.2526
     17  C6A       -5.6460    2.6020   32.5660 C.2   377  NAD377      0.4393
     18  N6A       -5.8340    3.8750   32.9120 N.pl3 377  NAD377      0.2180
     19  N1A       -5.8030    1.5140   33.4180 N.2   377  NAD377      0.0021
     20  C2A       -5.6290    0.2360   32.9220 C.3   377  NAD377      0.5254
     21  N3A       -5.3080   -0.0150   31.6100 N.2   377  NAD377     -0.0055
     22  C4A       -5.1620    1.1040   30.8130 C.2   377  NAD377      0.3518
     23  O3         0.1920    0.0070   23.5600 O.3   377  NAD377     -0.2703
     24  PN         1.6030   -0.5920   23.6270 P.3   377  NAD377      0.2189
     25  O1N        2.2750   -0.4990   22.3230 O.2   377  NAD377     -0.5170
     26  O2N        1.7500   -1.9650   24.1490 O.3   377  NAD377     -0.4371
     27  O5D        2.4560    0.4250   24.4600 O.3   377  NAD377     -0.3112
     28  C5D        2.0310    1.0270   25.7200 C.3   377  NAD377      0.1813
     29  C4D        3.1150    1.6960   26.5620 C.3   377  NAD377      0.1799
     30  O4D        4.3850    1.0960   26.3440 O.3   377  NAD377     -0.3327
     31  C3D        3.3150    3.1370   26.1180 C.3   377  NAD377      0.2158
     32  O3D        3.8740    3.8920   27.1910 O.3   377  NAD377     -0.2175
     33  C2D        4.3640    3.0010   25.0280 C.3   377  NAD377      0.2309
     34  O2D        4.9890    4.2780   24.8310 O.3   377  NAD377     -0.2158
     35  C1D        5.2850    2.0770   25.8530 C.3   377  NAD377      0.2263
     36  N1N        6.3000    1.2680   25.2140 N.pl3 377  NAD377     -0.2787
     37  C2N        7.4600    1.3150   25.7820 C.3   377  NAD377      0.1244
     38  C3N        8.4950    0.5710   25.3290 C.2   377  NAD377      0.0544
     39  C7N        9.7380    0.6070   25.9170 C.2   377  NAD377      0.2818
     40  O7N       10.6710   -0.0630   25.4060 O.2   377  NAD377     -0.2670
     41  N7N        9.9820    1.2900   27.0420 N.am  377  NAD377     -0.0839
     42  C4N        8.3080   -0.2210   24.2820 C.2   377  NAD377      0.0033
     43  C5N        7.1250   -0.2830   23.6890 C.2   377  NAD377      0.0157
     44  C6N        6.1010    0.5000   24.1900 C.2   377  NAD377      0.0633
@<TRIPOS>BOND
     1    25    24    2
     2     3     1    2
     3     2     1    1
     4    23    24    1
     5    23     1    1
     6    24    26    1
     7    24    27    1
     8    43    44    2
     9    43    42    1
    10     1     4    1
    11    44    36    1
    12    42    38    2
    13    27    28    1
    14    34    33    1
    15    33    35    1
    16    33    31    1
    17     4     5    1
    18    36    37    1
    19    36    35    1
    20    38    37    1
    21    38    39    1
    22    40    39    2
    23    28    29    1
    24    35    30    1
    25    39    41   am
    26     5     6    1
    27    31    29    1
    28    31    32    1
    29    30    29    1
    30     8     6    1
    31     8    10    1
    32     8     9    1
    33     6     7    1
    34    10    11    1
    35    10    12    1
    36     7    12    1
    37    12    13    1
    38    14    13    1
    39    14    15    1
    40    13    22    1
    41    15    16    2
    42    22    16    1
    43    22    21    2
    44    16    17    1
    45    21    20    1
    46    17    18    1
    47    17    19    2
    48    20    19    1
