@<TRIPOS>MOLECULE
1agp_GNP_A_1.pdb
 46 48 0 0 0
SMALL
GASTEIGER

@<TRIPOS>ATOM
      1  PG        11.5560   -5.3110   21.8830 P.3   167  GNP167      0.4415
      2  O1G       12.6910   -5.5230   20.9780 O.2   167  GNP167     -0.2372
      3  O2G       12.1610   -5.6420   23.3030 O.3   167  GNP167     -0.3105
      4  O3G       11.2410   -3.8790   22.0060 O.3   167  GNP167     -0.1266
      5  N3B       10.2760   -6.3620   21.6560 N.3   167  GNP167     -0.1219
      6  PB         9.6700   -6.3730   20.0660 P.3   167  GNP167      0.4494
      7  O1B        8.8120   -5.1820   19.7480 O.3   167  GNP167     -0.1263
      8  O2B       10.6690   -6.6130   18.9850 O.2   167  GNP167     -0.2367
      9  O3A        8.5960   -7.5850   19.9640 O.3   167  GNP167     -0.2370
     10  PA         8.9860   -9.1270   19.6350 P.3   167  GNP167      0.2213
     11  O1A        8.9260   -9.3430   18.1820 O.2   167  GNP167     -0.5170
     12  O2A       10.1930   -9.5090   20.3910 O.3   167  GNP167     -0.4371
     13  O5'        7.7100   -9.9250   20.1730 O.3   167  GNP167     -0.3245
     14  C5'        7.4330  -10.0480   21.5440 C.3   167  GNP167      0.0836
     15  C4'        6.4080  -11.1430   21.8050 C.3   167  GNP167      0.1131
     16  O4'        5.2680  -10.8260   20.9990 O.3   167  GNP167     -0.3474
     17  C3'        6.8570  -12.5770   21.3940 C.3   167  GNP167      0.1133
     18  O3'        6.4040  -13.5610   22.3490 O.3   167  GNP167     -0.3864
     19  C2'        6.2590  -12.6820   19.9780 C.3   167  GNP167      0.1266
     20  O2'        6.0880  -14.0060   19.4610 O.3   167  GNP167     -0.3849
     21  C1'        4.9280  -11.9380   20.1250 C.3   167  GNP167      0.1617
     22  N9         4.3250  -11.4710   18.8130 N.pl3 167  GNP167     -0.2241
     23  C8         4.8690  -10.6500   17.8580 C.2   167  GNP167      0.1451
     24  N7         4.0870  -10.3570   16.8500 N.2   167  GNP167     -0.3865
     25  C5         2.8920  -11.0550   17.1510 C.2   167  GNP167      0.2296
     26  C6         1.6310  -11.1430   16.4480 C.2   167  GNP167      0.2859
     27  O6         1.2360  -10.7100   15.3550 O.2   167  GNP167     -0.2668
     28  N1         0.7450  -11.9060   17.1390 N.am  167  GNP167     -0.2418
     29  C2         0.9770  -12.5610   18.2790 C.2   167  GNP167      0.2395
     30  N2        -0.0230  -13.3340   18.6580 N.pl3 167  GNP167     -0.3206
     31  N3         2.1220  -12.4810   18.9480 N.2   167  GNP167     -0.3551
     32  C4         3.0370  -11.7220   18.3370 C.2   167  GNP167      0.2272
     33 HOG2       11.4320   -5.9030   23.8730 H     167  GNP167      0.2211
     34 HNB3       10.6970   -7.2770   21.7430 H     167  GNP167      0.1457
     35 H5'2        8.3530  -10.2780   22.0810 H     167  GNP167      0.0591
     36 H5'1        7.0410   -9.0970   21.9050 H     167  GNP167      0.0591
     37  H4'        6.1290  -11.1410   22.8590 H     167  GNP167      0.0647
     38  H3'        7.9470  -12.6190   21.3720 H     167  GNP167      0.0647
     39 HO3'        5.5270  -13.8390   22.0790 H     167  GNP167      0.2100
     40  H2'        6.9100  -12.1040   19.3220 H     167  GNP167      0.0663
     41 HO2'        6.9420  -14.2960   19.1200 H     167  GNP167      0.2101
     42  H1'        4.2290  -12.6010   20.6380 H     167  GNP167      0.0841
     43  H8         5.8870  -10.2680   17.9420 H     167  GNP167      0.1149
     44  HN1       -0.2060  -11.8690   16.8320 H     167  GNP167      0.1589
     45 HN21        0.0260  -13.8490   19.5230 H     167  GNP167      0.1459
     46 HN22       -0.8490  -13.4020   18.0820 H     167  GNP167      0.1459
@<TRIPOS>BOND
     1    27    26    2
     2    26    28   am
     3    26    25    1
     4    44    28    1
     5    24    25    2
     6    24    23    2
     7    28    29    1
     8    25    32    1
     9    23    43    1
    10    23    22    1
    11    46    30    1
    12    11    10    2
    13    29    30    1
    14    29    31    2
    15    32    22    1
    16    32    31    2
    17    30    45    1
    18    22    21    1
    19     8     6    2
    20    41    20    1
    21    40    19    1
    22    20    19    1
    23    10     9    1
    24    10    13    1
    25    10    12    1
    26     7     6    1
    27     9     6    1
    28    19    21    1
    29    19    17    1
    30     6     5    1
    31    21    42    1
    32    21    16    1
    33    13    14    1
    34     2     1    2
    35    16    15    1
    36    38    17    1
    37    17    15    1
    38    17    18    1
    39    14    15    1
    40    14    36    1
    41    14    35    1
    42     5    34    1
    43     5     1    1
    44    15    37    1
    45     1     4    1
    46     1     3    1
    47    39    18    1
    48     3    33    1
