@<TRIPOS>MOLECULE
1agr_GDP_A_1.pdb
 28 30 0 0 0
SMALL
GASTEIGER

@<TRIPOS>ATOM
      1  PB        26.2490    8.5000   41.1900 P.3   355  GDP355      0.5373
      2  O1B       27.6820    8.0010   41.0350 O.3   355  GDP355     -0.1143
      3  O2B       25.5400    8.2670   42.4640 O.3   355  GDP355     -0.1143
      4  O3B       26.0300    9.9360   40.8470 O.2   355  GDP355     -0.2221
      5  O3A       25.4070    7.7070   40.0010 O.3   355  GDP355     -0.2261
      6  PA        23.8790    7.3170   40.2960 P.3   355  GDP355      0.2231
      7  O1A       23.9920    6.3460   41.3880 O.3   355  GDP355     -0.4370
      8  O2A       22.9120    8.3570   40.6380 O.2   355  GDP355     -0.5169
      9  O5'       23.4340    6.6590   38.9360 O.3   355  GDP355     -0.3111
     10  C5'       23.3280    7.3270   37.7610 C.3   355  GDP355      0.1813
     11  C4'       22.0690    6.9200   36.9910 C.3   355  GDP355      0.1799
     12  O4'       22.2530    5.7450   36.2270 O.3   355  GDP355     -0.3326
     13  C3'       20.8430    6.6940   37.7700 C.3   355  GDP355      0.2158
     14  O3'       19.7570    6.9120   36.9320 O.3   355  GDP355     -0.2175
     15  C2'       20.8820    5.1550   37.9450 C.3   355  GDP355      0.2310
     16  O2'       19.5760    4.6090   37.8050 O.3   355  GDP355     -0.2158
     17  C1'       21.4930    4.6050   36.7120 C.3   355  GDP355      0.2293
     18  N9        22.4700    3.4210   36.7780 N.pl3 355  GDP355     -0.2354
     19  C8        23.5160    3.1280   37.5890 C.3   355  GDP355      0.2246
     20  N7        24.2480    2.1180   37.2790 N.2   355  GDP355     -0.2322
     21  C5        23.6220    1.6670   36.1500 C.2   355  GDP355      0.2182
     22  C6        23.9460    0.5550   35.3180 C.1   355  GDP355      0.2372
     23  O6        24.8670   -0.2540   35.4720 O.2   355  GDP355     -0.2069
     24  N1        23.0460    0.4570   34.2340 N.2   355  GDP355     -0.2485
     25  C2        21.9760    1.3230   33.9880 C.1   355  GDP355      0.2531
     26  N2        21.2300    1.1720   32.9300 N.pl3 355  GDP355     -0.0226
     27  N3        21.6710    2.3390   34.7690 N.2   355  GDP355     -0.3074
     28  C4        22.5380    2.4460   35.8350 C.2   355  GDP355      0.2300
@<TRIPOS>BOND
     1    26    25    1
     2    25    24    2
     3    25    27    2
     4    24    22    2
     5    27    28    2
     6    22    23    2
     7    22    21    1
     8    28    21    1
     9    28    18    1
    10    21    20    2
    11    12    17    1
    12    12    11    1
    13    17    18    1
    14    17    15    1
    15    18    19    1
    16    14    13    1
    17    11    10    1
    18    11    13    1
    19    20    19    1
    20    10     9    1
    21    13    15    1
    22    16    15    1
    23     9     6    1
    24     5     6    1
    25     5     1    1
    26     6     8    2
    27     6     7    1
    28     4     1    2
    29     2     1    1
    30     1     3    1
