@<TRIPOS>MOLECULE
1ags_GTX_A_1.pdb
 26 25 0 0 0
SMALL
GASTEIGER

@<TRIPOS>ATOM
      1  N1       -13.4220   -6.3880   32.6780 N.3   222  GTX222     -0.1208
      2  CA1      -13.4430   -7.5070   31.6950 C.3   222  GTX222      0.1948
      3  C1       -12.5630   -7.1290   30.5040 C.2   222  GTX222      0.3819
      4  O11      -12.5610   -5.9290   30.1680 O.co2 222  GTX222     -0.2441
      5  O12      -11.9070   -8.0210   29.9110 O.co2 222  GTX222     -0.2441
      6  CB1      -14.8740   -7.7650   31.2210 C.3   222  GTX222      0.0402
      7  CG1      -14.9570   -8.6940   30.0030 C.3   222  GTX222      0.0889
      8  CD1      -16.3560   -8.9230   29.4940 C.2   222  GTX222      0.2418
      9  OE1      -17.2200   -8.0650   29.5890 O.2   222  GTX222     -0.2733
     10  N2       -16.5750  -10.1140   28.9560 N.am  222  GTX222     -0.1969
     11  CA2      -17.8590  -10.5040   28.3810 C.3   222  GTX222      0.1834
     12  C2       -18.0780  -11.9940   28.6310 C.2   222  GTX222      0.2626
     13  O2       -17.2260  -12.8150   28.2940 O.2   222  GTX222     -0.2714
     14  CB2      -17.8520  -10.2690   26.8560 C.3   222  GTX222      0.0886
     15  SG2      -17.7110   -8.5490   26.2880 S.3   222  GTX222     -0.1379
     16  C1S      -19.2460   -7.8450   26.9440 C.3   222  GTX222      0.0576
     17  C2S      -20.1160   -7.1920   25.9170 C.3   222  GTX222      0.0116
     18  C3S      -19.4050   -6.0410   25.1830 C.3   222  GTX222      0.0009
     19  C4S      -20.3650   -5.2640   24.2940 C.3   222  GTX222      0.0000
     20  C5S      -21.3240   -6.1910   23.5320 C.3   222  GTX222      0.0000
     21  C6S      -20.6110   -7.1460   22.6090 C.3   222  GTX222      0.0000
     22  N3       -19.2460  -12.3350   29.1580 N.am  222  GTX222     -0.1917
     23  CA3      -19.5680  -13.7140   29.4480 C.3   222  GTX222      0.2285
     24  C3       -19.9330  -13.8630   30.9110 C.2   222  GTX222      0.3865
     25  O31      -20.4980  -14.9160   31.2670 O.co2 222  GTX222     -0.2437
     26  O32      -19.6320  -12.9490   31.7220 O.co2 222  GTX222     -0.2437
@<TRIPOS>BOND
     1    21    20    1
     2    20    19    1
     3    19    18    1
     4    18    17    1
     5    17    16    1
     6    15    14    1
     7    15    16    1
     8    14    11    1
     9    13    12    2
    10    11    12    1
    11    11    10    1
    12    12    22   am
    13    10     8   am
    14    22    23    1
    15    23    24    1
    16     8     9    2
    17     8     7    1
    18     5     3   ar
    19     7     6    1
    20     4     3   ar
    21     3     2    1
    22    24    25   ar
    23    24    26   ar
    24     6     2    1
    25     2     1    1
