@<TRIPOS>MOLECULE
1agw_SU2_A_1.pdb
 25 28 0 0 0
SMALL
GASTEIGER

@<TRIPOS>ATOM
      1  N1         5.7630    2.5310   20.3220 N.2   1001  SU21001    -0.3331
      2  C2         6.4340    2.9940   21.4270 C.1   1001  SU21001     0.2009
      3  O2         6.3730    2.3820   22.4940 O.2   1001  SU21001    -0.2096
      4  C3         7.0950    4.1650   21.1310 C.2   1001  SU21001     0.0793
      5  C4         7.1970    5.4450   18.8500 C.ar  1001  SU21001     0.0030
      6  C5         6.7240    5.4000   17.5470 C.ar  1001  SU21001     0.0002
      7  C6         5.8900    4.3560   17.1140 C.ar  1001  SU21001     0.0027
      8  C7         5.5170    3.3380   17.9550 C.ar  1001  SU21001     0.0330
      9  C8         5.9880    3.3830   19.2720 C.ar  1001  SU21001     0.1448
     10  C9         6.8240    4.4240   19.7400 C.ar  1001  SU21001     0.0387
     11  C10        7.9420    5.0530   22.0360 C.3   1001  SU21001     0.0656
     12  C1'        8.7500    4.6160   23.2540 C.ar  1001  SU21001    -0.0169
     13  C2'        9.7100    5.4700   23.7810 C.ar  1001  SU21001    -0.0026
     14  C3'       10.4610    5.1000   24.8980 C.ar  1001  SU21001     0.0148
     15  C4'       10.2640    3.8680   25.5130 C.ar  1001  SU21001     0.0557
     16  C5'        9.2980    3.0170   24.9820 C.ar  1001  SU21001     0.0148
     17  C6'        8.5480    3.3860   23.8630 C.ar  1001  SU21001    -0.0026
     18  N1'       12.4930    2.7110   29.1520 N.am  1001  SU21001    -0.2251
     19  C11       13.2630    2.2770   30.2810 C.2   1001  SU21001     0.3112
     20  O3        14.2360    2.8450   30.7850 O.2   1001  SU21001    -0.2642
     21  C2B       11.7640    1.7130   28.3060 C.2   1001  SU21001     0.0890
     22  C3B       10.6690    2.2640   27.4210 C.2   1001  SU21001     0.0863
     23  N4'       11.0300    3.4890   26.6500 N.pl3 1001  SU21001    -0.2611
     24  C5B       11.7510    4.5220   27.4680 C.2   1001  SU21001     0.0863
     25  C6B       12.8190    3.9910   28.4260 C.2   1001  SU21001     0.0890
@<TRIPOS>BOND
     1     7     6   ar
     2     7     8   ar
     3     6     5   ar
     4     8     9   ar
     5     5    10   ar
     6     9    10   ar
     7     9     1    2
     8    10     4    2
     9     1     2    2
    10     4     2    1
    11     4    11    1
    12     2     3    2
    13    11    12    1
    14    12    13   ar
    15    12    17   ar
    16    13    14   ar
    17    17    16   ar
    18    14    15   ar
    19    16    15   ar
    20    15    23    1
    21    23    22    1
    22    23    24    1
    23    22    21    2
    24    24    25    2
    25    21    18    1
    26    25    18    1
    27    18    19   am
    28    19    20    2
