@<TRIPOS>MOLECULE
1ah0_SBI_A_1.pdb
 17 19 0 0 0
SMALL
GASTEIGER

@<TRIPOS>ATOM
      1  C1        64.8300   36.1620   85.9690 C.ar  320  SBI320      0.1401
      2  F1        64.1150   36.0530   84.8480 F     320  SBI320     -0.2042
      3  C2        66.2320   36.1150   85.9180 C.ar  320  SBI320      0.0327
      4  C3        66.9800   36.2310   87.1010 C.ar  320  SBI320      0.0390
      5  C4        66.3200   36.3940   88.3310 C.ar  320  SBI320      0.1375
      6  O1        67.1270   36.5700   89.4480 O.3   320  SBI320     -0.4756
      7  C5        66.5730   37.2500   90.5990 C.3   320  SBI320      0.2089
      8  C6        65.1740   36.7360   90.9950 C.3   320  SBI320      0.0921
      9  C7        64.2250   36.6240   89.7590 C.3   320  SBI320      0.2256
     10  C9        63.2360   37.7560   89.6000 C.1   320  SBI320      0.2166
     11  O3        63.5420   38.9180   89.4220 O.2   320  SBI320     -0.2112
     12  N2        61.9920   37.2760   89.6700 N.2   320  SBI320     -0.2446
     13  C8        62.0150   35.9630   89.8640 C.1   320  SBI320      0.3075
     14  O2        61.0460   35.2430   89.9740 O.2   320  SBI320     -0.1881
     15  N1        63.2860   35.5490   89.9250 N.2   320  SBI320     -0.1582
     16  C10       64.9330   36.4420   88.4120 C.ar  320  SBI320      0.0506
     17  C11       64.1790   36.3250   87.2010 C.ar  320  SBI320      0.0313
@<TRIPOS>BOND
     1     2     1    1
     2     3     1   ar
     3     3     4   ar
     4     1    17   ar
     5     4     5   ar
     6    17    16   ar
     7     5    16   ar
     8     5     6    1
     9    16     9    1
    10    11    10    2
    11     6     7    1
    12    10    12    2
    13    10     9    1
    14    12    13    2
    15     9    15    1
    16     9     8    1
    17    13    15    2
    18    13    14    2
    19     7     8    1
