@<TRIPOS>MOLECULE
1ah3_TOL_A_1.pdb
 24 25 0 0 0
SMALL
GASTEIGER

@<TRIPOS>ATOM
      1  C1        71.1310   40.2430   88.3400 C.3   320  TOL320      0.4214
      2  F1        71.8760   39.2470   88.8820 F     320  TOL320     -0.1657
      3  F2        71.6670   41.4160   88.7700 F     320  TOL320     -0.1657
      4  F3        71.2870   40.1990   86.9900 F     320  TOL320     -0.1657
      5  C2        69.6410   40.1110   88.7230 C.ar  320  TOL320      0.1053
      6  C3        68.9050   41.1220   89.3940 C.ar  320  TOL320      0.1426
      7  O1        69.5000   42.2540   89.7240 O.3   320  TOL320     -0.4715
      8  C4        68.6330   43.1630   90.3820 C.3   320  TOL320      0.2525
      9  C5        67.5450   40.8990   89.7020 C.ar  320  TOL320      0.0368
     10  C6        66.9190   39.6970   89.3530 C.ar  320  TOL320      0.0032
     11  C7        67.6470   38.6900   88.6890 C.ar  320  TOL320      0.0019
     12  C8        67.0030   37.4790   88.3430 C.ar  320  TOL320      0.0200
     13  C9        67.7290   36.4760   87.6800 C.ar  320  TOL320      0.0018
     14  C10       69.0760   36.6690   87.3650 C.ar  320  TOL320      0.0001
     15  C11       69.7090   37.8700   87.7090 C.ar  320  TOL320      0.0001
     16  C12       69.0040   38.8910   88.3730 C.ar  320  TOL320      0.0069
     17  C13       65.5520   37.1860   88.6440 C.2   320  TOL320      0.0848
     18  S1        64.3750   37.4100   87.4190 S.2   320  TOL320     -0.0347
     19  N1        65.2070   36.7430   89.8540 N.am  320  TOL320     -0.2910
     20  C14       66.2400   36.4590   90.8440 C.3   320  TOL320      0.1132
     21  C15       63.8120   36.5130   90.2160 C.3   320  TOL320      0.2069
     22  C16       63.0560   37.8360   90.4270 C.2   320  TOL320      0.3847
     23  O2        61.8590   37.8810   90.5370 O.co2 320  TOL320     -0.2437
     24  O3        63.8220   38.9310   90.4870 O.co2 320  TOL320     -0.2437
@<TRIPOS>BOND
     1     4     1    1
     2    14    13   ar
     3    14    15   ar
     4    18    17    2
     5    13    12   ar
     6    15    16   ar
     7     1     5    1
     8     1     3    1
     9     1     2    1
    10    12    17    1
    11    12    11   ar
    12    16    11   ar
    13    16     5   ar
    14    17    19    1
    15    11    10   ar
    16     5     6   ar
    17    10     9   ar
    18     6     9   ar
    19     6     7    1
    20     7     8    1
    21    19    21    1
    22    19    20    1
    23    21    22    1
    24    22    24   ar
    25    22    23   ar
