@<TRIPOS>MOLECULE
1ah5_DPM_A_1.pdb
 30 31 0 0 0
SMALL
GASTEIGER

@<TRIPOS>ATOM
      1  C1A       16.2460    0.8730   27.3320 C.2   314  DPM314      0.1053
      2  C2A       17.0390    0.3230   28.2890 C.2   314  DPM314      0.0127
      3  C3A       18.0480    1.2830   28.5890 C.2   314  DPM314      0.0029
      4  C4A       17.8140    2.3730   27.7960 C.2   314  DPM314      0.1103
      5  C5A       16.8190   -1.0220   28.9420 C.3   314  DPM314      0.1423
      6  C6A       17.7470   -2.1450   28.4740 C.2   314  DPM314      0.3693
      7  C7A       19.1740    1.1450   29.5800 C.3   314  DPM314      0.0402
      8  C8A       18.7280    1.4420   30.9920 C.3   314  DPM314      0.1188
      9  C9A       19.8380    1.3430   32.0090 C.2   314  DPM314      0.3652
     10  CHA       15.0520    0.3400   26.6770 C.3   314  DPM314      0.0660
     11  NA        16.7120    2.1210   27.0310 N.2   314  DPM314     -0.4108
     12  O1A       18.7420   -1.8920   27.7660 O.co2 314  DPM314     -0.2453
     13  O2A       17.4740   -3.3040   28.8350 O.co2 314  DPM314     -0.2453
     14  O3A       19.7280    2.0060   33.0520 O.co2 314  DPM314     -0.2456
     15  O4A       20.8050    0.5980   31.7850 O.co2 314  DPM314     -0.2456
     16  C1B       19.2560    3.8960   26.3810 C.2   314  DPM314      0.0571
     17  C2B       20.5870    3.9490   26.1180 C.2   314  DPM314     -0.0034
     18  C3B       20.7270    4.0820   24.6950 C.2   314  DPM314     -0.0219
     19  C4B       19.4630    4.1250   24.1750 C.3   314  DPM314      0.1470
     20  C5B       21.6660    3.9430   27.1860 C.3   314  DPM314      0.1410
     21  C6B       22.5910    2.7430   27.1830 C.2   314  DPM314      0.3692
     22  C7B       22.0020    4.0920   23.8820 C.3   314  DPM314      0.0355
     23  C8B       22.3740    2.7300   23.2740 C.3   314  DPM314      0.1184
     24  C9B       21.5100    2.3060   22.0860 C.2   314  DPM314      0.3652
     25  CHB       18.5140    3.7050   27.6800 C.3   314  DPM314      0.1035
     26  NB        18.5670    4.0090   25.2080 N.2   314  DPM314     -0.2701
     27  O1B       23.8150    2.9600   27.1260 O.co2 314  DPM314     -0.2453
     28  O2B       22.1040    1.5940   27.2470 O.co2 314  DPM314     -0.2453
     29  O3B       21.2610    3.1340   21.1890 O.co2 314  DPM314     -0.2456
     30  O4B       21.1000    1.1310   22.0310 O.co2 314  DPM314     -0.2456
@<TRIPOS>BOND
     1    29    24   ar
     2    30    24   ar
     3    24    23    1
     4    23    22    1
     5    22    18    1
     6    19    18    1
     7    19    26    1
     8    18    17    2
     9    26    16    2
    10    17    16    1
    11    17    20    1
    12    16    25    1
    13    10     1    1
    14    11     1    2
    15    11     4    2
    16    27    21   ar
    17    21    20    1
    18    21    28   ar
    19     1     2    1
    20    25     4    1
    21    12     6   ar
    22     4     3    1
    23     2     3    2
    24     2     5    1
    25     6    13   ar
    26     6     5    1
    27     3     7    1
    28     7     8    1
    29     8     9    1
    30    15     9   ar
    31     9    14   ar
