@<TRIPOS>MOLECULE
1aha_ADE_A_1.pdb
 10 11 0 0 0
SMALL
GASTEIGER

@<TRIPOS>ATOM
      1  N9        61.9130   91.8430    4.3000 N.2   339  ADE339     -0.1914
      2  C8        61.2030   92.8510    3.7000 C.3   339  ADE339      0.2618
      3  N7        60.4520   93.5220    4.5250 N.2   339  ADE339     -0.2267
      4  C5        60.6860   92.9360    5.7480 C.2   339  ADE339      0.2303
      5  C6        60.1250   93.1370    7.0040 C.2   339  ADE339      0.4393
      6  N6        59.2080   94.0730    7.2250 N.pl3 339  ADE339      0.2185
      7  N1        60.5710   92.3410    7.9960 N.2   339  ADE339     -0.0265
      8  C2        61.5280   91.4510    7.7470 C.3   339  ADE339      0.4008
      9  N3        62.0180   91.0760    6.5760 N.2   339  ADE339     -0.1640
     10  C4        61.5640   91.8950    5.6170 C.1   339  ADE339      0.0579
@<TRIPOS>BOND
     1     2     1    1
     2     2     3    1
     3     1    10    2
     4     3     4    2
     5    10     4    1
     6    10     9    2
     7     4     5    1
     8     9     8    1
     9     5     6    1
    10     5     7    2
    11     8     7    1
