@<TRIPOS>MOLECULE
1ahb_FMP_A_1.pdb
 23 25 0 0 0
SMALL
GASTEIGER

@<TRIPOS>ATOM
      1  P         59.5090   90.4430   -2.1140 P.3   339  FMP339      0.5327
      2  O1P       60.1840   91.5460   -2.8490 O.2   339  FMP339     -0.2224
      3  O2P       58.1010   90.7400   -1.7180 O.3   339  FMP339     -0.1145
      4  O3P       59.7310   89.0610   -2.6690 O.3   339  FMP339     -0.1145
      5  O5'       60.3400   90.3730   -0.8020 O.3   339  FMP339     -0.2675
      6  C5'       61.7340   90.0690   -0.6170 C.3   339  FMP339      0.1858
      7  C4'       61.9460   89.6540    0.8460 C.3   339  FMP339      0.1786
      8  O4'       61.5290   90.7320    1.6670 O.3   339  FMP339     -0.3447
      9  C3'       61.1440   88.4160    1.2910 C.3   339  FMP339      0.2143
     10  O3'       62.0390   87.3610    1.6460 O.3   339  FMP339     -0.2176
     11  C2'       60.4640   88.9320    2.5360 C.3   339  FMP339      0.2173
     12  O2'       60.4000   87.9090    3.5410 O.3   339  FMP339     -0.2173
     13  C1'       61.3530   90.1000    2.9180 C.3   339  FMP339      0.1910
     14  C9        60.7070   91.1030    3.7780 C.2   339  FMP339      0.1291
     15  N8        60.1080   92.1830    3.3650 N.2   339  FMP339     -0.1480
     16  N7        59.5580   92.8820    4.3620 N.2   339  FMP339     -0.1387
     17  C6        59.6610   92.4340    6.8720 C.2   339  FMP339      0.4334
     18  N6        58.7670   93.3510    7.2370 N.pl3 339  FMP339      0.2178
     19  C5        59.9400   92.2180    5.5130 C.2   339  FMP339      0.2111
     20  C4        60.6960   91.1400    5.1830 C.2   339  FMP339      0.1251
     21  N3        61.2940   90.2860    6.0710 N.2   339  FMP339     -0.2155
     22  C2        61.0280   90.6480    7.3260 C.3   339  FMP339      0.3922
     23  N1        60.2710   91.6430    7.7820 N.2   339  FMP339     -0.0278
@<TRIPOS>BOND
     1     2     1    2
     2     4     1    1
     3     1     3    1
     4     1     5    1
     5     5     6    1
     6     6     7    1
     7     7     9    1
     8     7     8    1
     9     9    10    1
    10     9    11    1
    11     8    13    1
    12    11    13    1
    13    11    12    1
    14    13    14    1
    15    15    14    2
    16    15    16    1
    17    14    20    1
    18    16    19    2
    19    20    19    1
    20    20    21    2
    21    19    17    1
    22    21    22    1
    23    17    18    1
    24    17    23    2
    25    22    23    1
