@<TRIPOS>MOLECULE
1ahe_PLP_A_1.pdb
 15 15 0 0 0
SMALL
GASTEIGER

@<TRIPOS>ATOM
      1  N1        -4.5940   56.3030   26.7330 N.ar  412  PLP412     -0.2452
      2  C2        -5.5850   57.0320   26.1730 C.ar  412  PLP412      0.0978
      3  C2A       -5.9160   58.3540   26.7920 C.3   412  PLP412      0.0555
      4  C3        -6.2640   56.5010   25.0420 C.ar  412  PLP412      0.2049
      5  O3        -7.2420   57.2990   24.5540 O.3   412  PLP412     -0.2857
      6  C4        -5.9530   55.2600   24.4840 C.ar  412  PLP412      0.0182
      7  C4A       -6.6870   54.8170   23.2560 C.3   412  PLP412      0.0342
      8  C5        -4.8410   54.5750   25.1430 C.ar  412  PLP412      0.0261
      9  C6        -4.2060   55.1080   26.2500 C.ar  412  PLP412      0.0965
     10  C5A       -4.2980   53.1880   24.6980 C.3   412  PLP412      0.1815
     11  O4P       -4.6930   52.8870   23.3780 O.3   412  PLP412     -0.2653
     12  P         -4.1960   51.6330   22.6450 P.3   412  PLP412      0.5329
     13  O1P       -2.9590   52.0120   21.9710 O.3   412  PLP412     -0.1145
     14  O2P       -3.8810   50.6160   23.7730 O.3   412  PLP412     -0.1145
     15  O3P       -5.3700   51.3020   21.8720 O.2   412  PLP412     -0.2224
@<TRIPOS>BOND
     1    15    12    2
     2    13    12    1
     3    12    11    1
     4    12    14    1
     5     7     6    1
     6    11    10    1
     7     6     4   ar
     8     6     8   ar
     9     5     4    1
    10    10     8    1
    11     4     2   ar
    12     8     9   ar
    13     2     1   ar
    14     2     3    1
    15     9     1   ar
