@<TRIPOS>MOLECULE
1ahf_PLP_A_1.pdb
 15 15 0 0 0
SMALL
GASTEIGER

@<TRIPOS>ATOM
      1  N1        -4.5110   56.3870   26.6020 N.ar  410  PLP410     -0.2452
      2  C2        -5.6530   57.0220   26.2770 C.ar  410  PLP410      0.0978
      3  C2A       -6.1290   58.1980   27.0800 C.3   410  PLP410      0.0555
      4  C3        -6.3930   56.5120   25.1920 C.ar  410  PLP410      0.2049
      5  O3        -7.5450   57.1790   24.9220 O.3   410  PLP410     -0.2857
      6  C4        -6.0020   55.3960   24.4660 C.ar  410  PLP410      0.0182
      7  C4A       -6.7930   54.9890   23.2880 C.3   410  PLP410      0.0342
      8  C5        -4.7680   54.8020   24.8780 C.ar  410  PLP410      0.0261
      9  C6        -4.0560   55.3110   25.9330 C.ar  410  PLP410      0.0965
     10  C5A       -4.1110   53.6170   24.1320 C.3   410  PLP410      0.1815
     11  O4P       -5.0160   52.8400   23.3740 O.3   410  PLP410     -0.2653
     12  P         -4.3580   51.6580   22.5280 P.3   410  PLP410      0.5329
     13  O1P       -3.0590   52.1550   22.0650 O.3   410  PLP410     -0.1145
     14  O2P       -4.0690   50.4810   23.5070 O.3   410  PLP410     -0.1145
     15  O3P       -5.4010   51.2350   21.5740 O.2   410  PLP410     -0.2224
@<TRIPOS>BOND
     1    15    12    2
     2    13    12    1
     3    12    11    1
     4    12    14    1
     5     7     6    1
     6    11    10    1
     7    10     8    1
     8     6     8   ar
     9     6     4   ar
    10     8     9   ar
    11     5     4    1
    12     4     2   ar
    13     9     1   ar
    14     2     1   ar
    15     2     3    1
