@<TRIPOS>MOLECULE
1ahf_IOP_A_1.pdb
 14 15 0 0 0
SMALL
GASTEIGER

@<TRIPOS>ATOM
      1  C1'      -11.4020   56.0820   23.9610 C.2   411  IOP411      0.3652
      2  O1       -10.6840   56.4010   24.8810 O.co2 411  IOP411     -0.2456
      3  O2       -12.6990   56.1830   23.9780 O.co2 411  IOP411     -0.2456
      4  C2'      -10.6470   55.4950   22.7750 C.3   411  IOP411      0.1185
      5  C3'      -11.4660   54.2850   22.3430 C.3   411  IOP411      0.0361
      6  N1       -12.0390   51.9750   25.1700 N.2   411  IOP411     -0.2482
      7  C2       -12.4820   52.9160   24.2700 C.2   411  IOP411      0.0906
      8  C3       -11.4570   53.2900   23.4480 C.2   411  IOP411     -0.0153
      9  C3A      -10.3130   52.5660   23.8600 C.3   411  IOP411      0.0819
     10  C4        -9.0030   52.5420   23.4050 C.2   411  IOP411     -0.0164
     11  C5        -8.0930   51.7180   24.0030 C.2   411  IOP411     -0.0038
     12  C6        -8.4680   50.9220   25.0740 C.2   411  IOP411      0.0009
     13  C7        -9.7630   50.9320   25.5600 C.2   411  IOP411      0.0153
     14  C7A      -10.6950   51.7570   24.9360 C.2   411  IOP411      0.0665
@<TRIPOS>BOND
     1     5     4    1
     2     5     8    1
     3     4     1    1
     4    10     9    1
     5    10    11    2
     6     8     9    1
     7     8     7    2
     8     9    14    1
     9     1     3   ar
    10     1     2   ar
    11    11    12    1
    12     7     6    1
    13    14     6    2
    14    14    13    1
    15    12    13    2
