@<TRIPOS>MOLECULE
1ahg_III_C_1.pdb
 28 29 0 0 0
SMALL
GASTEIGER

@<TRIPOS>ATOM
      1  N1        -4.0570   56.9580   26.8580 N.ar  410  PLP410     -0.2452
      2  C2        -5.2410   57.5360   26.5730 C.ar  410  PLP410      0.0978
      3  C2A       -5.5680   58.8450   27.2250 C.3   410  PLP410      0.0555
      4  C3        -6.1050   56.8840   25.6700 C.ar  410  PLP410      0.2062
      5  O3        -7.2680   57.4920   25.4250 O.3   410  PLP410     -0.2856
      6  C4        -5.7990   55.6860   25.0910 C.ar  410  PLP410      0.0353
      7  C4A       -6.7310   55.0810   24.1870 C.3   410  PLP410      0.1186
      8  C5        -4.5140   55.1520   25.4210 C.ar  410  PLP410      0.0275
      9  C6        -3.6800   55.7930   26.3140 C.ar  410  PLP410      0.0965
     10  C5A       -3.9760   53.8060   24.8910 C.3   410  PLP410      0.1816
     11  O4P       -4.6360   53.2850   23.7500 O.3   410  PLP410     -0.2653
     12  P         -3.8980   52.1230   22.9220 P.3   410  PLP410      0.5329
     13  O1P       -2.6890   52.6970   22.2770 O.3   410  PLP410     -0.1145
     14  O2P       -4.9810   51.6080   21.9250 O.2   410  PLP410     -0.2224
     15  O3P       -3.5440   51.0960   23.8780 O.3   410  PLP410     -0.1145
     16  N         -8.1450   55.4200   24.5630 N.3   411  TYR411     -0.2031
     17  CA        -9.2740   55.5060   23.5690 C.3   411  TYR411      0.1804
     18  C        -10.3450   56.3130   24.2070 C.2   411  TYR411      0.3806
     19  O        -10.0190   56.9380   25.2460 O.co2 411  TYR411     -0.2441
     20  CB        -9.7740   54.1670   23.1030 C.3   411  TYR411      0.0553
     21  CG        -9.9210   53.1710   24.2180 C.ar  411  TYR411     -0.0200
     22  CD1      -11.0490   53.1770   25.0420 C.ar  411  TYR411     -0.0009
     23  CD2       -8.9680   52.1730   24.4200 C.ar  411  TYR411     -0.0009
     24  CE1      -11.2040   52.2520   26.0760 C.ar  411  TYR411      0.0417
     25  CE2       -9.1000   51.2430   25.4500 C.ar  411  TYR411      0.0417
     26  CZ       -10.2160   51.2900   26.2890 C.ar  411  TYR411      0.1957
     27  OH       -10.3610   50.3780   27.3210 O.3   411  TYR411     -0.2866
     28  OXT      -11.4920   56.3830   23.6820 O.co2 411  TYR411     -0.2441
@<TRIPOS>BOND
     1    14    12    2
     2    13    12    1
     3    12    11    1
     4    12    15    1
     5    20    17    1
     6    20    21    1
     7    17    18    1
     8    17    16    1
     9    28    18   ar
    10    11    10    1
    11     7    16    1
    12     7     6    1
    13    18    19   ar
    14    21    23   ar
    15    21    22   ar
    16    23    25   ar
    17    10     8    1
    18    22    24   ar
    19     6     8   ar
    20     6     4   ar
    21     8     9   ar
    22     5     4    1
    23    25    26   ar
    24     4     2   ar
    25    24    26   ar
    26    26    27    1
    27     9     1   ar
    28     2     1   ar
    29     2     3    1
