@<TRIPOS>MOLECULE
1ahh_NAD_A_1.pdb
 44 48 0 0 0
SMALL
GASTEIGER

@<TRIPOS>ATOM
      1  PA        52.4450   19.1960    7.3310 P.3   256  NAD256      0.2189
      2  O1A       52.9970   18.9900    5.9640 O.2   256  NAD256     -0.5170
      3  O2A       53.1130   20.1580    8.2600 O.3   256  NAD256     -0.4371
      4  O5B       52.4360   17.7880    8.0980 O.3   256  NAD256     -0.3112
      5  C5B       51.9670   16.6220    7.4270 C.3   256  NAD256      0.1813
      6  C4B       52.4610   15.4590    8.2640 C.3   256  NAD256      0.1821
      7  O4B       52.1560   14.3120    7.4490 O.3   256  NAD256     -0.3135
      8  C3B       53.9730   15.5330    8.4190 C.3   256  NAD256      0.2184
      9  O3B       54.4450   14.9400    9.6340 O.3   256  NAD256     -0.2174
     10  C2B       54.4450   14.8420    7.1470 C.3   256  NAD256      0.2570
     11  O2B       55.7570   14.3220    7.3800 O.3   256  NAD256     -0.2130
     12  C1B       53.3800   13.7580    6.9720 C.3   256  NAD256      0.3186
     13  N9A       53.1070   13.2510    5.6080 N.pl3 256  NAD256     -0.1439
     14  C8A       53.3220   13.8740    4.4200 C.3   256  NAD256      0.3377
     15  N7A       53.0290   13.0760    3.3760 N.2   256  NAD256     -0.2095
     16  C5A       52.6300   11.9560    3.9670 C.2   256  NAD256      0.2526
     17  C6A       52.2480   10.8080    3.2770 C.2   256  NAD256      0.4393
     18  N6A       52.2580   10.8280    1.9430 N.pl3 256  NAD256      0.2180
     19  N1A       51.8910    9.7290    4.0350 N.2   256  NAD256      0.0021
     20  C2A       51.9090    9.8080    5.3830 C.3   256  NAD256      0.5254
     21  N3A       52.2760   10.9200    6.0430 N.2   256  NAD256     -0.0055
     22  C4A       52.6540   12.0200    5.3510 C.2   256  NAD256      0.3518
     23  O3        50.8540   19.5530    7.2170 O.3   256  NAD256     -0.2703
     24  PN        49.6380   20.1410    8.1380 P.3   256  NAD256      0.2189
     25  O1N       49.5600   21.6220    7.9660 O.2   256  NAD256     -0.5170
     26  O2N       49.7960   19.6610    9.5380 O.3   256  NAD256     -0.4371
     27  O5D       48.3330   19.5610    7.3750 O.3   256  NAD256     -0.3112
     28  C5D       47.6270   18.3610    7.6790 C.3   256  NAD256      0.1813
     29  C4D       46.2940   18.4810    6.9500 C.3   256  NAD256      0.1799
     30  O4D       45.6740   19.7570    7.2410 O.3   256  NAD256     -0.3327
     31  C3D       46.4450   18.4080    5.4410 C.3   256  NAD256      0.2158
     32  O3D       45.4550   17.5340    4.8720 O.3   256  NAD256     -0.2175
     33  C2D       46.2790   19.8470    4.9520 C.3   256  NAD256      0.2309
     34  O2D       45.7520   19.8310    3.6020 O.3   256  NAD256     -0.2158
     35  C1D       45.3380   20.4380    6.0110 C.3   256  NAD256      0.2263
     36  N1N       45.4090   21.9150    6.2000 N.pl3 256  NAD256     -0.2787
     37  C2N       46.4690   22.6100    6.8530 C.3   256  NAD256      0.1244
     38  C3N       46.4840   24.0240    7.0090 C.2   256  NAD256      0.0544
     39  C7N       47.5930   24.8740    7.7460 C.2   256  NAD256      0.2818
     40  O7N       47.5150   26.1150    7.7620 O.2   256  NAD256     -0.2670
     41  N7N       48.6140   24.2420    8.3700 N.am  256  NAD256     -0.0839
     42  C4N       45.3840   24.7140    6.4670 C.2   256  NAD256      0.0033
     43  C5N       44.3370   24.0370    5.8210 C.2   256  NAD256      0.0157
     44  C6N       44.3470   22.6460    5.6920 C.2   256  NAD256      0.0633
@<TRIPOS>BOND
     1    18    17    1
     2    17    16    1
     3    17    19    2
     4    15    16    2
     5    15    14    1
     6    34    33    1
     7    16    22    1
     8    19    20    1
     9    14    13    1
    10    32    31    1
    11    33    31    1
    12    33    35    1
    13    22    13    1
    14    22    21    2
    15    20    21    1
    16    31    29    1
    17    13    12    1
    18    44    43    2
    19    44    36    1
    20    43    42    1
    21     2     1    2
    22    35    36    1
    23    35    30    1
    24    36    37    1
    25    42    38    2
    26    37    38    1
    27    29    30    1
    28    29    28    1
    29    12    10    1
    30    12     7    1
    31    38    39    1
    32    10    11    1
    33    10     8    1
    34    23     1    1
    35    23    24    1
    36     1     4    1
    37     1     3    1
    38    27    28    1
    39    27    24    1
    40     5     4    1
    41     5     6    1
    42     7     6    1
    43    39    40    2
    44    39    41   am
    45    25    24    2
    46    24    26    1
    47     6     8    1
    48     8     9    1
