@<TRIPOS>MOLECULE
1ahi_CHO_A_1.pdb
 28 31 0 0 0
SMALL
GASTEIGER

@<TRIPOS>ATOM
      1  C1        45.4430   29.5920    2.0100 C.3   257  CHO257      0.0026
      2  C2        44.5220   29.2420    0.8380 C.3   257  CHO257      0.0329
      3  C3        43.1300   28.9620    1.3820 C.3   257  CHO257      0.1520
      4  O3        42.1550   28.7630    0.3590 O.3   257  CHO257     -0.2232
      5  C4        43.2020   27.7500    2.2930 C.3   257  CHO257      0.0333
      6  C5        44.1960   27.9260    3.4780 C.3   257  CHO257      0.0099
      7  C6        44.2740   26.6560    4.3110 C.3   257  CHO257      0.0646
      8  C7        45.1310   25.5540    3.6840 C.2   257  CHO257      0.1502
      9  O7        44.6950   24.4470    3.3730 O.2   257  CHO257     -0.2961
     10  C8        46.5600   26.0090    3.4090 C.3   257  CHO257      0.0576
     11  C9        46.4920   27.2470    2.4590 C.3   257  CHO257      0.0069
     12  C10       45.6170   28.4530    3.0500 C.3   257  CHO257      0.0010
     13  C11       47.8800   27.6530    1.9800 C.3   257  CHO257      0.0004
     14  C12       48.6940   26.4810    1.3550 C.3   257  CHO257      0.0000
     15  C13       48.9090   25.3580    2.3570 C.3   257  CHO257      0.0004
     16  C14       47.4860   24.8850    2.7920 C.3   257  CHO257      0.0069
     17  C15       47.8090   23.6220    3.6010 C.3   257  CHO257      0.0004
     18  C16       48.8550   22.9460    2.6880 C.3   257  CHO257      0.0000
     19  C17       49.4900   24.0250    1.7950 C.3   257  CHO257      0.0000
     20  C18       49.7870   25.8170    3.5630 C.3   257  CHO257      0.0000
     21  C19       46.3170   29.1290    4.2160 C.3   257  CHO257      0.0000
     22  C20       51.0220   23.8360    1.6170 C.3   257  CHO257      0.0005
     23  C21       51.6600   24.9170    0.7070 C.3   257  CHO257      0.0000
     24  C22       51.2040   22.4660    1.0020 C.3   257  CHO257      0.0097
     25  C23       52.6470   22.0550    0.7180 C.3   257  CHO257      0.0885
     26  C24       52.7530   20.6130    0.0750 C.2   257  CHO257      0.2607
     27  O24       52.1540   19.6640    0.6310 O.2   257  CHO257     -0.2717
     28  N25       53.4350   20.4650   -0.9730 N.am  257  CHO257     -0.0878
@<TRIPOS>BOND
     1    28    26   am
     2    26    27    2
     3    26    25    1
     4     4     3    1
     5    23    22    1
     6    25    24    1
     7     2     3    1
     8     2     1    1
     9    24    22    1
    10    14    13    1
    11    14    15    1
    12     3     5    1
    13    22    19    1
    14    19    15    1
    15    19    18    1
    16    13    11    1
    17     1    12    1
    18     5     6    1
    19    15    16    1
    20    15    20    1
    21    11    12    1
    22    11    10    1
    23    18    17    1
    24    16    10    1
    25    16    17    1
    26    12     6    1
    27    12    21    1
    28     9     8    2
    29    10     8    1
    30     6     7    1
    31     8     7    1
