@<TRIPOS>MOLECULE
1ahi_NAD_A_1.pdb
 44 48 0 0 0
SMALL
GASTEIGER

@<TRIPOS>ATOM
      1  PA        52.5640   19.3810    7.9850 P.3   256  NAD256      0.2189
      2  O1A       53.1150   19.2220    6.6090 O.2   256  NAD256     -0.5170
      3  O2A       53.1580   20.3990    8.8960 O.3   256  NAD256     -0.4371
      4  O5B       52.6310   17.9610    8.7540 O.3   256  NAD256     -0.3112
      5  C5B       52.0350   16.8060    8.1560 C.3   256  NAD256      0.1813
      6  C4B       52.6950   15.4860    8.5350 C.3   256  NAD256      0.1821
      7  O4B       52.2580   14.6310    7.4560 O.3   256  NAD256     -0.3135
      8  C3B       54.2250   15.5250    8.4650 C.3   256  NAD256      0.2184
      9  O3B       54.8850   14.9280    9.6250 O.3   256  NAD256     -0.2174
     10  C2B       54.5370   14.7480    7.1900 C.3   256  NAD256      0.2570
     11  O2B       55.7200   13.9970    7.4490 O.3   256  NAD256     -0.2130
     12  C1B       53.3480   13.8160    7.0220 C.3   256  NAD256      0.3186
     13  N9A       53.1020   13.2640    5.6590 N.pl3 256  NAD256     -0.1439
     14  C8A       53.1800   13.9490    4.4960 C.3   256  NAD256      0.3377
     15  N7A       52.8800   13.1680    3.4370 N.2   256  NAD256     -0.2095
     16  C5A       52.6170   11.9830    3.9880 C.2   256  NAD256      0.2526
     17  C6A       52.2610   10.8390    3.2800 C.2   256  NAD256      0.4393
     18  N6A       52.2180   10.9080    1.9590 N.pl3 256  NAD256      0.2180
     19  N1A       52.0170    9.7070    3.9860 N.2   256  NAD256      0.0021
     20  C2A       52.1300    9.7070    5.3170 C.3   256  NAD256      0.5254
     21  N3A       52.4830   10.8170    5.9890 N.2   256  NAD256     -0.0055
     22  C4A       52.7410   11.9960    5.3630 C.2   256  NAD256      0.3518
     23  O3        50.9830   19.6330    7.8280 O.3   256  NAD256     -0.2703
     24  PN        49.8400   20.2630    8.7630 P.3   256  NAD256      0.2189
     25  O1N       50.0020   21.7460    8.6560 O.2   256  NAD256     -0.5170
     26  O2N       49.8770   19.5800   10.0930 O.3   256  NAD256     -0.4371
     27  O5D       48.4480   19.9310    7.9800 O.3   256  NAD256     -0.3112
     28  C5D       48.0360   18.6120    7.5490 C.3   256  NAD256      0.1813
     29  C4D       46.6300   18.5990    6.9300 C.3   256  NAD256      0.1799
     30  O4D       45.9420   19.8080    7.2890 O.3   256  NAD256     -0.3327
     31  C3D       46.6150   18.5520    5.3960 C.3   256  NAD256      0.2158
     32  O3D       45.5530   17.6870    4.8670 O.3   256  NAD256     -0.2175
     33  C2D       46.3840   19.9980    4.9530 C.3   256  NAD256      0.2309
     34  O2D       45.7410   19.9580    3.6540 O.3   256  NAD256     -0.2158
     35  C1D       45.4760   20.4630    6.0900 C.3   256  NAD256      0.2263
     36  N1N       45.4520   21.9220    6.3550 N.pl3 256  NAD256     -0.2787
     37  C2N       46.5380   22.6460    6.9240 C.3   256  NAD256      0.1244
     38  C3N       46.4250   24.0150    7.2290 C.2   256  NAD256      0.0544
     39  C7N       47.5830   24.9110    7.7060 C.2   256  NAD256      0.2818
     40  O7N       47.4360   26.1340    7.6240 O.2   256  NAD256     -0.2670
     41  N7N       48.7010   24.3410    8.1730 N.am  256  NAD256     -0.0839
     42  C4N       45.2140   24.6510    6.9790 C.2   256  NAD256      0.0033
     43  C5N       44.1500   23.9420    6.4140 C.2   256  NAD256      0.0157
     44  C6N       44.2530   22.5860    6.0900 C.2   256  NAD256      0.0633
@<TRIPOS>BOND
     1    18    17    1
     2    17    19    2
     3    17    16    1
     4    15    16    2
     5    15    14    1
     6    34    33    1
     7    19    20    1
     8    16    22    1
     9    14    13    1
    10    32    31    1
    11    33    31    1
    12    33    35    1
    13    20    21    1
    14    22    13    1
    15    22    21    2
    16    31    29    1
    17    13    12    1
    18    35    36    1
    19    35    30    1
    20    44    36    1
    21    44    43    2
    22    36    37    1
    23    43    42    1
    24     2     1    2
    25    37    38    1
    26    29    30    1
    27    29    28    1
    28    42    38    2
    29    12    10    1
    30    12     7    1
    31    10    11    1
    32    10     8    1
    33    38    39    1
    34     7     6    1
    35    28    27    1
    36    40    39    2
    37    39    41   am
    38    23     1    1
    39    23    24    1
    40    27    24    1
    41     1     4    1
    42     1     3    1
    43     5     6    1
    44     5     4    1
    45     8     6    1
    46     8     9    1
    47    25    24    2
    48    24    26    1
