@<TRIPOS>MOLECULE
1ahn_FMN_A_1.pdb
 31 33 0 0 0
SMALL
GASTEIGER

@<TRIPOS>ATOM
      1  N1        29.3930  -13.8430   -8.4980 N.2   177  FMN177     -0.2890
      2  C2        28.9670  -13.9210   -9.7950 C.1   177  FMN177      0.3669
      3  O2        29.6330  -13.5010  -10.7250 O.2   177  FMN177     -0.1744
      4  N3        27.7570  -14.5400  -10.0570 N.2   177  FMN177     -0.2300
      5  C4        27.1260  -15.4290   -9.2010 C.1   177  FMN177      0.2513
      6  O4        26.1380  -16.1350   -9.5710 O.2   177  FMN177     -0.2057
      7  C4A       27.6650  -15.4600   -7.8030 C.2   177  FMN177      0.2700
      8  N5        27.0840  -16.2190   -6.8690 N.2   177  FMN177     -0.3878
      9  C5A       27.5150  -16.1360   -5.5750 C.2   177  FMN177      0.1320
     10  C6        27.0560  -17.0800   -4.6220 C.2   177  FMN177      0.0250
     11  C7        27.6850  -17.2150   -3.3670 C.2   177  FMN177     -0.0238
     12  C7M       27.2110  -18.2720   -2.4310 C.3   177  FMN177      0.0308
     13  C8        28.7580  -16.3090   -3.0300 C.2   177  FMN177     -0.0280
     14  C8M       29.4930  -16.2730   -1.7430 C.3   177  FMN177      0.0304
     15  C9        29.1660  -15.3450   -3.9350 C.2   177  FMN177     -0.0041
     16  C9A       28.5770  -15.2640   -5.2220 C.3   177  FMN177      0.1497
     17  N10       29.1720  -14.5080   -6.2190 N.pl3 177  FMN177     -0.2691
     18  C10       28.7920  -14.5820   -7.5480 C.2   177  FMN177      0.2416
     19  C1'       30.3110  -13.6540   -5.8310 C.3   177  FMN177      0.1294
     20  C2'       29.8910  -12.2240   -5.5420 C.3   177  FMN177      0.2044
     21  O2'       29.0700  -11.4660   -6.4280 O.3   177  FMN177     -0.2185
     22  C3'       31.0930  -11.4240   -5.1740 C.3   177  FMN177      0.2164
     23  O3'       31.6080  -11.9380   -3.9510 O.3   177  FMN177     -0.2175
     24  C4'       30.8950   -9.9220   -5.0410 C.3   177  FMN177      0.2147
     25  O4'       32.1670   -9.2900   -4.8320 O.3   177  FMN177     -0.2176
     26  C5'       30.0210   -9.6150   -3.8290 C.3   177  FMN177      0.1892
     27  O5'       29.7970   -8.1930   -3.7770 O.3   177  FMN177     -0.2674
     28  P         29.1190   -7.6180   -2.6610 P.3   177  FMN177      0.5327
     29  O1P       30.1050   -7.6050   -1.5990 O.3   177  FMN177     -0.1145
     30  O2P       27.7960   -8.2650   -2.5070 O.3   177  FMN177     -0.1145
     31  O3P       29.0420   -6.1750   -3.0940 O.2   177  FMN177     -0.2224
@<TRIPOS>BOND
     1     3     2    2
     2     4     2    2
     3     4     5    2
     4     2     1    2
     5     6     5    2
     6     5     7    1
     7     1    18    2
     8     7    18    1
     9     7     8    2
    10    18    17    1
    11     8     9    2
    12    21    20    1
    13    17    19    1
    14    17    16    1
    15    19    20    1
    16     9    16    1
    17     9    10    1
    18    20    22    1
    19    16    15    1
    20    22    24    1
    21    22    23    1
    22    24    25    1
    23    24    26    1
    24    10    11    2
    25    15    13    2
    26    26    27    1
    27    27    28    1
    28    11    13    1
    29    11    12    1
    30    31    28    2
    31    13    14    1
    32    28    30    1
    33    28    29    1
