@<TRIPOS>MOLECULE
1aht_APA_H_1.pdb
 15 15 0 0 0
SMALL
GASTEIGER

@<TRIPOS>ATOM
      1  C1        14.9970  -10.8930   17.1980 C.2   401  APA401      0.3950
      2  O1        16.2500  -10.9640   17.2510 O.co2 401  APA401     -0.2428
      3  OXT       14.3770  -11.1770   16.1580 O.co2 401  APA401     -0.2428
      4  C2        14.0670  -10.4430   18.3500 C.3   401  APA401      0.2583
      5  O2        12.7450  -10.4300   18.2630 O.3   401  APA401     -0.2105
      6  C3        14.7520  -11.1470   19.5720 C.3   401  APA401      0.0710
      7  C1'       13.7040  -11.4720   20.6530 C.ar  401  APA401     -0.0190
      8  C2'       12.8970  -12.5940   20.7410 C.ar  401  APA401     -0.0039
      9  C3'       11.9680  -12.7520   21.7720 C.ar  401  APA401      0.0077
     10  C4'       11.8160  -11.7670   22.7610 C.ar  401  APA401      0.0975
     11  C5'       12.6210  -10.6400   22.6810 C.ar  401  APA401      0.0077
     12  C6'       13.5350  -10.5240   21.6420 C.ar  401  APA401     -0.0039
     13  C         10.8810  -11.7680   23.9710 C.2   401  APA401      0.4766
     14  N1        10.1680  -12.8530   24.2390 N.pl3 401  APA401      0.2047
     15  N2        10.6240  -10.6320   24.6310 N.pl3 401  APA401      0.2047
@<TRIPOS>BOND
     1     3     1   ar
     2     1     2   ar
     3     1     4    1
     4     5     4    1
     5     4     6    1
     6     6     7    1
     7     7     8   ar
     8     7    12   ar
     9     8     9   ar
    10    12    11   ar
    11     9    10   ar
    12    11    10   ar
    13    10    13    1
    14    13    14    2
    15    13    15    1
