@<TRIPOS>MOLECULE
1ahv_NCR_A_1.pdb
 11 11 0 0 0
SMALL
GASTEIGER

@<TRIPOS>ATOM
      1  C1       116.2470   54.2380   70.7810 C.ar  601  NCR601     -0.0200
      2  C2       116.2970   53.3960   69.6780 C.ar  601  NCR601      0.0231
      3  C3       115.3560   53.5540   68.6680 C.ar  601  NCR601      0.1812
      4  C4       114.3920   54.5510   68.7610 C.ar  601  NCR601      0.2179
      5  C5       114.3400   55.3940   69.8600 C.ar  601  NCR601      0.0435
      6  C6       115.2740   55.2350   70.8730 C.ar  601  NCR601     -0.0009
      7  C7       117.2570   54.0670   71.8820 C.3   601  NCR601      0.0311
      8  N3       115.3410   52.7180   67.4700 N.pl3 601  NCR601      0.0609
      9  O1N      116.2480   51.8700   67.2620 O.2   601  NCR601     -0.1260
     10  O2N      114.4120   52.7750   66.6330 O.2   601  NCR601     -0.1260
     11  O4       113.4820   54.7280   67.7990 O.3   601  NCR601     -0.2848
@<TRIPOS>BOND
     1    10     8    2
     2     9     8    2
     3     8     3    1
     4    11     4    1
     5     3     4   ar
     6     3     2   ar
     7     4     5   ar
     8     2     1   ar
     9     5     6   ar
    10     1     6   ar
    11     1     7    1
