@<TRIPOS>MOLECULE
1ahx_PLP_A_1.pdb
 15 15 0 0 0
SMALL
GASTEIGER

@<TRIPOS>ATOM
      1  N1        -3.6830   56.7900   26.8160 N.ar  410  PLP410     -0.2452
      2  C2        -4.5900   57.6200   26.2810 C.ar  410  PLP410      0.0978
      3  C2A       -4.9990   58.8270   27.0950 C.3   410  PLP410      0.0555
      4  C3        -5.1220   57.2950   24.9940 C.ar  410  PLP410      0.2049
      5  O3        -6.0560   58.1410   24.5040 O.3   410  PLP410     -0.2857
      6  C4        -4.6910   56.1700   24.2980 C.ar  410  PLP410      0.0182
      7  C4A       -5.2110   55.8320   22.9760 C.3   410  PLP410      0.0342
      8  C5        -3.7550   55.3360   24.9930 C.ar  410  PLP410      0.0261
      9  C6        -3.2710   55.6620   26.2350 C.ar  410  PLP410      0.0965
     10  C5A       -3.1160   54.1070   24.3110 C.3   410  PLP410      0.1815
     11  O4P       -4.0440   53.3530   23.5130 O.3   410  PLP410     -0.2653
     12  P         -3.4610   52.0720   22.7440 P.3   410  PLP410      0.5329
     13  O1P       -2.0330   52.4080   22.3440 O.3   410  PLP410     -0.1145
     14  O2P       -3.3560   50.9220   23.7890 O.3   410  PLP410     -0.1145
     15  O3P       -4.4740   51.7970   21.6880 O.2   410  PLP410     -0.2224
@<TRIPOS>BOND
     1    15    12    2
     2    13    12    1
     3    12    11    1
     4    12    14    1
     5     7     6    1
     6    11    10    1
     7     6     8   ar
     8     6     4   ar
     9    10     8    1
    10     5     4    1
    11     8     9   ar
    12     4     2   ar
    13     9     1   ar
    14     2     1   ar
    15     2     3    1
