@<TRIPOS>MOLECULE
1ahx_HCI_A_1.pdb
 11 11 0 0 0
SMALL
GASTEIGER

@<TRIPOS>ATOM
      1  C1       -10.2340   56.7110   23.8630 C.2   411  HCI411      0.3652
      2  O1       -11.2720   56.7050   23.2390 O.co2 411  HCI411     -0.2456
      3  O2       -10.1360   57.2790   25.0310 O.co2 411  HCI411     -0.2456
      4  C2        -9.0350   56.0370   23.1180 C.3   411  HCI411      0.1187
      5  C3        -9.2200   54.5170   22.7860 C.3   411  HCI411      0.0382
      6  C1'       -9.2120   53.5680   23.9780 C.ar  411  HCI411     -0.0216
      7  C2'       -8.0510   52.8910   24.3810 C.ar  411  HCI411     -0.0043
      8  C3'       -8.0730   52.0090   25.4680 C.ar  411  HCI411     -0.0003
      9  C4'       -9.2780   51.7920   26.1390 C.ar  411  HCI411     -0.0000
     10  C5'      -10.4490   52.4350   25.7340 C.ar  411  HCI411     -0.0003
     11  C6'      -10.4120   53.3030   24.6480 C.ar  411  HCI411     -0.0043
@<TRIPOS>BOND
     1     5     4    1
     2     5     6    1
     3     4     1    1
     4     2     1   ar
     5     1     3   ar
     6     6     7   ar
     7     6    11   ar
     8     7     8   ar
     9    11    10   ar
    10     8     9   ar
    11    10     9   ar
