@<TRIPOS>MOLECULE
1ahy_PLP_A_1.pdb
 15 15 0 0 0
SMALL
GASTEIGER

@<TRIPOS>ATOM
      1  N1        -3.8710   56.7420   26.9160 N.ar  410  PLP410     -0.2452
      2  C2        -4.6010   57.6530   26.2680 C.ar  410  PLP410      0.0978
      3  C2A       -4.7090   59.0370   26.8760 C.3   410  PLP410      0.0555
      4  C3        -5.2280   57.2490   25.0510 C.ar  410  PLP410      0.2049
      5  O3        -5.9670   58.1760   24.4090 O.3   410  PLP410     -0.2857
      6  C4        -5.0930   55.9820   24.5460 C.ar  410  PLP410      0.0182
      7  C4A       -5.7480   55.6460   23.2900 C.3   410  PLP410      0.0342
      8  C5        -4.2760   55.0860   25.3230 C.ar  410  PLP410      0.0261
      9  C6        -3.7010   55.4880   26.4830 C.ar  410  PLP410      0.0965
     10  C5A       -4.0410   53.5960   24.9730 C.3   410  PLP410      0.1815
     11  O4P       -4.0960   53.4160   23.5950 O.3   410  PLP410     -0.2653
     12  P         -3.6760   52.1130   22.8390 P.3   410  PLP410      0.5329
     13  O1P       -2.3630   52.4230   22.2270 O.3   410  PLP410     -0.1145
     14  O2P       -3.4890   50.8700   23.7350 O.3   410  PLP410     -0.1145
     15  O3P       -4.8840   51.9340   22.0210 O.2   410  PLP410     -0.2224
@<TRIPOS>BOND
     1    15    12    2
     2    13    12    1
     3    12    11    1
     4    12    14    1
     5     7     6    1
     6    11    10    1
     7     5     4    1
     8     6     4   ar
     9     6     8   ar
    10    10     8    1
    11     4     2   ar
    12     8     9   ar
    13     2     3    1
    14     2     1   ar
    15     9     1   ar
