@<TRIPOS>MOLECULE
1ahz_EPT_A_1.pdb
 14 14 0 0 0
SMALL
GASTEIGER

@<TRIPOS>ATOM
      1  C1       116.6780   54.8000   70.7800 C.ar  602  EPT602     -0.0220
      2  C2       116.0160   55.9240   70.4420 C.ar  602  EPT602     -0.0010
      3  C3       114.9870   55.9730   69.5240 C.ar  602  EPT602      0.0417
      4  C4       114.5760   54.7450   68.9600 C.ar  602  EPT602      0.1957
      5  C5       115.2370   53.6400   69.2770 C.ar  602  EPT602      0.0417
      6  C6       116.2800   53.5960   70.2140 C.ar  602  EPT602     -0.0010
      7  C7       117.7540   54.8460   71.7990 C.3   602  EPT602      0.0264
      8  C8       118.5180   53.6120   71.7230 C.3   602  EPT602      0.0047
      9  C9       119.3930   53.7280   72.9750 C.3   602  EPT602      0.0003
     10  C10      120.3780   52.5230   73.1180 C.3   602  EPT602      0.0000
     11  C11      120.7070   51.8710   71.7430 C.3   602  EPT602      0.0000
     12  C12      122.0770   51.2070   71.7900 C.3   602  EPT602      0.0000
     13  C13      122.8610   51.5810   70.4910 C.3   602  EPT602      0.0000
     14  O4       113.5500   54.6850   68.0420 O.3   602  EPT602     -0.2866
@<TRIPOS>BOND
     1    14     4    1
     2     4     5   ar
     3     4     3   ar
     4     5     6   ar
     5     3     2   ar
     6     6     1   ar
     7     2     1   ar
     8    13    12    1
     9     1     7    1
    10     8     7    1
    11     8     9    1
    12    11    12    1
    13    11    10    1
    14     9    10    1
