@<TRIPOS>MOLECULE
1ai0_IPH_B_1.pdb
 13 13 0 0 0
SMALL
GASTEIGER

@<TRIPOS>ATOM
      1  C1         8.7060    7.4840  -23.0430 C.ar   32  IPH32       0.1169
      2  C2         7.9220    6.5530  -23.7370 C.ar   32  IPH32      -0.0202
      3  C3         7.3500    5.4730  -23.0530 C.ar   32  IPH32      -0.0583
      4  C4         7.5630    5.3230  -21.6780 C.ar   32  IPH32      -0.0615
      5  C5         8.3490    6.2530  -20.9870 C.ar   32  IPH32      -0.0583
      6  C6         8.9190    7.3330  -21.6690 C.ar   32  IPH32      -0.0202
      7  O1         9.2710    8.5490  -23.7160 O.3    32  IPH32      -0.5068
      8  H2         7.7570    6.6690  -24.7980 H      32  IPH32       0.0654
      9  H3         6.7460    4.7550  -23.5870 H      32  IPH32       0.0619
     10  H4         7.1240    4.4890  -21.1510 H      32  IPH32       0.0618
     11  H5         8.5130    6.1360  -19.9250 H      32  IPH32       0.0619
     12  H6         9.5260    8.0500  -21.1340 H      32  IPH32       0.0654
     13  HO1        9.9680    8.9140  -23.1640 H      32  IPH32       0.2921
@<TRIPOS>BOND
     1     8     2    1
     2     2     3   ar
     3     2     1   ar
     4     7    13    1
     5     7     1    1
     6     9     3    1
     7     3     4   ar
     8     1     6   ar
     9     4    10    1
    10     4     5   ar
    11     6    12    1
    12     6     5   ar
    13     5    11    1
