@<TRIPOS>MOLECULE
1ai2_ICA_A_1.pdb
 14 14 0 0 0
SMALL
GASTEIGER

@<TRIPOS>ATOM
      1  C1       -83.8610  -65.7480    3.2730 C.2   418  ICA418      0.0000
      2  C2       -83.4870  -65.3100    1.8900 C.3   418  ICA418      0.0000
      3  C3       -82.7480  -64.0580    1.9810 C.3   418  ICA418      0.0000
      4  C4       -83.0830  -63.3170    0.7270 C.3   418  ICA418      0.0000
      5  C5       -83.2210  -61.9280    0.7170 C.2   418  ICA418      0.0000
      6  C6       -81.2050  -64.3220    2.1320 C.2   418  ICA418      0.0000
      7  O1       -84.2230  -64.8600    4.0760 O.2   418  ICA418      0.0000
      8  O2       -83.7450  -66.9440    3.5510 O.3   418  ICA418      0.0000
      9  O3       -84.2710  -61.3580    0.3750 O.co2 418  ICA418      0.0000
     10  O4       -82.3600  -61.3180    1.3210 O.co2 418  ICA418      0.0000
     11  O5       -80.7570  -64.5160    3.2740 O.co2 418  ICA418      0.0000
     12  O6       -80.5030  -64.2340    1.0790 O.co2 418  ICA418      0.0000
     13  O7       -82.7030  -66.3480    1.2720 O.3   418  ICA418      0.0000
     14 CA        -83.8060  -68.5480    1.6190 Ca    418  ICA418      0.0000
@<TRIPOS>BOND
     1     9     5   ar
     2     5     4    1
     3     5    10   ar
     4     4     3    1
     5    12     6   ar
     6    13    14    1
     7    13     2    1
     8    14     8    1
     9     2     3    1
    10     2     1    1
    11     3     6    1
    12     6    11   ar
    13     1     8    1
    14     1     7    2
