@<TRIPOS>MOLECULE
1ai2_NAP_A_1.pdb
 48 52 0 0 0
SMALL
GASTEIGER

@<TRIPOS>ATOM
      1  PA       -89.7180  -67.1770   -5.8620 P.3   417  NAP417      0.2189
      2  O1A      -88.6890  -67.7830   -6.8960 O.2   417  NAP417     -0.5170
      3  O2A      -89.2830  -67.3920   -4.4970 O.3   417  NAP417     -0.4371
      4  O5B      -91.0410  -68.0340   -5.9190 O.3   417  NAP417     -0.3112
      5  C5B      -91.9030  -68.4910   -4.6910 C.3   417  NAP417      0.1813
      6  C4B      -92.9910  -69.4750   -4.9940 C.3   417  NAP417      0.1820
      7  O4B      -93.2880  -70.2140   -3.7500 O.3   417  NAP417     -0.3136
      8  C3B      -94.2350  -68.8010   -5.2160 C.3   417  NAP417      0.2157
      9  O3B      -94.5000  -68.0360   -6.4010 O.3   417  NAP417     -0.2175
     10  C2B      -95.3610  -69.6950   -4.8220 C.3   417  NAP417      0.2314
     11  O2B      -95.2150  -70.9820   -5.6960 O.3   417  NAP417     -0.2630
     12  C1B      -94.7250  -70.1750   -3.5390 C.3   417  NAP417      0.3158
     13  N9A      -94.9010  -69.4450   -2.2880 N.pl3 417  NAP417     -0.1439
     14  C8A      -94.1620  -68.3680   -1.8210 C.3   417  NAP417      0.3377
     15  N7A      -94.5690  -67.9390   -0.6620 N.2   417  NAP417     -0.2095
     16  C5A      -95.6250  -68.7630   -0.3350 C.2   417  NAP417      0.2526
     17  C6A      -96.4730  -68.8050    0.7790 C.2   417  NAP417      0.4393
     18  N6A      -96.3500  -67.9580    1.7830 N.pl3 417  NAP417      0.2180
     19  N1A      -97.4390  -69.7550    0.8060 N.2   417  NAP417      0.0021
     20  C2A      -97.5620  -70.6160   -0.2160 C.3   417  NAP417      0.5254
     21  N3A      -96.8070  -70.6460   -1.3080 N.2   417  NAP417     -0.0055
     22  C4A      -95.8440  -69.6810   -1.3070 C.2   417  NAP417      0.3518
     23  O3       -90.3250  -65.8340   -5.9250 O.3   417  NAP417     -0.2703
     24  PN       -90.4510  -64.5570   -6.9370 P.3   417  NAP417      0.2189
     25  O1N      -91.4820  -64.9160   -7.9490 O.2   417  NAP417     -0.5170
     26  O2N      -89.1870  -63.9370   -7.4270 O.3   417  NAP417     -0.4371
     27  O5D      -91.2850  -63.2190   -6.0780 O.3   417  NAP417     -0.3112
     28  C5D      -91.4780  -63.0300   -4.8870 C.3   417  NAP417      0.1813
     29  C4D      -89.9870  -62.4110   -4.3160 C.3   417  NAP417      0.1799
     30  O4D      -89.7580  -62.8250   -3.0630 O.3   417  NAP417     -0.3327
     31  C3D      -88.5160  -62.4350   -4.8550 C.3   417  NAP417      0.2158
     32  O3D      -88.0110  -61.5950   -5.8900 O.3   417  NAP417     -0.2175
     33  C2D      -87.7120  -62.2390   -3.4980 C.3   417  NAP417      0.2309
     34  O2D      -86.8600  -60.9080   -3.1690 O.3   417  NAP417     -0.2158
     35  C1D      -88.6670  -62.5820   -2.3040 C.3   417  NAP417      0.2263
     36  N1N      -88.0870  -63.3610   -1.1980 N.pl3 417  NAP417     -0.2787
     37  C2N      -88.3710  -63.2730    0.1620 C.3   417  NAP417      0.1244
     38  C3N      -87.5720  -64.0530    1.0470 C.2   417  NAP417      0.0544
     39  C7N      -87.7940  -64.0190    2.4900 C.2   417  NAP417      0.2818
     40  O7N      -88.6420  -63.2850    3.0080 O.2   417  NAP417     -0.2670
     41  N7N      -87.0690  -64.7940    3.3120 N.am  417  NAP417     -0.0839
     42  C4N      -86.4530  -65.0660    0.6890 C.2   417  NAP417      0.0033
     43  C5N      -86.3070  -64.9210   -0.7890 C.2   417  NAP417      0.0157
     44  C6N      -87.0650  -64.1820   -1.6530 C.2   417  NAP417      0.0633
     45  P2B      -96.5330  -71.6370   -6.3150 P.3   417  NAP417      0.5328
     46  O1X      -97.0000  -70.6450   -7.3020 O.2   417  NAP417     -0.2224
     47  O2X      -96.0560  -72.9010   -6.9050 O.3   417  NAP417     -0.1145
     48  O3X      -97.4250  -71.8040   -5.1510 O.3   417  NAP417     -0.1145
@<TRIPOS>BOND
     1    25    24    2
     2    26    24    1
     3    46    45    2
     4    24    27    1
     5    24    23    1
     6    47    45    1
     7     2     1    2
     8     9     8    1
     9    45    11    1
    10    45    48    1
    11    27    28    1
    12    23     1    1
    13     4     1    1
    14     4     5    1
    15    32    31    1
    16     1     3    1
    17    11    10    1
    18     8     6    1
    19     8    10    1
    20     6     5    1
    21     6     7    1
    22    28    29    1
    23    31    29    1
    24    31    33    1
    25    10    12    1
    26    29    30    1
    27     7    12    1
    28    12    13    1
    29    33    34    1
    30    33    35    1
    31    30    35    1
    32    35    36    1
    33    13    14    1
    34    13    22    1
    35    14    15    1
    36    44    36    1
    37    44    43    2
    38    21    22    2
    39    21    20    1
    40    22    16    1
    41    36    37    1
    42    43    42    1
    43    15    16    2
    44    16    17    1
    45    20    19    1
    46    37    38    1
    47    42    38    2
    48    17    19    2
    49    17    18    1
    50    38    39    1
    51    39    40    2
    52    39    41   am
