@<TRIPOS>MOLECULE
1ai3_NDO_A_1.pdb
 48 52 0 0 0
SMALL
GASTEIGER

@<TRIPOS>ATOM
      1  PA       -89.8190  -66.6850   -5.5510 P.3   417  NDO417      0.2189
      2  O1A      -88.6480  -67.3050   -6.4110 O.2   417  NDO417     -0.5170
      3  O2A      -89.4950  -66.6830   -4.1400 O.3   417  NDO417     -0.4371
      4  O5B      -91.0470  -67.6740   -5.6010 O.3   417  NDO417     -0.3112
      5  C5B      -91.1950  -68.7060   -4.3780 C.3   417  NDO417      0.1813
      6  C4B      -92.1620  -69.7070   -4.9310 C.3   417  NDO417      0.1820
      7  O4B      -92.7280  -70.4610   -3.7920 O.3   417  NDO417     -0.3136
      8  C3B      -93.3340  -69.0530   -5.4340 C.3   417  NDO417      0.2157
      9  O3B      -93.3290  -68.2830   -6.6450 O.3   417  NDO417     -0.2175
     10  C2B      -94.5030  -69.9710   -5.3170 C.3   417  NDO417      0.2314
     11  O2B      -94.1320  -71.2470   -6.1380 O.3   417  NDO417     -0.2630
     12  C1B      -94.1750  -70.4490   -3.9230 C.3   417  NDO417      0.3159
     13  N9A      -94.6520  -69.7330   -2.7450 N.pl3 417  NDO417     -0.1436
     14  C8A      -93.9970  -68.7410   -2.0310 C.3   417  NDO417      0.3382
     15  N7A      -94.6930  -68.3000   -1.0220 N.2   417  NDO417     -0.2054
     16  C5A      -95.8630  -69.0280   -1.0600 C.2   417  NDO417      0.2446
     17  C6A      -97.0030  -69.0130   -0.2470 C.1   417  NDO417      0.1792
     18  O6A      -97.1130  -68.2030    0.7890 O.2   417  NDO417     -0.2203
     19  N1A      -98.0100  -69.8680   -0.5500 N.2   417  NDO417     -0.1458
     20  C2A      -97.8960  -70.6920   -1.6040 C.3   417  NDO417      0.4017
     21  N3A      -96.8560  -70.7700   -2.4260 N.2   417  NDO417     -0.0334
     22  C4A      -95.8600  -69.9000   -2.0960 C.2   417  NDO417      0.3528
     23  O3       -90.5380  -65.4290   -5.8390 O.3   417  NDO417     -0.2703
     24  PN       -90.8640  -64.4250   -7.0860 P.3   417  NDO417      0.2189
     25  O1N      -92.2850  -64.6600   -7.4630 O.3   417  NDO417     -0.4371
     26  O2N      -89.8610  -64.3400   -8.1860 O.2   417  NDO417     -0.5170
     27  O5D      -90.9650  -62.7440   -6.4630 O.3   417  NDO417     -0.3112
     28  C5D      -91.3060  -62.2910   -5.3240 C.3   417  NDO417      0.1813
     29  C4D      -90.2580  -61.7540   -4.3040 C.3   417  NDO417      0.1799
     30  O4D      -90.1520  -62.0370   -3.0560 O.3   417  NDO417     -0.3327
     31  C3D      -88.8040  -62.2170   -4.6540 C.3   417  NDO417      0.2158
     32  O3D      -88.2650  -61.2610   -5.5010 O.3   417  NDO417     -0.2175
     33  C2D      -88.1210  -62.1250   -3.2220 C.3   417  NDO417      0.2309
     34  O2D      -87.3190  -60.7780   -3.0220 O.3   417  NDO417     -0.2158
     35  C1D      -89.2540  -62.0960   -2.1400 C.3   417  NDO417      0.2263
     36  N1N      -88.8930  -62.9580   -0.9950 N.pl3 417  NDO417     -0.2787
     37  C2N      -89.3600  -62.5290    0.2450 C.3   417  NDO417      0.1244
     38  C3N      -89.0350  -63.3340    1.3770 C.2   417  NDO417      0.0544
     39  C7N      -89.4790  -62.9610    2.7160 C.2   417  NDO417      0.2818
     40  O7N      -90.0920  -61.9110    2.9380 O.2   417  NDO417     -0.2670
     41  N7N      -89.2150  -63.7660    3.7360 N.am  417  NDO417     -0.0839
     42  C4N      -88.2810  -64.4860    1.1940 C.2   417  NDO417      0.0033
     43  C5N      -87.8440  -64.8800   -0.0070 C.2   417  NDO417      0.0157
     44  C6N      -88.1460  -64.1240   -1.1050 C.2   417  NDO417      0.0633
     45  P2B      -95.3100  -72.0990   -6.7970 P.3   417  NDO417      0.5328
     46  O1X      -95.8130  -71.2390   -7.8850 O.2   417  NDO417     -0.2224
     47  O2X      -94.6420  -73.3300   -7.2580 O.3   417  NDO417     -0.1145
     48  O3X      -96.2640  -72.2990   -5.6900 O.3   417  NDO417     -0.1145
@<TRIPOS>BOND
     1    26    24    2
     2    46    45    2
     3    25    24    1
     4    47    45    1
     5    24    27    1
     6    24    23    1
     7    45    11    1
     8    45    48    1
     9     9     8    1
    10    27    28    1
    11     2     1    2
    12    11    10    1
    13    23     1    1
    14     4     1    1
    15     4     5    1
    16     1     3    1
    17    32    31    1
    18     8    10    1
    19     8     6    1
    20    28    29    1
    21    10    12    1
    22     6     5    1
    23     6     7    1
    24    31    29    1
    25    31    33    1
    26    29    30    1
    27    12     7    1
    28    12    13    1
    29    33    34    1
    30    33    35    1
    31    30    35    1
    32    13    22    1
    33    13    14    1
    34    21    22    2
    35    21    20    1
    36    35    36    1
    37    22    16    1
    38    14    15    1
    39    20    19    1
    40    44    36    1
    41    44    43    2
    42    16    15    2
    43    16    17    1
    44    36    37    1
    45    19    17    2
    46    17    18    2
    47    43    42    1
    48    37    38    1
    49    42    38    2
    50    38    39    1
    51    39    40    2
    52    39    41   am
