@<TRIPOS>MOLECULE
1ai3_ICT_A_1.pdb
 13 12 0 0 0
SMALL
GASTEIGER

@<TRIPOS>ATOM
      1  C1       -83.7780  -65.3300    3.5890 C.2   418  ICT418      0.3952
      2  O1       -84.2850  -64.3660    4.2030 O.co2 418  ICT418     -0.2428
      3  O2       -83.4750  -66.4080    4.1000 O.co2 418  ICT418     -0.2428
      4  C2       -83.4690  -65.1300    2.1360 C.3   418  ICT418      0.2651
      5  O7       -82.7520  -66.2410    1.5660 O.3   418  ICT418     -0.2103
      6  C3       -82.7370  -63.8800    1.9840 C.3   418  ICT418      0.1561
      7  C4       -83.0070  -63.4410    0.5800 C.3   418  ICT418      0.1285
      8  C5       -83.1610  -61.9450    0.5680 C.2   418  ICT418      0.3655
      9  O3       -84.1990  -61.4430    0.1080 O.co2 418  ICT418     -0.2456
     10  O4       -82.2990  -61.2370    1.0520 O.co2 418  ICT418     -0.2456
     11  C6       -81.2030  -64.0860    2.2650 C.2   418  ICT418      0.3680
     12  O5       -80.8130  -64.0160    3.4430 O.co2 418  ICT418     -0.2455
     13  O6       -80.4490  -64.2260    1.2550 O.co2 418  ICT418     -0.2455
@<TRIPOS>BOND
     1     9     8   ar
     2     8     7    1
     3     8    10   ar
     4     7     6    1
     5    13    11   ar
     6     5     4    1
     7     6     4    1
     8     6    11    1
     9     4     1    1
    10    11    12   ar
    11     1     3   ar
    12     1     2   ar
