@<TRIPOS>MOLECULE
1ai4_DHY_B_1.pdb
 12 12 0 0 0
SMALL
GASTEIGER

@<TRIPOS>ATOM
      1  C1        12.4160   35.9970   34.8980 C.ar  559  DHY559     -0.0076
      2  C2        12.3640   36.6850   33.6940 C.ar  559  DHY559      0.0417
      3  C3        11.3370   36.4780   32.8090 C.ar  559  DHY559      0.2340
      4  C4        10.3460   35.5510   33.1180 C.ar  559  DHY559      0.2342
      5  C5        10.3720   34.8500   34.3070 C.ar  559  DHY559      0.0451
      6  C6        11.4240   35.0560   35.2000 C.ar  559  DHY559     -0.0002
      7  C7        13.5920   36.3210   35.7700 C.3   559  DHY559      0.1405
      8  C8        13.8060   37.7840   36.1770 C.2   559  DHY559      0.3692
      9  O1        14.4450   38.0110   37.1970 O.co2 559  DHY559     -0.2453
     10  O2        13.2690   38.7890   35.7080 O.co2 559  DHY559     -0.2453
     11  O3        11.0820   37.0600   31.5790 O.3   559  DHY559     -0.2832
     12  O4         9.4350   35.4550   32.0850 O.3   559  DHY559     -0.2831
@<TRIPOS>BOND
     1    11     3    1
     2    12     4    1
     3     3     4   ar
     4     3     2   ar
     5     4     5   ar
     6     2     1   ar
     7     5     6   ar
     8     1     6   ar
     9     1     7    1
    10    10     8   ar
    11     7     8    1
    12     8     9   ar
