@<TRIPOS>MOLECULE
1ai5_MNP_B_1.pdb
 13 13 0 0 0
SMALL
GASTEIGER

@<TRIPOS>ATOM
      1  C1        14.0160   37.7680   36.3700 C.2   559  MNP559      0.3692
      2  C2        13.9490   36.3240   35.8790 C.3   559  MNP559      0.1404
      3  C1'       12.6700   35.9080   35.2370 C.ar  559  MNP559     -0.0093
      4  C2'       12.4280   36.4610   34.0030 C.ar  559  MNP559      0.0204
      5  C3'       11.2590   36.0710   33.4050 C.ar  559  MNP559      0.1426
      6  N3'       10.9480   36.5440   32.1190 N.pl3 559  MNP559      0.0577
      7  O3'        9.7150   35.9000   31.8610 O.2   559  MNP559     -0.1261
      8  O4'       11.6460   37.4310   31.3120 O.2   559  MNP559     -0.1261
      9  C4'       10.3140   35.1870   33.8960 C.ar  559  MNP559      0.0241
     10  C5'       10.5900   34.6320   35.1090 C.ar  559  MNP559      0.0014
     11  C6'       11.7540   35.0150   35.7910 C.ar  559  MNP559     -0.0036
     12  O1        14.5840   37.9400   37.4320 O.co2 559  MNP559     -0.2453
     13  O2        13.5320   38.7810   35.9290 O.co2 559  MNP559     -0.2453
@<TRIPOS>BOND
     1     8     6    2
     2     7     6    2
     3     6     5    1
     4     5     9   ar
     5     5     4   ar
     6     9    10   ar
     7     4     3   ar
     8    10    11   ar
     9     3    11   ar
    10     3     2    1
    11     2     1    1
    12    13     1   ar
    13     1    12   ar
