@<TRIPOS>MOLECULE
1ai6_4HP_B_1.pdb
 11 11 0 0 0
SMALL
GASTEIGER

@<TRIPOS>ATOM
      1  C8        12.9090   37.8640   35.4810 C.2   559  4HP559      0.3692
      2  O1        13.4740   37.7640   36.5650 O.co2 559  4HP559     -0.2453
      3  O2        12.1200   38.7990   35.2070 O.co2 559  4HP559     -0.2453
      4  C7        13.1850   36.7680   34.4310 C.3   559  4HP559      0.1404
      5  C1        11.9170   36.2180   33.8460 C.ar  559  4HP559     -0.0107
      6  C2        11.2130   35.1610   34.4330 C.ar  559  4HP559     -0.0004
      7  C3        10.0570   34.7350   33.8350 C.ar  559  4HP559      0.0417
      8  C4         9.6580   35.3310   32.6360 C.ar  559  4HP559      0.1957
      9  C5        10.3320   36.4010   32.0670 C.ar  559  4HP559      0.0417
     10  C6        11.4970   36.8260   32.6900 C.ar  559  4HP559     -0.0004
     11  O4         8.5270   34.8270   32.0260 O.3   559  4HP559     -0.2866
@<TRIPOS>BOND
     1    11     8    1
     2     9     8   ar
     3     9    10   ar
     4     8     7   ar
     5    10     5   ar
     6     7     6   ar
     7     5     4    1
     8     5     6   ar
     9     4     1    1
    10     3     1   ar
    11     1     2   ar
