@<TRIPOS>MOLECULE
1ai8_T42_H_1.pdb
 42 45 0 0 0
SMALL
GASTEIGER

@<TRIPOS>ATOM
      1  C10       11.2150  -14.2620   12.9690 C.2     2  T422        0.0000
      2  O10       12.1660  -13.5590   12.5000 O.2     2  T422        0.0000
      3  C11       10.9950  -15.5910   12.2380 C.3     2  T422        0.0000
      4  C12       10.5560  -15.2840   10.7790 C.3     2  T422        0.0000
      5  N13       12.2390  -16.3450   12.0830 N.3     2  T422        0.0000
      6  C14       12.1770  -17.6640   12.4910 C.3     2  T422        0.0000
      7  O14       11.5680  -17.6500   13.8100 O.3     2  T422        0.0000
      8  C21        9.0810  -14.8100   10.6000 C.ar    2  T422        0.0000
      9  C22        8.8070  -13.6650    9.7780 C.ar    2  T422        0.0000
     10  C23        7.5130  -13.0780    9.7480 C.ar    2  T422        0.0000
     11  C24        6.4960  -13.6870   10.5830 C.ar    2  T422        0.0000
     12  C25        6.7330  -14.8410   11.3550 C.ar    2  T422        0.0000
     13  C26        8.0390  -15.4680   11.4110 C.ar    2  T422        0.0000
     14  C31       10.6220  -16.5890    9.9430 C.ar    2  T422        0.0000
     15  C32       10.1660  -17.8260   10.5150 C.ar    2  T422        0.0000
     16  C33       10.1880  -19.0020    9.6290 C.ar    2  T422        0.0000
     17  C34       10.6390  -18.8630    8.2840 C.ar    2  T422        0.0000
     18  C35       11.0640  -17.6210    7.7200 C.ar    2  T422        0.0000
     19  C36       11.0410  -16.4290    8.5980 C.ar    2  T422        0.0000
     20  N41       13.4220  -18.4050   12.3070 N.3     2  T422        0.0000
     21  C42       13.7100  -18.7740   10.8700 C.3     2  T422        0.0000
     22  C43       13.0540  -20.1100   10.4250 C.3     2  T422        0.0000
     23  O44       13.5150  -21.0560   11.3880 O.3     2  T422        0.0000
     24  C45       13.0910  -20.8930   12.8770 C.3     2  T422        0.0000
     25  C46       13.5410  -19.5100   13.3820 C.3     2  T422        0.0000
     26  O7        12.4960  -13.3900   15.7120 O.2     2  T422        0.0000
     27  C7        12.1210  -12.3490   15.1630 C.2     2  T422        0.0000
     28  C8        10.8190  -12.4460   14.4290 C.3     2  T422        0.0000
     29  C8A        9.5810  -12.1440   15.4520 C.3     2  T422        0.0000
     30  C8B        8.5050  -13.4850   15.3010 C.3     2  T422        0.0000
     31  C8C        9.2940  -14.7620   14.5950 C.3     2  T422        0.0000
     32  N9        10.4140  -13.8940   13.9140 N.am    2  T422        0.0000
     33  C1        17.7670  -11.0660   11.0660 C.3     2  T422        0.0000
     34  O2        17.1010  -11.7460   12.1600 O.3     2  T422        0.0000
     35  C2        16.5180  -10.7710   13.0020 C.3     2  T422        0.0000
     36  C3        15.7040  -11.4690   14.0860 C.3     2  T422        0.0000
     37  C4        15.0370  -10.4200   15.0110 C.3     2  T422        0.0000
     38  C5        13.9840  -11.0460   15.9420 C.3     2  T422        0.0000
     39  B         13.6650  -10.2840   17.2480 B       2  T422        0.0000
     40  O1A       12.5150  -10.3710   17.9250 O.2     2  T422        0.0000
     41  O1B       14.7000   -9.8330   18.1060 O.3     2  T422        0.0000
     42  N6        12.7210  -11.1740   15.1450 N.am    2  T422        0.0000
@<TRIPOS>BOND
     1    18    17   ar
     2    18    19   ar
     3    17    16   ar
     4    19    14   ar
     5    16    15   ar
     6    10     9   ar
     7    10    11   ar
     8     9     8   ar
     9    14    15   ar
    10    14     4    1
    11    22    21    1
    12    22    23    1
    13    11    12   ar
    14     8     4    1
    15     8    13   ar
    16     4     3    1
    17    21    20    1
    18    33    34    1
    19    12    13   ar
    20    23    24    1
    21     5     3    1
    22     5     6    1
    23    34    35    1
    24     3     1    1
    25    20     6    1
    26    20    25    1
    27     6     7    1
    28     2     1    2
    29    24    25    1
    30     1    32   am
    31    35    36    1
    32    32    28    1
    33    32    31    1
    34    36    37    1
    35    28    27    1
    36    28    29    1
    37    31    30    1
    38    37    38    1
    39    42    27   am
    40    42    38    1
    41    27    26    2
    42    30    29    1
    43    38    39    1
    44    39    40    2
    45    39    41    1
