@<TRIPOS>MOLECULE
1ai9_NDP_A_1.pdb
 48 52 0 0 0
SMALL
GASTEIGER

@<TRIPOS>ATOM
      1  PA        28.8540   -7.4750   12.6450 P.3   193  NDP193      0.2189
      2  O1A       29.8410   -6.8470   11.7860 O.2   193  NDP193     -0.5170
      3  O2A       27.6120   -6.6670   12.7950 O.3   193  NDP193     -0.4371
      4  O5B       29.4100   -7.6910   14.1240 O.3   193  NDP193     -0.3112
      5  C5B       28.6340   -7.8690   15.3280 C.3   193  NDP193      0.1813
      6  C4B       29.6490   -7.5890   16.4640 C.3   193  NDP193      0.1820
      7  O4B       29.8060   -6.1590   16.5700 O.3   193  NDP193     -0.3136
      8  C3B       29.1370   -8.0650   17.8560 C.3   193  NDP193      0.2157
      9  O3B       29.3260   -9.4870   17.9510 O.3   193  NDP193     -0.2175
     10  C2B       29.9390   -7.1090   18.7660 C.3   193  NDP193      0.2314
     11  O2B       31.3060   -7.3820   19.0840 O.3   193  NDP193     -0.2630
     12  C1B       29.9240   -5.8530   17.9420 C.3   193  NDP193      0.3158
     13  N9A       28.7650   -5.0980   18.2730 N.pl3 193  NDP193     -0.1439
     14  C8A       27.4850   -5.4120   17.8670 C.3   193  NDP193      0.3377
     15  N7A       26.6020   -4.5230   18.2760 N.2   193  NDP193     -0.2095
     16  C5A       27.3800   -3.6050   18.9450 C.2   193  NDP193      0.2526
     17  C6A       27.0170   -2.4090   19.6220 C.2   193  NDP193      0.4393
     18  N6A       25.7290   -2.0860   19.6360 N.pl3 193  NDP193      0.2180
     19  N1A       27.9890   -1.6880   20.1880 N.2   193  NDP193      0.0021
     20  C2A       29.2870   -2.1790   20.1240 C.3   193  NDP193      0.5254
     21  N3A       29.7040   -3.2610   19.5450 N.2   193  NDP193     -0.0055
     22  C4A       28.7090   -3.9590   18.9770 C.2   193  NDP193      0.3518
     23  O3        28.4850   -8.9190   12.2560 O.3   193  NDP193     -0.2703
     24  PN        27.2550   -9.8250   11.8030 P.3   193  NDP193      0.2189
     25  O1N       27.6400  -11.2710   11.9020 O.2   193  NDP193     -0.5170
     26  O2N       26.0490   -9.5480   12.6390 O.3   193  NDP193     -0.4371
     27  O5D       26.9580   -9.3900   10.3060 O.3   193  NDP193     -0.3112
     28  C5D       27.7080  -10.0660    9.2630 C.3   193  NDP193      0.1813
     29  C4D       26.7510  -10.2820    8.0740 C.3   193  NDP193      0.1799
     30  O4D       26.5230   -8.9560    7.4910 O.3   193  NDP193     -0.3327
     31  C3D       27.3920  -11.1600    7.0280 C.3   193  NDP193      0.2158
     32  O3D       26.6560  -12.1490    6.3370 O.3   193  NDP193     -0.2175
     33  C2D       27.8790  -10.0690    6.0340 C.3   193  NDP193      0.2309
     34  O2D       28.0050  -10.7130    4.7610 O.3   193  NDP193     -0.2158
     35  C1D       26.7710   -9.0410    6.1180 C.3   193  NDP193      0.2263
     36  N1N       27.1250   -7.6890    5.5780 N.pl3 193  NDP193     -0.2787
     37  C2N       26.4190   -7.2840    4.4560 C.3   193  NDP193      0.1244
     38  C3N       26.6790   -6.0710    3.8770 C.2   193  NDP193      0.0544
     39  C7N       25.8340   -5.6890    2.5870 C.2   193  NDP193      0.2818
     40  O7N       25.9400   -4.6000    2.0700 O.2   193  NDP193     -0.2670
     41  N7N       25.0120   -6.6600    2.1040 N.am  193  NDP193     -0.0839
     42  C4N       27.6460   -5.1850    4.4010 C.2   193  NDP193      0.0033
     43  C5N       28.2600   -5.6600    5.5900 C.2   193  NDP193      0.0157
     44  C6N       28.0720   -6.8760    6.2040 C.2   193  NDP193      0.0633
     45  P2B       31.5920   -8.1360   20.5140 P.3   193  NDP193      0.5328
     46  O1X       33.1500   -8.1970   20.4480 O.3   193  NDP193     -0.1145
     47  O2X       30.9940   -7.3340   21.5290 O.3   193  NDP193     -0.1145
     48  O3X       31.0150   -9.4840   20.3270 O.2   193  NDP193     -0.2224
@<TRIPOS>BOND
     1    40    39    2
     2    41    39   am
     3    39    38    1
     4    38    42    2
     5    38    37    1
     6    42    43    1
     7    37    36    1
     8    34    33    1
     9    36    35    1
    10    36    44    1
    11    43    44    2
    12    33    35    1
    13    33    31    1
    14    35    30    1
    15    32    31    1
    16    31    29    1
    17    30    29    1
    18    29    28    1
    19    28    27    1
    20    27    24    1
    21     2     1    2
    22    24    25    2
    23    24    23    1
    24    24    26    1
    25    23     1    1
    26     1     3    1
    27     1     4    1
    28     4     5    1
    29     5     6    1
    30     6     7    1
    31     6     8    1
    32     7    12    1
    33     8     9    1
    34     8    10    1
    35    14    13    1
    36    14    15    1
    37    12    13    1
    38    12    10    1
    39    13    22    1
    40    15    16    2
    41    10    11    1
    42    16    22    1
    43    16    17    1
    44    22    21    2
    45    11    45    1
    46    21    20    1
    47    17    18    1
    48    17    19    2
    49    20    19    1
    50    48    45    2
    51    46    45    1
    52    45    47    1
