@<TRIPOS>MOLECULE
1aia_PMP_A_1.pdb
 16 16 0 0 0
SMALL
GASTEIGER

@<TRIPOS>ATOM
      1  N1         4.8210   27.3080   26.8860 N.2   411  PMP411     -0.2716
      2  C2         5.9100   26.5430   26.5680 C.2   411  PMP411      0.0662
      3  C2A        6.1300   25.2010   27.2000 C.3   411  PMP411      0.0498
      4  C3         6.7780   27.0620   25.6400 C.3   411  PMP411      0.2065
      5  O3         7.8190   26.3080   25.3390 O.3   411  PMP411     -0.2124
      6  C4         6.5610   28.2950   25.0780 C.2   411  PMP411      0.0062
      7  C4A        7.5040   28.8910   24.0770 C.3   411  PMP411      0.1337
      8  N4A        7.2980   28.7910   22.7490 N.3   411  PMP411     -0.1265
      9  C5         5.4870   29.0030   25.3640 C.2   411  PMP411      0.0060
     10  C6         4.6070   28.5210   26.2960 C.3   411  PMP411      0.1489
     11  C5A        5.2470   30.2890   24.6800 C.3   411  PMP411      0.1774
     12  O4P        4.7080   30.3620   23.4510 O.3   411  PMP411     -0.2656
     13  P          4.7060   31.8010   22.8330 P.3   411  PMP411      0.5329
     14  O1P        4.8030   32.8010   23.9190 O.3   411  PMP411     -0.1145
     15  O2P        5.9320   31.7990   22.0030 O.3   411  PMP411     -0.1145
     16  O3P        3.5060   32.0370   22.0000 O.2   411  PMP411     -0.2224
@<TRIPOS>BOND
     1    16    13    2
     2    15    13    1
     3     8     7    1
     4    13    12    1
     5    13    14    1
     6    12    11    1
     7     7     6    1
     8    11     9    1
     9     6     9    2
    10     6     4    1
    11     5     4    1
    12     9    10    1
    13     4     2    1
    14    10     1    1
    15     2     1    2
    16     2     3    1
