@<TRIPOS>MOLECULE
1aib_PMP_A_1.pdb
 16 16 0 0 0
SMALL
GASTEIGER

@<TRIPOS>ATOM
      1  N1         4.6740   27.3970   26.9690 N.ar  411  PMP411     -0.2452
      2  C2         5.7050   26.5360   26.6680 C.ar  411  PMP411      0.0978
      3  C2A        5.7660   25.2170   27.3230 C.3   411  PMP411      0.0555
      4  C3         6.6120   26.8700   25.6930 C.ar  411  PMP411      0.2063
      5  O3         7.5970   26.0130   25.3660 O.3   411  PMP411     -0.2856
      6  C4         6.4940   28.0520   25.0120 C.ar  411  PMP411      0.0369
      7  C4A        7.4100   28.4330   23.9960 C.3   411  PMP411      0.1386
      8  N4A        7.8610   29.7060   23.9550 N.3   411  PMP411     -0.1261
      9  C5         5.4770   28.9070   25.3280 C.ar  411  PMP411      0.0275
     10  C6         4.5540   28.5860   26.3020 C.ar  411  PMP411      0.0965
     11  C5A        5.3650   30.1490   24.6310 C.3   411  PMP411      0.1816
     12  O4P        4.6060   30.2450   23.5000 O.3   411  PMP411     -0.2653
     13  P          4.5810   31.7690   22.7640 P.3   411  PMP411      0.5329
     14  O1P        3.5110   31.7230   21.7460 O.2   411  PMP411     -0.2224
     15  O2P        5.9000   32.0640   22.1830 O.3   411  PMP411     -0.1145
     16  O3P        4.2750   32.7080   24.0120 O.3   411  PMP411     -0.1145
@<TRIPOS>BOND
     1    14    13    2
     2    15    13    1
     3    13    12    1
     4    13    16    1
     5    12    11    1
     6     8     7    1
     7     7     6    1
     8    11     9    1
     9     6     9   ar
    10     6     4   ar
    11     9    10   ar
    12     5     4    1
    13     4     2   ar
    14    10     1   ar
    15     2     1   ar
    16     2     3    1
