@<TRIPOS>MOLECULE
1aib_AKG_A_1.pdb
 10 9 0 0 0
SMALL
GASTEIGER

@<TRIPOS>ATOM
      1  C1        12.0370   28.1020   24.2680 C.2   412  AKG412      0.3946
      2  O1        13.0320   27.4570   24.6000 O.co2 412  AKG412     -0.2428
      3  O2        10.9290   27.5810   24.1470 O.co2 412  AKG412     -0.2428
      4  C2        12.1470   29.4560   24.0430 C.3   412  AKG412      0.2545
      5  O5        13.3640   29.8910   24.0660 O.3   412  AKG412     -0.2109
      6  C3        11.0310   30.4570   23.8060 C.3   412  AKG412      0.0565
      7  C4        11.5960   31.7830   23.3690 C.3   412  AKG412      0.1173
      8  C5        10.6410   32.9840   23.3220 C.2   412  AKG412      0.3650
      9  O3        11.0620   34.0110   22.7480 O.co2 412  AKG412     -0.2457
     10  O4         9.4930   32.9100   23.8220 O.co2 412  AKG412     -0.2457
@<TRIPOS>BOND
     1     9     8   ar
     2     8     7    1
     3     8    10   ar
     4     7     6    1
     5     6     4    1
     6     4     5    1
     7     4     1    1
     8     3     1   ar
     9     1     2   ar
