@<TRIPOS>MOLECULE
1aic_PMP_A_1.pdb
 16 16 0 0 0
SMALL
GASTEIGER

@<TRIPOS>ATOM
      1  N1         4.9420   27.3320   26.6070 N.ar  411  PMP411     -0.2452
      2  C2         6.0010   26.5940   26.2080 C.ar  411  PMP411      0.0981
      3  C2A        6.2090   25.2400   26.7930 C.3   411  PMP411      0.0555
      4  C3         6.8830   27.0910   25.2920 C.ar  411  PMP411      0.2104
      5  O3         7.9670   26.3510   24.9610 O.3   411  PMP411     -0.2853
      6  C4         6.6890   28.3590   24.7460 C.ar  411  PMP411      0.0610
      7  C4A        7.5470   28.8730   23.7720 C.2   411  PMP411      0.1251
      8  N4A        8.4760   29.6380   24.0920 N.2   411  PMP411     -0.1463
      9  C5         5.6240   29.1220   25.1880 C.ar  411  PMP411      0.0317
     10  C6         4.7390   28.6010   26.1000 C.ar  411  PMP411      0.0968
     11  C5A        5.4340   30.4880   24.6420 C.3   411  PMP411      0.1819
     12  O4P        5.0580   30.6200   23.3890 O.3   411  PMP411     -0.2653
     13  P          4.9740   32.0690   22.7990 P.3   411  PMP411      0.5329
     14  O1P        6.2890   32.3310   22.1780 O.3   411  PMP411     -0.1145
     15  O2P        4.4330   33.0510   23.7500 O.3   411  PMP411     -0.1145
     16  O3P        3.8500   31.9370   21.7260 O.2   411  PMP411     -0.2224
@<TRIPOS>BOND
     1    16    13    2
     2    14    13    1
     3    13    12    1
     4    13    15    1
     5    12    11    1
     6     7     8    2
     7     7     6    1
     8    11     9    1
     9     6     9   ar
    10     6     4   ar
    11     5     4    1
    12     9    10   ar
    13     4     2   ar
    14    10     1   ar
    15     2     1   ar
    16     2     3    1
