@<TRIPOS>MOLECULE
1aid_THK_B_1.pdb
 29 32 0 0 0
SMALL
GASTEIGER

@<TRIPOS>ATOM
      1  N1        63.8400   38.1860    0.2080 N.3   201  THK201     -0.2725
      2  C2        64.9660   37.9320    1.1280 C.3   201  THK201      0.0750
      3  C3        64.4870   37.5930    2.5450 C.3   201  THK201      0.0520
      4  C4        63.4750   38.6190    3.0900 C.3   201  THK201      0.1480
      5  O19       64.0940   39.9020    3.1010 O.3   201  THK201     -0.2211
      6  C5        62.2980   38.6900    2.1020 C.3   201  THK201      0.0520
      7  C6        62.7860   39.0910    0.7070 C.3   201  THK201      0.0750
      8  C7        64.2990   38.7080   -1.0960 C.3   201  THK201      0.0722
      9  C8        65.1080   37.6800   -1.8950 C.3   201  THK201      0.0194
     10  C9        66.1910   38.4350   -2.6840 C.3   201  THK201      0.0257
     11  C10       66.4920   37.7880   -4.0510 C.3   201  THK201      0.0967
     12  C12       65.3550   37.8840   -4.9100 C.ar  201  THK201     -0.0042
     13  C13       64.9660   39.1330   -5.4240 C.ar  201  THK201     -0.0004
     14  C14       63.7880   39.2780   -6.1630 C.ar  201  THK201      0.0294
     15  C15       62.9840   38.1650   -6.4090 C.ar  201  THK201      0.1401
     16  F18       61.8000   38.3040   -7.0750 F     201  THK201     -0.2042
     17  C16       63.3860   36.9110   -5.9410 C.ar  201  THK201      0.0294
     18  C17       64.5670   36.7620   -5.2050 C.ar  201  THK201     -0.0004
     19  C20       63.1190   38.3480    4.4490 C.ar  201  THK201      0.0052
     20  C21       64.1340   38.1280    5.4000 C.ar  201  THK201     -0.0011
     21  C22       63.8320   37.7680    6.7150 C.ar  201  THK201      0.0111
     22  C23       62.5010   37.6390    7.1130 C.ar  201  THK201      0.0577
     23 CL6        62.1440   37.0960    8.7360 Cl    201  THK201     -0.0822
     24  C24       61.4750   37.8990    6.1890 C.ar  201  THK201      0.0111
     25  C25       61.7790   38.2660    4.8680 C.ar  201  THK201     -0.0011
     26  S51       66.9760   36.0570   -3.7650 S.3   201  THK201     -0.1267
     27  C52       68.3990   36.0000   -4.8960 C.3   201  THK201      0.0703
     28  C55       68.8510   37.3620   -5.4300 C.3   201  THK201      0.0703
     29  S58       67.8790   38.7380   -4.7840 S.3   201  THK201     -0.1267
@<TRIPOS>BOND
     1    16    15    1
     2    15    14   ar
     3    15    17   ar
     4    14    13   ar
     5    17    18   ar
     6    28    27    1
     7    28    29    1
     8    13    12   ar
     9    18    12   ar
    10    12    11    1
    11    27    26    1
    12    29    11    1
    13    11    26    1
    14    11    10    1
    15    10     9    1
    16     9     8    1
    17     8     1    1
    18     1     7    1
    19     1     2    1
    20     7     6    1
    21     2     3    1
    22     6     4    1
    23     3     4    1
    24     4     5    1
    25     4    19    1
    26    19    25   ar
    27    19    20   ar
    28    25    24   ar
    29    20    21   ar
    30    24    22   ar
    31    21    22   ar
    32    22    23    1
