@<TRIPOS>MOLECULE
1aij_U10_L_1.pdb
 44 44 0 0 0
SMALL
GASTEIGER

@<TRIPOS>ATOM
      1  C1        77.2000  106.4970   41.2120 C.2   286  U10286      0.0198
      2  C2        78.3110  107.2770   40.8380 C.2   286  U10286      0.2282
      3  C3        78.1620  108.5500   40.2690 C.2   286  U10286      0.2140
      4  C4        76.8720  109.0730   40.0950 C.2   286  U10286      0.2140
      5  C5        75.7510  108.3060   40.4850 C.2   286  U10286      0.2285
      6  C6        75.8910  107.0130   41.0350 C.2   286  U10286      0.0235
      7  C1M       77.4580  105.0860   41.7420 C.3   286  U10286      0.0343
      8  C3M       79.7780  110.4650   40.2120 C.3   286  U10286      0.2528
      9  C4M       76.3000  111.4600   40.1990 C.3   286  U10286      0.2528
     10  C7        74.6190  106.1950   41.3270 C.3   286  U10286      0.0548
     11  C8        74.4320  105.9230   42.7520 C.2   286  U10286     -0.0298
     12  C9        74.0990  104.6540   43.2330 C.2   286  U10286     -0.0475
     13  C10       73.9010  103.4850   42.2720 C.3   286  U10286      0.0260
     14  C11       73.9120  104.3610   44.7240 C.3   286  U10286      0.0264
     15  C12       75.0220  104.8480   45.6570 C.3   286  U10286      0.0297
     16  C13       76.2150  104.0150   45.5600 C.2   286  U10286     -0.0342
     17  C14       76.8760  103.4790   46.6550 C.2   286  U10286     -0.0478
     18  C15       76.3720  103.7070   48.0790 C.3   286  U10286      0.0260
     19  C16       78.1160  102.6170   46.4550 C.3   286  U10286      0.0263
     20  C17       79.3030  103.3270   45.8020 C.3   286  U10286      0.0297
     21  C18       80.5380  102.9340   46.4810 C.2   286  U10286     -0.0342
     22  C19       81.5120  102.1030   45.9310 C.2   286  U10286     -0.0478
     23  C20       81.3480  101.5160   44.5310 C.3   286  U10286      0.0260
     24  C21       82.7720  101.7000   46.6970 C.3   286  U10286      0.0263
     25  C22       83.1100  102.4680   47.9730 C.3   286  U10286      0.0297
     26  C23       84.5530  102.4100   48.1580 C.2   286  U10286     -0.0342
     27  C24       85.2170  102.7330   49.3290 C.2   286  U10286     -0.0478
     28  C25       84.4390  103.1770   50.5660 C.3   286  U10286      0.0260
     29  C26       86.7390  102.6050   49.3690 C.3   286  U10286      0.0263
     30  C27       87.4840  103.7320   50.0800 C.3   286  U10286      0.0297
     31  C28       88.9200  103.4380   50.1630 C.2   286  U10286     -0.0342
     32  C29       89.6420  103.3330   51.3500 C.2   286  U10286     -0.0478
     33  C30       88.9380  103.5330   52.6920 C.3   286  U10286      0.0260
     34  C31       91.1500  103.0560   51.3070 C.3   286  U10286      0.0263
     35  C32       91.7770  102.3160   52.4980 C.3   286  U10286      0.0297
     36  C33       92.5350  103.2400   53.3440 C.2   286  U10286     -0.0343
     37  C34       92.5000  103.2250   54.7330 C.2   286  U10286     -0.0482
     38  C35       91.6540  102.2000   55.4890 C.3   286  U10286      0.0260
     39  C36       93.3210  104.2410   55.5230 C.3   286  U10286      0.0217
     40  C37       92.6230  104.8010   56.7620 C.3   286  U10286      0.0047
     41  O2        79.4440  106.8400   41.0480 O.2   286  U10286     -0.2836
     42  O3        79.2940  109.2060   39.7730 O.2   286  U10286     -0.4652
     43  O4        76.7200  110.3170   39.4760 O.2   286  U10286     -0.4652
     44  O5        74.6160  108.7770   40.3530 O.2   286  U10286     -0.2835
@<TRIPOS>BOND
     1    43     4    1
     2    43     9    1
     3    42     8    1
     4    42     3    1
     5     4     3    2
     6     4     5    1
     7     3     2    1
     8    44     5    2
     9     5     6    1
    10     2    41    2
    11     2     1    1
    12     6     1    2
    13     6    10    1
    14     1     7    1
    15    10    11    1
    16    13    12    1
    17    11    12    2
    18    12    14    1
    19    23    22    1
    20    14    15    1
    21    16    15    1
    22    16    17    2
    23    20    19    1
    24    20    21    1
    25    22    21    2
    26    22    24    1
    27    19    17    1
    28    17    18    1
    29    24    25    1
    30    25    26    1
    31    26    27    2
    32    27    29    1
    33    27    28    1
    34    29    30    1
    35    30    31    1
    36    31    32    2
    37    34    32    1
    38    34    35    1
    39    32    33    1
    40    35    36    1
    41    36    37    2
    42    37    38    1
    43    37    39    1
    44    39    40    1
