@<TRIPOS>MOLECULE
1aim_ZYA_A_1.pdb
 31 32 0 0 0
SMALL
GASTEIGER

@<TRIPOS>ATOM
      1  C1        97.4010   20.9150  -15.5040 C.2   280  ZYA280      0.4023
      2  O1        97.9350   21.9950  -15.2760 O.2   280  ZYA280     -0.2264
      3  O2        96.8650   20.6150  -16.7770 O.3   280  ZYA280     -0.4297
      4  C2        96.9470   21.5490  -17.8370 C.3   280  ZYA280      0.2367
      5  C3        97.0010   21.6060  -19.3450 C.ar  280  ZYA280      0.0213
      6  C4        95.8970   21.1120  -20.0470 C.ar  280  ZYA280     -0.0007
      7  C5        95.9790   20.9700  -21.4310 C.ar  280  ZYA280     -0.0002
      8  C6        97.1540   21.3210  -22.1010 C.ar  280  ZYA280     -0.0000
      9  C7        98.2450   21.8300  -21.3920 C.ar  280  ZYA280     -0.0002
     10  C8        98.1770   21.9800  -20.0050 C.ar  280  ZYA280     -0.0007
     11  N1        97.9310   19.8140  -14.9800 N.am  280  ZYA280     -0.2637
     12  CA1       98.5160   19.7080  -13.6600 C.3   280  ZYA280      0.1557
     13  C         99.9430   20.2170  -13.6850 C.2   280  ZYA280      0.2443
     14  O        100.8650   19.5840  -14.2170 O.2   280  ZYA280     -0.2730
     15  CB1       98.4740   18.2300  -13.2010 C.3   280  ZYA280      0.0554
     16  CG        97.1040   17.6160  -13.4290 C.ar  280  ZYA280     -0.0198
     17  CD1       95.9720   18.2760  -12.9460 C.ar  280  ZYA280     -0.0011
     18  CD2       96.9760   16.4550  -14.1930 C.ar  280  ZYA280     -0.0011
     19  CE1       94.6970   17.7940  -13.2200 C.ar  280  ZYA280      0.0363
     20  CE2       95.7030   15.9610  -14.4710 C.ar  280  ZYA280      0.0363
     21  CZ        94.5780   16.6390  -13.9920 C.ar  280  ZYA280      0.1337
     22  OH        93.3340   16.1490  -14.2640 O.3   280  ZYA280     -0.5055
     23  N2       100.1130   21.0880  -12.6930 N.am  280  ZYA280     -0.2836
     24  CA2      101.4250   21.4260  -12.1800 C.2   280  ZYA280      0.0628
     25  CT       102.2980   20.3990  -11.4720 C.2   280  ZYA280      0.1827
     26  OT       103.5390   20.4490  -11.5180 O.2   280  ZYA280     -0.2904
     27  CB2      101.9150   22.8450  -12.3030 C.3   280  ZYA280      0.0503
     28  CM       101.8560   19.1800  -10.6880 C.3   280  ZYA280      0.0783
     29  HN1       98.0390   19.0490  -15.5840 H     280  ZYA280      0.1532
     30  HO        92.6080   16.6580  -13.9100 H     280  ZYA280      0.2922
     31  HN2       99.3850   21.7460  -12.6190 H     280  ZYA280      0.1547
@<TRIPOS>BOND
     1     8     7   ar
     2     8     9   ar
     3     7     6   ar
     4     9    10   ar
     5     6     5   ar
     6    10     5   ar
     7     5     4    1
     8     4     3    1
     9     3     1    1
    10    29    11    1
    11     1     2    2
    12     1    11   am
    13    11    12    1
    14    20    18   ar
    15    20    21   ar
    16    22    21    1
    17    22    30    1
    18    14    13    2
    19    18    16   ar
    20    21    19   ar
    21    13    12    1
    22    13    23   am
    23    12    15    1
    24    16    15    1
    25    16    17   ar
    26    19    17   ar
    27    23    31    1
    28    23    24    2
    29    27    24    1
    30    24    25    1
    31    26    25    2
    32    25    28    1
