@<TRIPOS>MOLECULE
1aiq_UMP_A_1.pdb
 20 21 0 0 0
SMALL
GASTEIGER

@<TRIPOS>ATOM
      1  N1        17.2270   19.9810   31.1770 N.am  265  UMP265     -0.2018
      2  C2        18.1210   19.8230   32.2560 C.1   265  UMP265      0.2802
      3  N3        19.0440   18.8460   32.2030 N.2   265  UMP265     -0.2497
      4  C4        19.2290   17.9160   31.2090 C.1   265  UMP265      0.1941
      5  C5        18.2950   18.0900   30.1380 C.3   265  UMP265      0.1579
      6  C6        17.6080   19.2900   30.1210 C.3   265  UMP265      0.1249
      7  O2        18.1760   20.5110   33.2720 O.2   265  UMP265     -0.1922
      8  O4        20.0750   17.0340   31.2020 O.2   265  UMP265     -0.2133
      9  C1'       16.1970   20.9920   31.1040 C.3   265  UMP265      0.2048
     10  C2'       16.6380   22.4180   30.7450 C.3   265  UMP265      0.0871
     11  C3'       15.2750   22.9820   30.2910 C.3   265  UMP265      0.1857
     12  C4'       14.7730   21.9010   29.3040 C.3   265  UMP265      0.1774
     13  O3'       14.3770   23.2070   31.3640 O.3   265  UMP265     -0.2203
     14  O4'       15.1200   20.6750   30.1330 O.3   265  UMP265     -0.3342
     15  C5'       15.1500   21.8310   27.8780 C.3   265  UMP265      0.1858
     16  O5'       14.4510   22.4690   26.8570 O.3   265  UMP265     -0.2675
     17  P         14.8320   23.6340   25.8260 P.3   265  UMP265      0.5327
     18  OP1       13.4510   24.2140   25.4730 O.3   265  UMP265     -0.1145
     19  OP2       15.7270   24.5880   26.6170 O.3   265  UMP265     -0.1145
     20  OP3       15.4970   23.1080   24.5910 O.2   265  UMP265     -0.2224
@<TRIPOS>BOND
     1    20    17    2
     2    18    17    1
     3    17    19    1
     4    17    16    1
     5    16    15    1
     6    15    12    1
     7    12    14    1
     8    12    11    1
     9     6     5    1
    10     6     1    1
    11    14     9    1
    12     5     4    1
    13    11    10    1
    14    11    13    1
    15    10     9    1
    16     9     1    1
    17     1     2   am
    18     8     4    2
    19     4     3    2
    20     3     2    2
    21     2     7    2
