@<TRIPOS>MOLECULE
1aiq_CB3_A_1.pdb
 35 37 0 0 0
SMALL
GASTEIGER

@<TRIPOS>ATOM
      1  N1        12.9850   18.1920   30.7170 N.2   266  CB3266     -0.3245
      2  C2        12.8210   19.0250   31.6600 C.1   266  CB3266      0.2518
      3  NA2       11.8120   20.0450   31.5440 N.pl3 266  CB3266     -0.0226
      4  N3        13.5520   19.0040   32.8010 N.2   266  CB3266     -0.2501
      5  C4        14.4920   18.0710   32.9630 C.1   266  CB3266      0.2180
      6  O4        15.1320   18.0920   34.0250 O.2   266  CB3266     -0.2085
      7  C4A       14.6810   17.1580   31.9820 C.2   266  CB3266      0.1220
      8  C5        15.6250   16.1820   32.1240 C.2   266  CB3266     -0.0051
      9  C6        15.7360   15.2750   31.0750 C.3   266  CB3266      0.0646
     10  C7        14.9670   15.3570   29.9330 C.2   266  CB3266     -0.0177
     11  C8        14.0850   16.3380   29.8410 C.2   266  CB3266      0.0296
     12  C8A       13.9270   17.2370   30.8550 C.2   266  CB3266      0.1564
     13  C9        16.6700   14.1460   31.0410 C.3   266  CB3266      0.1004
     14  N10       16.8560   13.4860   32.3900 N.pl3 266  CB3266     -0.2959
     15  C11       14.0100   13.0890   35.4640 C.ar  266  CB3266      0.0551
     16  C12       15.3290   13.2570   35.8200 C.ar  266  CB3266      0.0058
     17  C13       16.2960   13.3890   34.7670 C.ar  266  CB3266      0.0147
     18  C14       15.8610   13.3580   33.4510 C.ar  266  CB3266      0.0486
     19  C15       14.5530   13.1840   33.1590 C.ar  266  CB3266      0.0147
     20  C16       13.5660   13.0470   34.1860 C.ar  266  CB3266      0.0058
     21  C         12.8860   12.9110   36.4700 C.2   266  CB3266      0.2652
     22  O         11.7410   12.5720   36.1720 O.2   266  CB3266     -0.2684
     23  N         13.3610   12.5930   37.6900 N.am  266  CB3266     -0.1918
     24  CA        12.3370   12.2760   38.6540 C.3   266  CB3266      0.1986
     25  CB        11.9410   10.7670   38.5450 C.3   266  CB3266      0.0451
     26  CG        13.2030   10.0100   38.9750 C.3   266  CB3266      0.1164
     27  CD        13.0680    8.5680   38.3770 C.2   266  CB3266      0.3649
     28  OE1       14.1160    7.8090   38.5170 O.co2 266  CB3266     -0.2457
     29  OE2       12.1360    8.1560   37.6390 O.co2 266  CB3266     -0.2457
     30  CT        12.8070   12.5700   40.0790 C.2   266  CB3266      0.3842
     31  O1        13.9720   13.0040   40.1850 O.co2 266  CB3266     -0.2437
     32  O2        11.9560   12.7700   40.9410 O.co2 266  CB3266     -0.2437
     33  CP1       18.2390   13.4820   32.9450 C.3   266  CB3266      0.1695
     34  CP2       18.6820   14.7480   33.5940 C.1   266  CB3266     -0.0557
     35  CP3       19.0390   15.7710   34.1360 C.1   266  CB3266     -0.0124
@<TRIPOS>BOND
     1    11    10    2
     2    11    12    1
     3    10     9    1
     4     1    12    2
     5     1     2    2
     6    12     7    1
     7    13     9    1
     8    13    14    1
     9     9     8    1
    10     3     2    1
    11     2     4    2
    12     7     8    2
    13     7     5    1
    14    14    33    1
    15    14    18    1
    16     4     5    2
    17    33    34    1
    18     5     6    2
    19    19    18   ar
    20    19    20   ar
    21    18    17   ar
    22    34    35    3
    23    20    15   ar
    24    17    16   ar
    25    15    16   ar
    26    15    21    1
    27    22    21    2
    28    21    23   am
    29    29    27   ar
    30    23    24    1
    31    27    28   ar
    32    27    26    1
    33    25    24    1
    34    25    26    1
    35    24    30    1
    36    30    31   ar
    37    30    32   ar
