@<TRIPOS>MOLECULE
1aix_T19_H_1.pdb
 42 45 0 0 0
SMALL
GASTEIGER

@<TRIPOS>ATOM
      1  C13       16.2370  -17.5550   23.0910 C.2     3  T193        0.0000
      2  O13       17.1010  -18.0090   22.3110 O.2     3  T193        0.0000
      3  O14       14.9040  -17.7080   23.2540 O.3     3  T193        0.0000
      4  C15       14.5890  -18.9630   22.7230 C.3     3  T193        0.0000
      5  C41       14.8400  -20.0240   23.7980 C.ar    3  T193        0.0000
      6  C42       13.7770  -20.5950   24.4980 C.ar    3  T193        0.0000
      7  C43       14.0510  -21.6170   25.4180 C.ar    3  T193        0.0000
      8  C44       15.3650  -22.0550   25.6320 C.ar    3  T193        0.0000
      9  C45       16.4200  -21.4710   24.9240 C.ar    3  T193        0.0000
     10  C46       16.1570  -20.4500   24.0080 C.ar    3  T193        0.0000
     11  C32       18.6150  -17.9100   25.3120 C.ar    3  T193        0.0000
     12  C33       18.4670  -19.0830   26.1900 C.ar    3  T193        0.0000
     13  C34       17.9310  -18.9090   27.5340 C.ar    3  T193        0.0000
     14  C35       17.6180  -17.5800   27.9720 C.ar    3  T193        0.0000
     15  C36       17.7730  -16.4300   27.0860 C.ar    3  T193        0.0000
     16  C31       18.2700  -16.5740   25.7600 C.ar    3  T193        0.0000
     17  C11       18.3260  -15.3110   24.8870 C.3     3  T193        0.0000
     18  C10       17.8400  -15.5290   23.4130 C.3     3  T193        0.0000
     19  C9        17.7210  -14.2390   22.5960 C.2     3  T193        0.0000
     20  O9        16.5860  -13.4750   23.0020 O.2     3  T193        0.0000
     21  N12       16.5580  -16.1770   23.5440 N.am    3  T193        0.0000
     22  C21       19.7710  -14.7560   24.9430 C.ar    3  T193        0.0000
     23  C26       20.8200  -15.3620   24.1090 C.ar    3  T193        0.0000
     24  C25       22.1490  -14.7850   24.1390 C.ar    3  T193        0.0000
     25  C24       22.4090  -13.6410   24.9650 C.ar    3  T193        0.0000
     26  C23       21.3620  -13.0800   25.7840 C.ar    3  T193        0.0000
     27  C22       20.0360  -13.6420   25.7680 C.ar    3  T193        0.0000
     28  O6        16.1420  -13.7280   20.1000 O.2     3  T193        0.0000
     29  C6        16.8150  -12.3360   20.4540 C.2     3  T193        0.0000
     30  C7        18.1980  -12.3850   21.0010 C.3     3  T193        0.0000
     31  C7A       19.3100  -12.3400   19.7690 C.3     3  T193        0.0000
     32  C7B       20.3770  -13.6290   20.1180 C.3     3  T193        0.0000
     33  C7C       19.7480  -14.7280   21.1410 C.3     3  T193        0.0000
     34  N8        18.5770  -13.8030   21.6690 N.am    3  T193        0.0000
     35  N5        15.8930  -11.4650   20.5820 N.am    3  T193        0.0000
     36  C4        14.4760  -11.6460   20.1310 C.3     3  T193        0.0000
     37  C3        13.7540  -10.3190   20.4330 C.3     3  T193        0.0000
     38  C1        12.3970  -10.0860   19.7850 C.3     3  T193        0.0000
     39  C2        13.5060  -10.1420   21.9490 C.3     3  T193        0.0000
     40  B         14.4490  -12.0220   18.6200 B       3  T193        0.0000
     41  O1B       15.6240  -11.7380   17.9930 O.3     3  T193        0.0000
     42  O1A       14.1960  -13.3720   18.4970 O.3     3  T193        0.0000
@<TRIPOS>BOND
     1    41    40    1
     2    42    40    1
     3    40    36    1
     4    31    32    1
     5    31    30    1
     6    38    37    1
     7    28    29    2
     8    32    33    1
     9    36    37    1
    10    36    35    1
    11    37    39    1
    12    29    35   am
    13    29    30    1
    14    30    34    1
    15    33    34    1
    16    34    19   am
    17     2     1    2
    18    19    20    2
    19    19    18    1
    20     4     3    1
    21     4     5    1
    22     1     3    1
    23     1    21   am
    24    18    21    1
    25    18    17    1
    26     5    10   ar
    27     5     6   ar
    28    10     9   ar
    29    23    24   ar
    30    23    22   ar
    31    24    25   ar
    32     6     7   ar
    33    17    22    1
    34    17    16    1
    35     9     8   ar
    36    22    27   ar
    37    25    26   ar
    38    11    16   ar
    39    11    12   ar
    40     7     8   ar
    41    16    15   ar
    42    27    26   ar
    43    12    13   ar
    44    15    14   ar
    45    13    14   ar
