@<TRIPOS>MOLECULE
1aiy_IPH_B_1.pdb
 13 13 0 0 0
SMALL
GASTEIGER

@<TRIPOS>ATOM
      1  C1        10.9950    3.4440   -4.7320 C.ar   32  IPH32       0.1169
      2  C2         9.6620    3.0840   -4.5040 C.ar   32  IPH32      -0.0202
      3  C3         8.7580    3.0340   -5.5720 C.ar   32  IPH32      -0.0583
      4  C4         9.1870    3.3440   -6.8680 C.ar   32  IPH32      -0.0615
      5  C5        10.5200    3.7040   -7.0970 C.ar   32  IPH32      -0.0583
      6  C6        11.4250    3.7540   -6.0290 C.ar   32  IPH32      -0.0202
      7  O1        11.8860    3.4940   -3.6790 O.3    32  IPH32      -0.5068
      8  H2         9.3310    2.8450   -3.5040 H      32  IPH32       0.0654
      9  H3         7.7290    2.7560   -5.3960 H      32  IPH32       0.0619
     10  H4         8.4900    3.3060   -7.6910 H      32  IPH32       0.0618
     11  H5        10.8510    3.9430   -8.0960 H      32  IPH32       0.0619
     12  H6        12.4530    4.0330   -6.2050 H      32  IPH32       0.0654
     13  HO1       11.6340    2.8170   -3.0470 H      32  IPH32       0.2921
@<TRIPOS>BOND
     1    11     5    1
     2    10     4    1
     3     5     4   ar
     4     5     6   ar
     5     4     3   ar
     6    12     6    1
     7     6     1   ar
     8     3     9    1
     9     3     2   ar
    10     1     2   ar
    11     1     7    1
    12     2     8    1
    13     7    13    1
