@<TRIPOS>MOLECULE
1aj0_SAN_A_1.pdb
 11 11 0 0 0
SMALL
GASTEIGER

@<TRIPOS>ATOM
      1  C1        43.2220    7.0140    2.3340 C.ar  561  SAN561      0.0892
      2  N1        44.2960    6.1460    2.5490 N.pl3 561  SAN561     -0.1281
      3  C2        43.0800    7.7190    1.1380 C.ar  561  SAN561      0.0194
      4  C3        41.9860    8.5740    0.9920 C.ar  561  SAN561      0.0214
      5  C4        41.1100    8.6700    2.0950 C.ar  561  SAN561      0.1251
      6  C5        41.2110    7.9590    3.2830 C.ar  561  SAN561      0.0214
      7  C6        42.3100    7.1490    3.3980 C.ar  561  SAN561      0.0194
      8  S         39.7490    9.7160    1.9990 S.O2  561  SAN561      0.0935
      9  N2        38.6150    8.7020    1.9710 N.3   561  SAN561      0.0392
     10  O1        39.7780   10.7560    3.1830 O.2   561  SAN561     -0.1503
     11  O2        39.6720   10.5370    0.6910 O.2   561  SAN561     -0.1503
@<TRIPOS>BOND
     1    11     8    2
     2     4     3   ar
     3     4     5   ar
     4     3     1   ar
     5     9     8    1
     6     8     5    1
     7     8    10    2
     8     5     6   ar
     9     1     2    1
    10     1     7   ar
    11     6     7   ar
