@<TRIPOS>MOLECULE
1aj0_PH2_A_1.pdb
 14 15 0 0 0
SMALL
GASTEIGER

@<TRIPOS>ATOM
      1  N1        41.7380    3.4230    6.6280 N.2   559  PH2559     -0.3830
      2  C2        42.3380    4.5320    6.8100 C.2   559  PH2559      0.1470
      3  C3        42.7330    4.9310    8.1820 C.3   559  PH2559      0.1940
      4  N4        42.5010    3.9560    9.2810 N.2   559  PH2559     -0.1992
      5  N5        41.6090    1.8430    9.9960 N.2   559  PH2559     -0.2672
      6  C6        41.0460    0.7420    9.7040 C.1   559  PH2559      0.2609
      7  N6        40.8640   -0.0980   10.7250 N.pl3 559  PH2559     -0.0220
      8  N7        40.6280    0.4560    8.4760 N.2   559  PH2559     -0.2466
      9  C8        40.8580    1.2290    7.4570 C.1   559  PH2559      0.2569
     10  O8        40.5660    1.0400    6.2720 O.2   559  PH2559     -0.2052
     11  C9        41.5210    2.5340    7.7420 C.2   559  PH2559      0.2989
     12  C10       41.9000    2.8200    8.9920 C.1   559  PH2559      0.1401
     13  C11       42.5050    5.5000    5.6640 C.3   559  PH2559      0.2380
     14  O4        43.4510    6.5370    5.9300 O.3   559  PH2559     -0.2126
@<TRIPOS>BOND
     1    13    14    1
     2    13     2    1
     3    10     9    2
     4     1     2    2
     5     1    11    2
     6     2     3    1
     7     9    11    1
     8     9     8    2
     9    11    12    1
    10     3     4    1
    11     8     6    2
    12    12     4    2
    13    12     5    2
    14     6     5    2
    15     6     7    1
