@<TRIPOS>MOLECULE
1aj2_2PH_A_1.pdb
 22 23 0 0 0
SMALL
GASTEIGER

@<TRIPOS>ATOM
      1  N1        41.3480    3.4140    6.7740 N.2   283  2PH283     -0.3831
      2  C2        42.0050    4.5320    6.9410 C.2   283  2PH283      0.1441
      3  C3        42.6320    4.9630    8.2010 C.3   283  2PH283      0.1939
      4  N4        42.3410    4.0470    9.2700 N.2   283  2PH283     -0.1992
      5  N5        41.3560    1.9750   10.1770 N.2   283  2PH283     -0.2672
      6  C6        40.7760    0.8070    9.9050 C.1   283  2PH283      0.2609
      7  N6        40.5370   -0.0980   10.9010 N.pl3 283  2PH283     -0.0220
      8  N7        40.3560    0.4620    8.6060 N.2   283  2PH283     -0.2466
      9  C8        40.5790    1.3000    7.5250 C.1   283  2PH283      0.2569
     10  O8        40.3440    0.9330    6.3660 O.2   283  2PH283     -0.2052
     11  C9        41.1470    2.5250    7.8080 C.2   283  2PH283      0.2989
     12  C10       41.5910    2.8450    9.1520 C.1   283  2PH283      0.1401
     13  C11       42.1240    5.4530    5.8120 C.3   283  2PH283      0.2051
     14  O4        43.0430    6.4830    6.2050 O.3   283  2PH283     -0.3064
     15  P1        43.1700    7.8600    5.4350 P.3   283  2PH283      0.2234
     16  O1P       44.3590    8.5690    6.0270 O.3   283  2PH283     -0.4370
     17  O2P       43.0870    7.5320    3.9880 O.2   283  2PH283     -0.5169
     18  O3P       41.8700    8.6030    5.8890 O.3   283  2PH283     -0.2261
     19  P2        40.5240    8.8240    6.5760 P.3   283  2PH283      0.5373
     20  O4P       39.9510   10.1400    6.2650 O.2   283  2PH283     -0.2221
     21  O5P       40.7600    8.8790    8.0940 O.3   283  2PH283     -0.1143
     22  O6P       39.5510    7.7330    6.3270 O.3   283  2PH283     -0.1143
@<TRIPOS>BOND
     1    17    15    2
     2    15    18    1
     3    15    16    1
     4    15    14    1
     5    13    14    1
     6    13     2    1
     7    18    19    1
     8    20    19    2
     9    22    19    1
    10    10     9    2
    11    19    21    1
    12     1     2    2
    13     1    11    2
    14     2     3    1
    15     9    11    1
    16     9     8    2
    17    11    12    1
    18     3     4    1
    19     8     6    2
    20    12     4    2
    21    12     5    2
    22     6     5    2
    23     6     7    1
