@<TRIPOS>MOLECULE
1aj6_NOV_A_1.pdb
 44 47 0 0 0
SMALL
GASTEIGER

@<TRIPOS>ATOM
      1  C1        60.2080   -1.1770   37.8380 C.3     1  NOV1        0.1743
      2  O1        60.3090   -2.4250   37.1380 O.3     1  NOV1       -0.3474
      3  N1        58.4870   -3.0220   41.3780 N.am    1  NOV1       -0.0475
      4  C12       58.5440   -3.8040   40.3320 C.2     1  NOV1        0.4411
      5  O4        58.7060   -4.9860   40.4060 O.2     1  NOV1       -0.2228
      6  O5        58.4500   -3.1640   39.1960 O.3     1  NOV1       -0.4307
      7  C27       59.0250   -2.9850   36.8350 C.3     1  NOV1        0.1826
      8  C28       58.5870   -3.9190   37.9570 C.3     1  NOV1        0.2362
      9  C29       57.1810   -4.3810   37.6050 C.3     1  NOV1        0.2636
     10  O6        56.2950   -3.2810   37.7570 O.3     1  NOV1       -0.2123
     11  C30       57.1980   -5.0740   36.2490 C.3     1  NOV1        0.3228
     12  O7        57.7020   -4.2550   35.1850 O.3     1  NOV1       -0.3209
     13  C31       58.9310   -3.5770   35.4010 C.3     1  NOV1        0.1248
     14  C23       60.1340   -4.5170   35.1500 C.3     1  NOV1        0.0324
     15  C26       58.8800   -2.4100   34.3740 C.3     1  NOV1        0.0324
     16  O8        58.1130   -6.1070   36.5160 O.3     1  NOV1       -0.4507
     17  C3        58.2370   -7.1590   35.6250 C.ar    1  NOV1        0.1403
     18  C4        59.0090   -8.1900   36.1540 C.ar    1  NOV1        0.0469
     19  C2        59.6180   -8.1800   37.4960 C.3     1  NOV1        0.0374
     20  C5        59.1650   -9.3130   35.4250 C.ar    1  NOV1        0.1507
     21  C9        58.6370   -9.4340   34.1250 C.ar    1  NOV1        0.0750
     22  C10       57.7990   -8.4310   33.5990 C.ar    1  NOV1        0.0094
     23  C11       57.5800   -7.2840   34.3710 C.ar    1  NOV1        0.0370
     24  O10       59.9600  -10.2950   36.0390 O.2     1  NOV1       -0.4202
     25  C6        60.2710  -11.3850   35.3620 C.ar    1  NOV1        0.3645
     26  O11       61.0220  -12.2030   35.7970 O.2     1  NOV1       -0.2429
     27  C7        59.7300  -11.5880   33.9960 C.ar    1  NOV1        0.1882
     28  C8        58.9640  -10.6720   33.3960 C.ar    1  NOV1        0.2201
     29  O9        58.5030  -10.8790   32.1470 O.3     1  NOV1       -0.2848
     30  N2        59.9720  -12.8740   33.3740 N.am    1  NOV1       -0.1656
     31  C13       60.9640  -13.2710   32.5620 C.2     1  NOV1        0.2693
     32  O2        60.9380  -14.4120   32.1770 O.2     1  NOV1       -0.2680
     33  C14       62.0440  -12.4090   32.0930 C.ar    1  NOV1        0.0553
     34  C15       61.7860  -11.1750   31.4630 C.ar    1  NOV1        0.0038
     35  C16       62.8800  -10.4360   30.9820 C.ar    1  NOV1        0.0212
     36  C17       64.1750  -10.9130   31.1700 C.ar    1  NOV1        0.1920
     37  O3        65.2390  -10.1760   30.7190 O.3     1  NOV1       -0.2869
     38  C18       64.4340  -12.1480   31.7980 C.ar    1  NOV1        0.0419
     39  C19       63.3420  -12.9030   32.2510 C.ar    1  NOV1        0.0078
     40  C20       62.6940   -9.0810   30.3490 C.3     1  NOV1        0.0549
     41  C21       62.7960   -7.8970   31.2920 C.2     1  NOV1       -0.0298
     42  C22       61.8120   -7.0620   31.6820 C.2     1  NOV1       -0.0475
     43  C24       62.0520   -5.9260   32.6540 C.3     1  NOV1        0.0260
     44  C25       60.3980   -7.1480   31.1990 C.3     1  NOV1        0.0260
@<TRIPOS>BOND
     1    40    35    1
     2    40    41    1
     3    37    36    1
     4    35    36   ar
     5    35    34   ar
     6    36    38   ar
     7    44    42    1
     8    41    42    2
     9    34    33   ar
    10    42    43    1
    11    38    39   ar
    12    33    39   ar
    13    33    31    1
    14    29    28    1
    15    32    31    2
    16    31    30   am
    17    30    27    1
    18    28    27   ar
    19    28    21   ar
    20    22    21   ar
    21    22    23   ar
    22    27    25   ar
    23    21    20   ar
    24    23    17   ar
    25    15    13    1
    26    14    13    1
    27    12    13    1
    28    12    11    1
    29    25    26    2
    30    25    24   ar
    31    13     7    1
    32    20    24   ar
    33    20    18   ar
    34    17    18   ar
    35    17    16    1
    36    18    19    1
    37    11    16    1
    38    11     9    1
    39     7     2    1
    40     7     8    1
    41     2     1    1
    42     9    10    1
    43     9     8    1
    44     8     6    1
    45     6     4    1
    46     4     5    2
    47     4     3   am
