@<TRIPOS>MOLECULE
1aj7_NPE_H_1.pdb
 32 32 0 0 0
SMALL
GASTEIGER

@<TRIPOS>ATOM
      1  C1        18.2960    6.1420   32.7200 C.ar  217  NPE217      0.1264
      2  N1        18.7590    5.4540   31.5480 N.pl3 217  NPE217      0.0564
      3  O1N       19.5520    6.1800   30.6400 O.2   217  NPE217     -0.1261
      4  O2N       18.3840    4.1060   31.4170 O.2   217  NPE217     -0.1261
      5  C2        18.6450    7.5080   32.9320 C.ar  217  NPE217     -0.0280
      6  C3        18.1990    8.1850   34.0870 C.ar  217  NPE217     -0.0173
      7  C4        17.4080    7.5010   35.0370 C.ar  217  NPE217      0.1301
      8  C5        17.0520    6.1460   34.8330 C.ar  217  NPE217     -0.0173
      9  C6        17.4930    5.4600   33.6840 C.ar  217  NPE217     -0.0280
     10  O3P       17.0220    8.1540   36.2280 O.3   217  NPE217     -0.4225
     11  P         17.8810    7.9590   37.4820 P.3   217  NPE217      0.4084
     12  O1P       19.0780    8.7090   37.2570 O.2   217  NPE217     -0.2417
     13  O2P       18.3010    6.5960   37.5090 O.3   217  NPE217     -0.1301
     14  C7        17.0790    8.4080   39.0270 C.3   217  NPE217      0.0629
     15  C8        17.9070    7.8650   40.1910 C.3   217  NPE217     -0.0405
     16  C9        17.2700    8.0000   41.5820 C.3   217  NPE217     -0.0422
     17  C10       16.7210    6.6450   42.0530 C.3   217  NPE217      0.0492
     18  C11       17.3220    6.0920   43.3420 C.2   217  NPE217      0.3560
     19  O1        18.0430    5.1510   43.4370 O.co2 217  NPE217     -0.2464
     20  O2        16.9010    6.8460   44.3750 O.co2 217  NPE217     -0.2464
     21  H2        19.3000    8.0080   32.2450 H     217  NPE217      0.0641
     22  H3        18.7820    9.0230   34.4210 H     217  NPE217      0.0655
     23  H5        16.3280    5.6840   35.4740 H     217  NPE217      0.0655
     24  H6        17.0340    4.5240   33.4290 H     217  NPE217      0.0641
     25  H71       16.0840    7.9890   39.0560 H     217  NPE217      0.0399
     26  H72       17.0220    9.4830   39.0990 H     217  NPE217      0.0399
     27  H81       18.8530    8.3870   40.1940 H     217  NPE217      0.0271
     28  H82       18.0930    6.8170   40.0010 H     217  NPE217      0.0271
     29  H91       16.4620    8.7180   41.5490 H     217  NPE217      0.0271
     30  H92       18.0100    8.3360   42.2920 H     217  NPE217      0.0271
     31 H101       16.8340    5.9140   41.2680 H     217  NPE217      0.0379
     32 H102       15.6720    6.7850   42.2500 H     217  NPE217      0.0379
@<TRIPOS>BOND
     1     3     2    2
     2     4     2    2
     3     2     1    1
     4    21     5    1
     5     1     5   ar
     6     1     9   ar
     7     5     6   ar
     8    24     9    1
     9     9     8   ar
    10     6    22    1
    11     6     7   ar
    12     8     7   ar
    13     8    23    1
    14     7    10    1
    15    10    11    1
    16    12    11    2
    17    11    13    1
    18    11    14    1
    19    14    25    1
    20    14    26    1
    21    14    15    1
    22    28    15    1
    23    15    27    1
    24    15    16    1
    25    31    17    1
    26    29    16    1
    27    16    17    1
    28    16    30    1
    29    17    32    1
    30    17    18    1
    31    18    19   ar
    32    18    20   ar
