@<TRIPOS>MOLECULE
1aj8_CIT_A_1.pdb
 13 12 0 0 0
SMALL
GASTEIGER

@<TRIPOS>ATOM
      1  C1        35.1810   34.0990   69.0040 C.2   1000  CIT1000     0.3680
      2  O1        35.8880   33.1670   68.7550 O.co2 1000  CIT1000    -0.2455
      3  O2        35.6060   35.0200   69.8470 O.co2 1000  CIT1000    -0.2455
      4  C2        33.8410   34.2740   68.4490 C.3   1000  CIT1000     0.1560
      5  C3        33.6910   34.0980   66.8730 C.3   1000  CIT1000     0.2402
      6  O7        34.7340   33.5840   66.0400 O.3   1000  CIT1000    -0.2129
      7  C4        32.3740   34.3510   66.3110 C.3   1000  CIT1000     0.1560
      8  C5        32.4460   35.8400   66.0760 C.2   1000  CIT1000     0.3680
      9  O3        31.5380   36.5270   66.5200 O.co2 1000  CIT1000    -0.2455
     10  O4        33.2520   36.2680   65.1770 O.co2 1000  CIT1000    -0.2455
     11  C6        33.2340   32.5180   67.1060 C.2   1000  CIT1000     0.3927
     12  O5        33.6100   31.5880   66.3020 O.co2 1000  CIT1000    -0.2429
     13  O6        32.5080   32.1530   68.1110 O.co2 1000  CIT1000    -0.2429
@<TRIPOS>BOND
     1    10     8   ar
     2     6     5    1
     3     8     7    1
     4     8     9   ar
     5    12    11   ar
     6     7     5    1
     7     5    11    1
     8     5     4    1
     9    11    13   ar
    10     4     1    1
    11     2     1   ar
    12     1     3   ar
