@<TRIPOS>MOLECULE
1aj8_COA_A_1.pdb
 46 48 0 0 0
SMALL
GASTEIGER

@<TRIPOS>ATOM
      1  N1A       36.5510   47.8600   63.7050 N.2   3000  COA3000     0.0021
      2  C2A       37.2860   48.9140   64.1750 C.3   3000  COA3000     0.5254
      3  N3A       38.0850   48.8890   65.2800 N.2   3000  COA3000    -0.0055
      4  C4A       38.1230   47.7510   66.0000 C.2   3000  COA3000     0.3518
      5  C5A       37.3610   46.6660   65.5910 C.2   3000  COA3000     0.2526
      6  C6A       36.5290   46.7110   64.4080 C.2   3000  COA3000     0.4393
      7  N6A       35.7940   45.6410   64.0830 N.pl3 3000  COA3000     0.2180
      8  N7A       37.4600   45.6520   66.3470 N.2   3000  COA3000    -0.2095
      9  C8A       38.4880   45.9750   67.2620 C.3   3000  COA3000     0.3377
     10  N9A       38.7300   47.3540   67.0770 N.pl3 3000  COA3000    -0.1439
     11  C1B       39.5980   48.2950   67.8060 C.3   3000  COA3000     0.3185
     12  C2B       38.9190   48.7790   69.1030 C.3   3000  COA3000     0.2543
     13  O2B       38.0200   49.8900   68.9620 O.3   3000  COA3000    -0.2131
     14  C3B       40.1110   49.0190   70.0380 C.3   3000  COA3000     0.1928
     15  O3B       40.6580   50.2680   69.6090 O.3   3000  COA3000    -0.2673
     16  P3B       41.5590   51.2300   70.6880 P.3   3000  COA3000     0.5327
     17  O7A       41.6210   52.7220   70.0720 O.2   3000  COA3000    -0.2224
     18  O8A       40.7940   51.2160   72.0970 O.3   3000  COA3000    -0.1145
     19  O9A       43.0090   50.5640   70.8010 O.3   3000  COA3000    -0.1145
     20  C4B       41.1510   47.9740   69.5920 C.3   3000  COA3000     0.1795
     21  O4B       40.8110   47.6540   68.2330 O.3   3000  COA3000    -0.3136
     22  C5B       41.1050   46.7040   70.4350 C.3   3000  COA3000     0.1812
     23  O5B       39.8980   45.9630   70.1860 O.3   3000  COA3000    -0.3112
     24  P1A       38.8870   45.4470   71.4090 P.3   3000  COA3000     0.2189
     25  O1A       39.5790   45.4870   72.8030 O.3   3000  COA3000    -0.4371
     26  O2A       37.5180   46.1920   71.4130 O.2   3000  COA3000    -0.5170
     27  O3A       38.7170   43.9170   70.8790 O.3   3000  COA3000    -0.2703
     28  P2A       38.0100   42.7220   71.6780 P.3   3000  COA3000     0.2188
     29  O4A       38.9340   41.4900   71.6760 O.2   3000  COA3000    -0.5170
     30  O5A       37.5980   43.1600   73.1100 O.3   3000  COA3000    -0.4371
     31  O6A       36.6740   42.5000   70.7420 O.3   3000  COA3000    -0.3138
     32  CBP       35.3900   41.7410   68.7770 C.3   3000  COA3000     0.0645
     33  CCP       36.6230   41.4980   69.7060 C.3   3000  COA3000     0.1519
     34  CDP       35.3330   40.5810   67.7620 C.3   3000  COA3000     0.0056
     35  CEP       34.1120   41.7250   69.6670 C.3   3000  COA3000     0.0056
     36  CAP       35.5770   43.1440   68.0540 C.3   3000  COA3000     0.2312
     37  OAP       36.7570   43.1680   67.2460 O.3   3000  COA3000    -0.2131
     38  C9P       34.3270   43.6970   67.2730 C.2   3000  COA3000     0.2719
     39  O9P       33.4500   44.3650   67.9010 O.2   3000  COA3000    -0.2706
     40  N8P       34.2350   43.4350   65.9600 N.am  3000  COA3000    -0.2028
     41  C7P       33.1100   43.9510   65.1570 C.3   3000  COA3000     0.1248
     42  C6P       31.9540   42.9410   65.1520 C.3   3000  COA3000     0.1102
     43  C5P       32.4490   41.6050   64.6550 C.2   3000  COA3000     0.2432
     44  O5P       32.5730   41.3410   63.4360 O.2   3000  COA3000    -0.2733
     45  N4P       32.4730   40.6710   65.5400 N.am  3000  COA3000    -0.2035
     46  C3P       31.4930   39.5390   65.5500 C.3   3000  COA3000     0.1385
@<TRIPOS>BOND
     1    44    43    2
     2     1     2    1
     3     1     6    2
     4     7     6    1
     5     2     3    1
     6     6     5    1
     7    43    42    1
     8    43    45   am
     9    42    41    1
    10    41    40    1
    11     3     4    2
    12    45    46    1
    13     5     4    1
    14     5     8    2
    15    40    38   am
    16     4    10    1
    17     8     9    1
    18    10     9    1
    19    10    11    1
    20    37    36    1
    21    38    39    2
    22    38    36    1
    23    34    32    1
    24    11    21    1
    25    11    12    1
    26    36    32    1
    27    21    20    1
    28    32    35    1
    29    32    33    1
    30    13    12    1
    31    12    14    1
    32    20    14    1
    33    20    22    1
    34    15    14    1
    35    15    16    1
    36    33    31    1
    37    17    16    2
    38    23    22    1
    39    23    24    1
    40    16    19    1
    41    16    18    1
    42    31    28    1
    43    27    24    1
    44    27    28    1
    45    24    26    2
    46    24    25    1
    47    29    28    2
    48    28    30    1
