@<TRIPOS>MOLECULE
1aj9_HEM_A_1.pdb
 43 50 0 0 0
SMALL
GASTEIGER

@<TRIPOS>ATOM
      1 FE         40.6750   29.7100   15.5990 Fe    143  HEM143      0.0000
      2  CHA       43.4710   28.6340   17.2680 C.2   143  HEM143      0.0000
      3  CHB       41.3550   32.9370   16.5410 C.2   143  HEM143      0.0000
      4  CHC       38.0750   30.8260   13.7090 C.2   143  HEM143      0.0000
      5  CHD       39.7450   26.5130   15.0030 C.2   143  HEM143      0.0000
      6  NA        42.1140   30.6110   16.7020 N.2   143  HEM143      0.0000
      7  C1A       43.2130   30.0050   17.2840 C.2   143  HEM143      0.0000
      8  C2A       43.9550   31.0190   18.0170 C.2   143  HEM143      0.0000
      9  C3A       43.3060   32.1810   17.8990 C.2   143  HEM143      0.0000
     10  C4A       42.2030   31.9730   16.9780 C.2   143  HEM143      0.0000
     11  CMA       43.6510   33.5830   18.4530 C.3   143  HEM143      0.0000
     12  CAA       45.2100   30.7240   18.8920 C.3   143  HEM143      0.0000
     13  CBA       44.8830   30.4860   20.4030 C.3   143  HEM143      0.0000
     14  CGA       46.0990   29.7590   21.0480 C.2   143  HEM143      0.0000
     15  O1A       45.7500   28.6800   21.6420 O.co2 143  HEM143      0.0000
     16  O2A       47.1920   30.3210   20.7170 O.co2 143  HEM143      0.0000
     17  NB        39.8960   31.5070   15.2170 N.ar  143  HEM143      0.0000
     18  C1B       40.3820   32.7460   15.6110 C.ar  143  HEM143      0.0000
     19  C2B       39.6120   33.8090   14.9290 C.ar  143  HEM143      0.0000
     20  C3B       38.6590   33.2190   14.1890 C.ar  143  HEM143      0.0000
     21  C4B       38.8410   31.7770   14.3350 C.ar  143  HEM143      0.0000
     22  CMB       39.8810   35.2970   15.1600 C.3   143  HEM143      0.0000
     23  CAB       37.6680   33.8050   13.1810 C.2   143  HEM143      0.0000
     24  CBB       36.8210   34.7890   13.3660 C.2   143  HEM143      0.0000
     25  NC        39.1580   28.8270   14.6120 N.2   143  HEM143      0.0000
     26  C1C       38.2150   29.4640   13.8270 C.2   143  HEM143      0.0000
     27  C2C       37.4630   28.4790   13.0810 C.2   143  HEM143      0.0000
     28  C3C       37.9000   27.2860   13.4480 C.2   143  HEM143      0.0000
     29  C4C       38.9740   27.4830   14.3850 C.2   143  HEM143      0.0000
     30  CMC       36.3030   28.8790   12.1510 C.3   143  HEM143      0.0000
     31  CAC       37.3860   25.8900   13.0600 C.2   143  HEM143      0.0000
     32  CBC       36.0690   25.7190   12.9220 C.2   143  HEM143      0.0000
     33  ND        41.4610   27.9090   16.0360 N.ar  143  HEM143      0.0000
     34  C1D       40.9140   26.6740   15.7200 C.ar  143  HEM143      0.0000
     35  C2D       41.7670   25.6450   16.1980 C.ar  143  HEM143      0.0000
     36  C3D       42.8060   26.2430   16.7870 C.ar  143  HEM143      0.0000
     37  C4D       42.6130   27.6510   16.7680 C.ar  143  HEM143      0.0000
     38  CMD       41.5130   24.1250   15.9720 C.3   143  HEM143      0.0000
     39  CAD       43.9090   25.5190   17.6490 C.3   143  HEM143      0.0000
     40  CBD       43.2410   25.2890   19.0440 C.3   143  HEM143      0.0000
     41  CGD       44.0770   24.5920   20.0470 C.2   143  HEM143      0.0000
     42  O1D       44.9090   23.7480   19.6690 O.co2 143  HEM143      0.0000
     43  O2D       43.9700   24.8730   21.2540 O.co2 143  HEM143      0.0000
@<TRIPOS>BOND
     1    30    27    1
     2    32    31    2
     3    31    28    1
     4    27    28    2
     5    27    26    1
     6    23    24    2
     7    23    20    1
     8    28    29    1
     9     4    26    2
    10     4    21    1
    11    26    25    1
    12    20    21   ar
    13    20    19   ar
    14    21    17   ar
    15    29    25    2
    16    29     5    1
    17    25     1    1
    18    19    22    1
    19    19    18   ar
    20     5    34    2
    21    17     1    1
    22    17    18   ar
    23     1    33    1
    24     1     6    1
    25    18     3    1
    26    34    33   ar
    27    34    35   ar
    28    38    35    1
    29    33    37   ar
    30    35    36   ar
    31     3    10    2
    32     6    10    1
    33     6     7    2
    34    37    36   ar
    35    37     2    2
    36    36    39    1
    37    10     9    1
    38     2     7    1
    39     7     8    1
    40    39    40    1
    41     9     8    2
    42     9    11    1
    43     8    12    1
    44    12    13    1
    45    40    41    1
    46    42    41   ar
    47    41    43   ar
    48    13    14    1
    49    16    14   ar
    50    14    15   ar
