@<TRIPOS>MOLECULE
1ajg_HEM_A_1.pdb
 43 50 0 0 0
SMALL
GASTEIGER

@<TRIPOS>ATOM
      1 FE         14.5550   27.8820    4.6680 Fe    154  HEM154      0.0000
      2  CHA       15.8630   31.0360    4.9350 C.2   154  HEM154      0.0000
      3  CHB       13.8720   27.8630    8.0200 C.2   154  HEM154      0.0000
      4  CHC       13.2840   24.7620    4.4290 C.2   154  HEM154      0.0000
      5  CHD       15.3690   27.8030    1.3600 C.2   154  HEM154      0.0000
      6  NA        14.8200   29.1700    6.1530 N.2   154  HEM154      0.0000
      7  C1A       15.3210   30.4580    6.0750 C.2   154  HEM154      0.0000
      8  C2A       15.2490   31.0890    7.3800 C.2   154  HEM154      0.0000
      9  C3A       14.7670   30.1730    8.2360 C.2   154  HEM154      0.0000
     10  C4A       14.4790   28.9870    7.4790 C.2   154  HEM154      0.0000
     11  CMA       14.5470   30.3370    9.7380 C.3   154  HEM154      0.0000
     12  CAA       15.6740   32.5030    7.7910 C.3   154  HEM154      0.0000
     13  CBA       14.5010   33.4060    7.9450 C.3   154  HEM154      0.0000
     14  CGA       13.5870   33.3760    6.7480 C.2   154  HEM154      0.0000
     15  O1A       14.0180   33.7750    5.6520 O.co2 154  HEM154      0.0000
     16  O2A       12.4090   32.9840    6.8870 O.co2 154  HEM154      0.0000
     17  NB        13.7240   26.6030    5.9660 N.ar  154  HEM154      0.0000
     18  C1B       13.4940   26.7540    7.3130 C.ar  154  HEM154      0.0000
     19  C2B       12.8370   25.6190    7.8680 C.ar  154  HEM154      0.0000
     20  C3B       12.6970   24.7320    6.8720 C.ar  154  HEM154      0.0000
     21  C4B       13.2520   25.3460    5.6770 C.ar  154  HEM154      0.0000
     22  CMB       12.3940   25.5090    9.3560 C.3   154  HEM154      0.0000
     23  CAB       12.1010   23.4630    6.9570 C.3   154  HEM154      0.0000
     24  CBB       12.2900   22.3460    7.8470 C.3   154  HEM154      0.0000
     25  NC        14.3010   26.5690    3.1670 N.2   154  HEM154      0.0000
     26  C1C       13.7830   25.3000    3.2590 C.2   154  HEM154      0.0000
     27  C2C       13.9590   24.5760    2.0290 C.2   154  HEM154      0.0000
     28  C3C       14.6060   25.4170    1.1730 C.2   154  HEM154      0.0000
     29  C4C       14.7400   26.6790    1.8640 C.2   154  HEM154      0.0000
     30  CMC       13.5680   23.1100    1.8370 C.3   154  HEM154      0.0000
     31  CAC       15.1520   25.1100   -0.1350 C.3   154  HEM154      0.0000
     32  CBC       14.9340   23.8740   -0.8550 C.3   154  HEM154      0.0000
     33  ND        15.4570   29.1510    3.4350 N.ar  154  HEM154      0.0000
     34  C1D       15.7010   28.9440    2.0850 C.ar  154  HEM154      0.0000
     35  C2D       16.4070   30.0680    1.5400 C.ar  154  HEM154      0.0000
     36  C3D       16.5840   30.9500    2.5470 C.ar  154  HEM154      0.0000
     37  C4D       15.9440   30.4070    3.7100 C.ar  154  HEM154      0.0000
     38  CMD       16.8690   30.1040    0.0800 C.3   154  HEM154      0.0000
     39  CAD       17.3740   32.2230    2.5490 C.3   154  HEM154      0.0000
     40  CBD       18.8480   31.8560    2.7110 C.3   154  HEM154      0.0000
     41  CGD       19.7310   33.0730    2.6180 C.2   154  HEM154      0.0000
     42  O1D       20.0880   33.4660    1.4980 O.co2 154  HEM154      0.0000
     43  O2D       20.0430   33.6710    3.6650 O.co2 154  HEM154      0.0000
@<TRIPOS>BOND
     1    32    31    1
     2    31    28    1
     3    38    35    1
     4    28    29    1
     5    28    27    2
     6     5    29    1
     7     5    34    2
     8    42    41   ar
     9    35    34   ar
    10    35    36   ar
    11    30    27    1
    12    29    25    2
    13    27    26    1
    14    34    33   ar
    15    36    39    1
    16    36    37   ar
    17    39    40    1
    18    41    40    1
    19    41    43   ar
    20    25    26    1
    21    25     1    1
    22    26     4    2
    23    33    37   ar
    24    33     1    1
    25    37     2    2
    26     4    21    1
    27     1    17    1
    28     1     6    1
    29     2     7    1
    30    15    14   ar
    31    21    17   ar
    32    21    20   ar
    33    17    18   ar
    34     7     6    2
    35     7     8    1
    36     6    10    1
    37    14    16   ar
    38    14    13    1
    39    20    23    1
    40    20    19   ar
    41    23    24    1
    42    18    19   ar
    43    18     3    1
    44     8    12    1
    45     8     9    2
    46    10     3    2
    47    10     9    1
    48    12    13    1
    49    19    22    1
    50     9    11    1
