@<TRIPOS>MOLECULE
1ajh_HEM_A_1.pdb
 43 50 0 0 0
SMALL
GASTEIGER

@<TRIPOS>ATOM
      1 FE         14.4930   27.9160    4.6940 Fe    154  HEM154      0.0000
      2  CHA       15.8680   31.0350    4.9980 C.2   154  HEM154      0.0000
      3  CHB       13.9060   27.8180    8.0850 C.2   154  HEM154      0.0000
      4  CHC       13.2540   24.7220    4.4730 C.2   154  HEM154      0.0000
      5  CHD       15.3950   27.7970    1.4420 C.2   154  HEM154      0.0000
      6  NA        14.7640   29.1690    6.2090 N.2   154  HEM154      0.0000
      7  C1A       15.2970   30.4470    6.1430 C.2   154  HEM154      0.0000
      8  C2A       15.2410   31.0690    7.4550 C.2   154  HEM154      0.0000
      9  C3A       14.7610   30.1440    8.3160 C.2   154  HEM154      0.0000
     10  C4A       14.4650   28.9600    7.5450 C.2   154  HEM154      0.0000
     11  CMA       14.5420   30.3300    9.8420 C.3   154  HEM154      0.0000
     12  CAA       15.6800   32.5010    7.8270 C.3   154  HEM154      0.0000
     13  CBA       14.4940   33.4130    7.9590 C.3   154  HEM154      0.0000
     14  CGA       13.5840   33.3640    6.7640 C.2   154  HEM154      0.0000
     15  O1A       14.0040   33.7730    5.6690 O.co2 154  HEM154      0.0000
     16  O2A       12.4200   32.9400    6.8920 O.co2 154  HEM154      0.0000
     17  NB        13.7130   26.5720    6.0030 N.ar  154  HEM154      0.0000
     18  C1B       13.5360   26.7100    7.3620 C.ar  154  HEM154      0.0000
     19  C2B       12.8400   25.5880    7.9130 C.ar  154  HEM154      0.0000
     20  C3B       12.6900   24.6990    6.9190 C.ar  154  HEM154      0.0000
     21  C4B       13.2130   25.3200    5.7170 C.ar  154  HEM154      0.0000
     22  CMB       12.4200   25.5500    9.4130 C.3   154  HEM154      0.0000
     23  CAB       12.1550   23.4120    6.9920 C.3   154  HEM154      0.0000
     24  CBB       12.3000   22.3820    7.9610 C.3   154  HEM154      0.0000
     25  NC        14.2830   26.5510    3.2330 N.2   154  HEM154      0.0000
     26  C1C       13.7810   25.2690    3.3170 C.2   154  HEM154      0.0000
     27  C2C       14.0200   24.5420    2.0940 C.2   154  HEM154      0.0000
     28  C3C       14.6420   25.4020    1.2420 C.2   154  HEM154      0.0000
     29  C4C       14.7450   26.6710    1.9320 C.2   154  HEM154      0.0000
     30  CMC       13.6660   23.0710    1.8520 C.3   154  HEM154      0.0000
     31  CAC       15.1690   25.0870   -0.0630 C.3   154  HEM154      0.0000
     32  CBC       15.0170   23.8780   -0.8440 C.3   154  HEM154      0.0000
     33  ND        15.4740   29.1700    3.4980 N.ar  154  HEM154      0.0000
     34  C1D       15.7370   28.9480    2.1610 C.ar  154  HEM154      0.0000
     35  C2D       16.4370   30.0820    1.6060 C.ar  154  HEM154      0.0000
     36  C3D       16.6020   30.9750    2.6070 C.ar  154  HEM154      0.0000
     37  C4D       15.9650   30.4240    3.7680 C.ar  154  HEM154      0.0000
     38  CMD       16.9060   30.1420    0.1560 C.3   154  HEM154      0.0000
     39  CAD       17.3950   32.2330    2.5520 C.3   154  HEM154      0.0000
     40  CBD       18.8730   31.8800    2.7160 C.3   154  HEM154      0.0000
     41  CGD       19.7510   33.0990    2.6220 C.2   154  HEM154      0.0000
     42  O1D       20.1090   33.4840    1.5010 O.co2 154  HEM154      0.0000
     43  O2D       20.0530   33.7080    3.6700 O.co2 154  HEM154      0.0000
@<TRIPOS>BOND
     1    32    31    1
     2    31    28    1
     3    38    35    1
     4    28    29    1
     5    28    27    2
     6     5    29    1
     7     5    34    2
     8    42    41   ar
     9    35    34   ar
    10    35    36   ar
    11    30    27    1
    12    29    25    2
    13    27    26    1
    14    34    33   ar
    15    39    36    1
    16    39    40    1
    17    36    37   ar
    18    41    40    1
    19    41    43   ar
    20    25    26    1
    21    25     1    1
    22    26     4    2
    23    33    37   ar
    24    33     1    1
    25    37     2    2
    26     4    21    1
    27     1    17    1
    28     1     6    1
    29     2     7    1
    30    15    14   ar
    31    21    17   ar
    32    21    20   ar
    33    17    18   ar
    34     7     6    2
    35     7     8    1
    36     6    10    1
    37    14    16   ar
    38    14    13    1
    39    20    23    1
    40    20    19   ar
    41    23    24    1
    42    18    19   ar
    43    18     3    1
    44     8    12    1
    45     8     9    2
    46    10     3    2
    47    10     9    1
    48    12    13    1
    49    19    22    1
    50     9    11    1
