@<TRIPOS>MOLECULE
1ajn_AAN_B_1.pdb
 13 13 0 0 0
SMALL
GASTEIGER

@<TRIPOS>ATOM
      1  C1        13.9920   37.8040   36.4180 C.2   559  AAN559      0.3692
      2  C2        13.8720   36.3160   36.0350 C.3   559  AAN559      0.1404
      3  C1'       12.8420   36.0860   34.9540 C.ar  559  AAN559     -0.0108
      4  C2'       13.0210   36.6710   33.7170 C.ar  559  AAN559     -0.0020
      5  C3'       11.9730   36.5260   32.8230 C.ar  559  AAN559      0.0238
      6  C4'       10.8990   35.7310   33.1130 C.ar  559  AAN559      0.1429
      7  N4'       10.1470   35.5500   32.3480 N.pl3 559  AAN559      0.0577
      8  O3'       10.4890   36.2740   31.1760 O.2   559  AAN559     -0.1261
      9  O4'        9.0250   34.7280   32.6160 O.2   559  AAN559     -0.1261
     10  C5'       10.7210   35.0520   34.3140 C.ar  559  AAN559      0.0238
     11  C6'       11.7420   35.2890   35.2320 C.ar  559  AAN559     -0.0020
     12  O1        14.6010   38.1410   37.4320 O.co2 559  AAN559     -0.2453
     13  O2        13.5040   38.7610   35.8060 O.co2 559  AAN559     -0.2453
@<TRIPOS>BOND
     1     8     7    2
     2     7     9    2
     3     7     6    1
     4     5     6   ar
     5     5     4   ar
     6     6    10   ar
     7     4     3   ar
     8    10    11   ar
     9     3    11   ar
    10     3     2    1
    11    13     1   ar
    12     2     1    1
    13     1    12   ar
