@<TRIPOS>MOLECULE
1ajp_OMD_A_1.pdb
 12 12 0 0 0
SMALL
GASTEIGER

@<TRIPOS>ATOM
      1  C1        13.5720   37.5200   36.1010 C.2   210  OMD210      0.3656
      2  C2        13.0180   36.1080   35.8570 C.3   210  OMD210      0.1262
      3  C1'       11.9820   36.0200   34.7630 C.3   210  OMD210      0.0983
      4  C2'       12.0720   36.8510   33.6510 C.2   210  OMD210      0.0238
      5  C3'       11.1100   36.7580   32.6730 C.2   210  OMD210      0.1920
      6  O3'       11.0650   37.5080   31.5210 O.2   210  OMD210     -0.2869
      7  C4'       10.0380   35.8730   32.7310 C.2   210  OMD210      0.0446
      8  C5'        9.9510   35.0620   33.8310 C.2   210  OMD210      0.0411
      9  C6'       10.9200   35.1270   34.8110 C.2   210  OMD210      0.1775
     10  O6'       10.7660   34.4250   35.6340 O.2   210  OMD210     -0.2910
     11  O1        14.4340   37.7030   36.9520 O.co2 210  OMD210     -0.2456
     12  O2        13.1420   38.5030   35.4930 O.co2 210  OMD210     -0.2456
@<TRIPOS>BOND
     1     6     5    1
     2     5     7    1
     3     5     4    2
     4     7     8    2
     5     4     3    1
     6     8     9    1
     7     3     9    1
     8     3     2    1
     9     9    10    2
    10    12     1   ar
    11     2     1    1
    12     1    11   ar
