@<TRIPOS>MOLECULE
1ajs_PLA_A_1.pdb
 25 25 0 0 0
SMALL
GASTEIGER

@<TRIPOS>ATOM
      1  N1       -30.8980  -38.0320   -6.6430 N.ar  415  PLA415     -0.2452
      2  C2       -30.7650  -39.2890   -6.1440 C.ar  415  PLA415      0.0981
      3  C2A      -29.6380  -40.1180   -6.6980 C.3   415  PLA415      0.0555
      4  C3       -31.6530  -39.7260   -5.1460 C.ar  415  PLA415      0.2103
      5  O3       -31.5830  -40.9370   -4.6560 O.3   415  PLA415     -0.2853
      6  C4       -32.6820  -38.8510   -4.7220 C.ar  415  PLA415      0.0587
      7  C4A      -33.6050  -39.3510   -3.7320 C.2   415  PLA415      0.0966
      8  C5       -32.7600  -37.5810   -5.2590 C.ar  415  PLA415      0.0316
      9  C6       -31.8530  -37.1580   -6.2350 C.ar  415  PLA415      0.0968
     10  C5A      -33.8360  -36.5770   -4.9160 C.3   415  PLA415      0.1819
     11  O4P      -33.8910  -36.0240   -3.6540 O.3   415  PLA415     -0.2653
     12  P        -34.9510  -34.8770   -3.2500 P.3   415  PLA415      0.5329
     13  O1P      -35.9310  -35.5660   -2.3000 O.3   415  PLA415     -0.1145
     14  O2P      -35.5690  -34.3180   -4.5470 O.2   415  PLA415     -0.2224
     15  O3P      -34.0600  -33.7910   -2.5470 O.3   415  PLA415     -0.1145
     16  N        -33.8870  -40.7110   -3.5910 N.2   415  PLA415     -0.2612
     17  CA       -34.7620  -41.3600   -2.5990 C.3   415  PLA415      0.1881
     18  CB1      -36.2370  -40.9420   -2.6500 C.3   415  PLA415      0.1474
     19  CB2      -34.2480  -41.0710   -1.2030 C.3   415  PLA415      0.0366
     20  CG       -36.7990  -40.8180   -4.0650 C.2   415  PLA415      0.3673
     21  OD1      -36.7920  -41.7430   -4.9100 O.co2 415  PLA415     -0.2456
     22  OD2      -37.2770  -39.6720   -4.3490 O.co2 415  PLA415     -0.2456
     23  C        -34.6910  -42.8920   -2.8070 C.2   415  PLA415      0.3848
     24  O        -35.3530  -43.6790   -2.1250 O.co2 415  PLA415     -0.2436
     25  OXT      -34.1090  -43.3200   -3.8340 O.co2 415  PLA415     -0.2436
@<TRIPOS>BOND
     1     3     2    1
     2     1     9   ar
     3     1     2   ar
     4     9     8   ar
     5     2     4   ar
     6     8    10    1
     7     8     6   ar
     8     4     6   ar
     9     4     5    1
    10    10    11    1
    11    21    20   ar
    12     6     7    1
    13    14    12    2
    14    22    20   ar
    15    20    18    1
    16    25    23   ar
    17     7    16    2
    18    11    12    1
    19    16    17    1
    20    12    15    1
    21    12    13    1
    22    23    17    1
    23    23    24   ar
    24    18    17    1
    25    17    19    1
