@<TRIPOS>MOLECULE
1ajv_NMB_A_1.pdb
 41 45 0 0 0
SMALL
GASTEIGER

@<TRIPOS>ATOM
      1  N01       11.2880   23.4910    5.8630 N.3   501  NMB501     -0.1360
      2  S02       11.7520   21.9940    6.4090 S.O2  501  NMB501      0.1029
      3  N03       13.3390   22.0510    6.1430 N.3   501  NMB501     -0.1360
      4  C04       13.7180   21.8820    4.7150 C.3   501  NMB501      0.1573
      5  C05       13.8660   23.2220    4.0190 C.3   501  NMB501      0.2035
      6  C06       12.9640   24.3140    4.5500 C.3   501  NMB501      0.2035
      7  C07       11.4700   24.0310    4.5340 C.3   501  NMB501      0.1573
      8  C08       10.0970   23.9500    6.4360 C.3   501  NMB501      0.1233
      9  C09        9.7590   25.1350    7.2730 C.ar  501  NMB501     -0.0044
     10  C10        8.5260   25.7840    7.1410 C.ar  501  NMB501     -0.0029
     11  C11        8.2300   26.8970    7.9290 C.ar  501  NMB501     -0.0003
     12  C12        9.1850   27.3780    8.8690 C.ar  501  NMB501     -0.0000
     13  C13       10.4310   26.7390    9.0090 C.ar  501  NMB501     -0.0003
     14  C14       10.7160   25.6130    8.2060 C.ar  501  NMB501     -0.0029
     15  O15       11.1950   20.9190    5.6210 O.2   501  NMB501     -0.1408
     16  O16       14.7620   20.0210    3.5210 O.3   501  NMB501     -0.4739
     17  C17       15.7580   19.1500    3.2110 C.ar  501  NMB501      0.1386
     18  C18       16.6850   18.7520    4.1980 C.ar  501  NMB501      0.0369
     19  C19       17.7110   17.8480    3.8820 C.ar  501  NMB501      0.0031
     20  C20       17.8040   17.3340    2.5690 C.ar  501  NMB501      0.0002
     21  C21       16.8800   17.7260    1.5850 C.ar  501  NMB501      0.0031
     22  C22       15.8660   18.6320    1.9120 C.ar  501  NMB501      0.0369
     23  C23       14.1990   22.6960    7.1600 C.3   501  NMB501      0.1233
     24  C24       15.1850   21.8560    7.9250 C.ar  501  NMB501     -0.0044
     25  C25       14.7480   20.9690    8.9400 C.ar  501  NMB501     -0.0029
     26  C26       15.6870   20.1700    9.6510 C.ar  501  NMB501     -0.0003
     27  C27       17.0610   20.2600    9.3460 C.ar  501  NMB501     -0.0000
     28  C28       17.4950   21.1470    8.3360 C.ar  501  NMB501     -0.0003
     29  C29       16.5580   21.9380    7.6310 C.ar  501  NMB501     -0.0029
     30  O30       15.1850   23.6960    4.1710 O.3   501  NMB501     -0.2187
     31  O31       13.2820   25.4920    3.8480 O.3   501  NMB501     -0.2187
     32  C32       10.8120   23.1390    3.4660 C.3   501  NMB501      0.2256
     33  O33        9.3880   23.2350    3.7130 O.3   501  NMB501     -0.4739
     34  C34        8.6380   24.0960    2.9990 C.ar  501  NMB501      0.1386
     35  C35        9.1860   25.2970    2.5060 C.ar  501  NMB501      0.0369
     36  C36        8.4120   26.2030    1.7670 C.ar  501  NMB501      0.0031
     37  C37        7.0650   25.9140    1.5160 C.ar  501  NMB501      0.0002
     38  C38        6.5070   24.7220    2.0070 C.ar  501  NMB501      0.0031
     39  C39        7.2990   23.8160    2.7450 C.ar  501  NMB501      0.0369
     40  O40       11.5630   21.9660    7.8210 O.2   501  NMB501     -0.1408
     41  C41       14.9800   21.0170    4.5480 C.3   501  NMB501      0.2256
@<TRIPOS>BOND
     1    37    36   ar
     2    37    38   ar
     3    21    22   ar
     4    21    20   ar
     5    36    35   ar
     6    22    17   ar
     7    38    39   ar
     8    35    34   ar
     9    20    19   ar
    10    39    34   ar
    11    34    33    1
    12    17    16    1
    13    17    18   ar
    14    32    33    1
    15    32     7    1
    16    16    41    1
    17    31     6    1
    18    19    18   ar
    19     5    30    1
    20     5     6    1
    21     5     4    1
    22     7     6    1
    23     7     1    1
    24    41     4    1
    25     4     3    1
    26    15     2    2
    27     1     2    1
    28     1     8    1
    29     3     2    1
    30     3    23    1
    31     2    40    2
    32     8     9    1
    33    10     9   ar
    34    10    11   ar
    35    23    24    1
    36     9    14   ar
    37    29    24   ar
    38    29    28   ar
    39    24    25   ar
    40    11    12   ar
    41    14    13   ar
    42    28    27   ar
    43    12    13   ar
    44    25    26   ar
    45    27    26   ar
