@<TRIPOS>MOLECULE
1ajx_AH1_A_1.pdb
 40 44 0 0 0
SMALL
GASTEIGER

@<TRIPOS>ATOM
      1  N01       11.7410   23.3430    5.9890 N.am  500  AH1500     -0.2553
      2  C02       12.2650   22.0280    6.0510 C.2   500  AH1500      0.3079
      3  N03       13.5070   21.7390    5.6380 N.am  500  AH1500     -0.2553
      4  C04       14.6520   22.6630    5.7600 C.3   500  AH1500      0.1535
      5  C05       14.5740   23.8290    4.6740 C.3   500  AH1500      0.2056
      6  C06       13.4310   24.8510    4.9420 C.3   500  AH1500      0.2056
      7  C07       11.9940   24.2680    4.8390 C.3   500  AH1500      0.1535
      8  C08       10.4530   23.6120    6.6690 C.3   500  AH1500      0.1218
      9  C09       10.2850   24.9540    7.2810 C.ar  500  AH1500     -0.0023
     10  C10        9.1800   25.7370    6.9680 C.ar  500  AH1500     -0.0026
     11  C11        9.0390   27.0110    7.5220 C.ar  500  AH1500     -0.0003
     12  C12       10.0110   27.5260    8.3960 C.ar  500  AH1500     -0.0000
     13  C13       11.1000   26.7320    8.6960 C.ar  500  AH1500     -0.0003
     14  C14       11.2270   25.4360    8.1300 C.ar  500  AH1500     -0.0026
     15  O15       11.5490   21.0910    6.5030 O.2   500  AH1500     -0.2523
     16  C16       13.9250   20.3890    5.4920 C.3   500  AH1500      0.1218
     17  C17       14.8410   19.9560    4.3600 C.ar  500  AH1500     -0.0023
     18  C18       16.1120   19.3650    4.6200 C.ar  500  AH1500     -0.0026
     19  C19       16.8900   18.9310    3.5390 C.ar  500  AH1500     -0.0003
     20  C20       16.4590   19.0590    2.2170 C.ar  500  AH1500     -0.0000
     21  C21       15.2220   19.6500    1.9380 C.ar  500  AH1500     -0.0003
     22  C22       14.3990   20.0990    3.0000 C.ar  500  AH1500     -0.0026
     23  C23       14.6030   23.2930    7.1160 C.3   500  AH1500      0.2277
     24  O24       14.7440   22.4950    8.3370 O.3   500  AH1500     -0.4736
     25  C25       15.7820   21.7740    8.6600 C.ar  500  AH1500      0.1386
     26  C26       15.6250   20.6030    9.4660 C.ar  500  AH1500      0.0369
     27  C27       16.7780   19.8550    9.8220 C.ar  500  AH1500      0.0031
     28  C28       18.0690   20.2700    9.3680 C.ar  500  AH1500      0.0002
     29  C29       18.2260   21.4180    8.5550 C.ar  500  AH1500      0.0031
     30  C30       17.0840   22.1670    8.2090 C.ar  500  AH1500      0.0369
     31  O31       15.7460   24.5390    4.7420 O.3   500  AH1500     -0.2184
     32  O32       13.5500   25.8400    3.9840 O.3   500  AH1500     -0.2184
     33  C33       11.8320   23.4520    3.5150 C.3   500  AH1500      0.2277
     34  O34       10.4610   23.1350    3.0630 O.3   500  AH1500     -0.4736
     35  C35        9.5240   24.0830    2.7470 C.ar  500  AH1500      0.1386
     36  C36        9.9090   25.3270    2.2310 C.ar  500  AH1500      0.0369
     37  C37        8.9450   26.3100    1.8800 C.ar  500  AH1500      0.0031
     38  C38        7.5650   26.0600    2.0520 C.ar  500  AH1500      0.0002
     39  C39        7.1750   24.8090    2.5880 C.ar  500  AH1500      0.0031
     40  C40        8.1710   23.8260    2.9270 C.ar  500  AH1500      0.0369
@<TRIPOS>BOND
     1    37    38   ar
     2    37    36   ar
     3    21    20   ar
     4    21    22   ar
     5    38    39   ar
     6    20    19   ar
     7    36    35   ar
     8    39    40   ar
     9    35    40   ar
    10    35    34    1
    11    22    17   ar
    12    34    33    1
    13    33     7    1
    14    19    18   ar
    15    32     6    1
    16    17    18   ar
    17    17    16    1
    18     5    31    1
    19     5     6    1
    20     5     4    1
    21     7     6    1
    22     7     1    1
    23    16     3    1
    24     3     4    1
    25     3     2   am
    26     4    23    1
    27     1     2   am
    28     1     8    1
    29     2    15    2
    30     8     9    1
    31    10     9   ar
    32    10    11   ar
    33    23    24    1
    34     9    14   ar
    35    11    12   ar
    36    14    13   ar
    37    30    29   ar
    38    30    25   ar
    39    24    25    1
    40    12    13   ar
    41    29    28   ar
    42    25    26   ar
    43    28    27   ar
    44    26    27   ar
