@<TRIPOS>MOLECULE
1ak0_THS_A_1.pdb
 20 21 0 0 0
SMALL
GASTEIGER

@<TRIPOS>ATOM
      1  P         15.9410   21.5360    1.0630 P.3   295  THS295      0.1760
      2  S2P       17.4180   22.7520    0.4170 S.3   295  THS295     -0.0177
      3  S3P       14.1180   22.0800    1.3160 S.3   295  THS295     -0.0177
      4  O5'       16.1490   21.1700    2.6100 O.3   295  THS295     -0.3208
      5  C5'       15.9200   20.1620    3.5950 C.3   295  THS295      0.1800
      6  C4'       16.4000   20.7860    4.8910 C.3   295  THS295      0.1772
      7  O4'       17.7930   20.5970    5.0290 O.3   295  THS295     -0.3339
      8  C3'       16.2530   22.3530    4.9190 C.3   295  THS295      0.1857
      9  O3'       15.9030   22.8640    6.2410 O.3   295  THS295     -0.2203
     10  C2'       17.6420   22.8890    4.6030 C.3   295  THS295      0.0874
     11  C1'       18.5290   21.7960    5.1590 C.3   295  THS295      0.2090
     12  N1        19.7710   21.5180    4.4760 N.am  295  THS295     -0.1794
     13  C2        20.9200   21.4330    5.2900 C.1   295  THS295      0.2844
     14  O2        20.8480   21.8140    6.4670 O.2   295  THS295     -0.1918
     15  N3        22.0590   20.9080    4.6800 N.2   295  THS295     -0.2455
     16  C4        22.1650   20.4950    3.3390 C.1   295  THS295      0.2134
     17  O4        23.2400   20.0560    2.9670 O.2   295  THS295     -0.2088
     18  C5        20.9590   20.6140    2.5290 C.2   295  THS295      0.0891
     19  C5M       20.9310   20.1660    1.0390 C.3   295  THS295      0.0462
     20  C6        19.8230   21.1090    3.0980 C.2   295  THS295      0.0877
@<TRIPOS>BOND
     1     2     1    1
     2    19    18    1
     3     1     3    1
     4     1     4    1
     5    18    20    2
     6    18    16    1
     7     4     5    1
     8    17    16    2
     9    20    12    1
    10    16    15    2
    11     5     6    1
    12    12    11    1
    13    12    13   am
    14    10     8    1
    15    10    11    1
    16    15    13    2
    17     6     8    1
    18     6     7    1
    19     8     9    1
    20     7    11    1
    21    13    14    2
