@<TRIPOS>MOLECULE
1aka_PLP_A_1.pdb
 16 16 0 0 0
SMALL
GASTEIGER

@<TRIPOS>ATOM
      1  N1         7.4790   -1.0820   11.4770 N.ar  411  PLP411     -0.2452
      2  C2         8.1820   -1.3960   10.3400 C.ar  411  PLP411      0.0979
      3  C2A        7.7290   -2.6210    9.5340 C.3   411  PLP411      0.0555
      4  C3         9.2790   -0.4890   10.0900 C.ar  411  PLP411      0.2073
      5  O3         9.9360   -0.8770    8.9740 O.3   411  PLP411     -0.2856
      6  C4         9.6750    0.6220   10.8290 C.ar  411  PLP411      0.0506
      7  C4A       10.8320    1.4520   10.3520 C.3   411  PLP411      0.2116
      8  O4A       11.9860    1.5260   11.2930 O.3   411  PLP411     -0.2151
      9  C5         8.8150    0.8040   11.9650 C.ar  411  PLP411      0.0286
     10  C6         7.7680   -0.0200   12.2500 C.ar  411  PLP411      0.0966
     11  C5A        9.0140    1.9600   12.9450 C.3   411  PLP411      0.1816
     12  O4P       10.2790    2.6210   13.1420 O.3   411  PLP411     -0.2653
     13  P         10.1690    3.8540   14.1580 P.3   411  PLP411      0.5329
     14  O1P        8.8610    4.4810   14.0470 O.3   411  PLP411     -0.1145
     15  O2P       11.2560    4.8130   13.8030 O.2   411  PLP411     -0.2224
     16  O3P       10.2660    3.1720   15.5340 O.3   411  PLP411     -0.1145
@<TRIPOS>BOND
     1     5     4    1
     2     3     2    1
     3     4     2   ar
     4     4     6   ar
     5     2     1   ar
     6     7     6    1
     7     7     8    1
     8     6     9   ar
     9     1    10   ar
    10     9    10   ar
    11     9    11    1
    12    11    12    1
    13    12    13    1
    14    15    13    2
    15    14    13    1
    16    13    16    1
