@<TRIPOS>MOLECULE
1akb_PPD_A_1.pdb
 24 24 0 0 0
SMALL
GASTEIGER

@<TRIPOS>ATOM
      1  N1        43.8280   15.9090   45.4180 N.ar  411  PPD411     -0.2452
      2  C2        45.0960   15.5900   45.7740 C.ar  411  PPD411      0.0978
      3  C2A       45.5950   16.2320   47.0440 C.3   411  PPD411      0.0555
      4  C3        45.8080   14.6810   44.9200 C.ar  411  PPD411      0.2062
      5  O3        47.0390   14.4350   45.4010 O.3   411  PPD411     -0.2856
      6  C4        45.2410   14.1570   43.7830 C.ar  411  PPD411      0.0353
      7  C4A       46.0630   13.2070   42.9400 C.3   411  PPD411      0.1186
      8  C5        43.9060   14.5750   43.4890 C.ar  411  PPD411      0.0275
      9  C6        43.2530   15.4320   44.3080 C.ar  411  PPD411      0.0965
     10  C5A       43.1840   14.0900   42.2320 C.3   411  PPD411      0.1816
     11  O4P       43.3250   12.7690   41.8080 O.3   411  PPD411     -0.2653
     12  P         42.5030   12.1300   40.5930 P.3   411  PPD411      0.5329
     13  O1P       42.0320   13.1940   39.6870 O.2   411  PPD411     -0.2224
     14  O2P       41.3680   11.4220   41.2730 O.3   411  PPD411     -0.1145
     15  O3P       43.4860   11.2510   39.8550 O.3   411  PPD411     -0.1145
     16  N         47.4730   13.7130   43.0480 N.3   411  PPD411     -0.2029
     17  CA        48.4290   12.7260   42.4880 C.3   411  PPD411      0.1874
     18  CB        48.0700   12.4620   41.0300 C.3   411  PPD411      0.1429
     19  CG        48.1890   13.5550   40.0190 C.2   411  PPD411      0.3669
     20  OD1       48.7680   14.6440   40.2570 O.co2 411  PPD411     -0.2456
     21  OD2       47.6240   13.2490   38.9210 O.co2 411  PPD411     -0.2456
     22  C         49.8520   13.2470   42.6840 C.2   411  PPD411      0.3808
     23  O         50.8720   12.7320   42.0730 O.co2 411  PPD411     -0.2441
     24  OXT       50.0550   14.2300   43.4820 O.co2 411  PPD411     -0.2441
@<TRIPOS>BOND
     1    21    19   ar
     2    13    12    2
     3    15    12    1
     4    19    20   ar
     5    19    18    1
     6    12    14    1
     7    12    11    1
     8    18    17    1
     9    11    10    1
    10    23    22   ar
    11    10     8    1
    12    17    22    1
    13    17    16    1
    14    22    24   ar
    15     7    16    1
    16     7     6    1
    17     8     6   ar
    18     8     9   ar
    19     6     4   ar
    20     9     1   ar
    21     4     5    1
    22     4     2   ar
    23     1     2   ar
    24     2     3    1
