@<TRIPOS>MOLECULE
1akc_PPE_A_1.pdb
 25 25 0 0 0
SMALL
GASTEIGER

@<TRIPOS>ATOM
      1  N1        43.6900   15.7800   44.9460 N.ar  411  PPE411     -0.2452
      2  C2        44.9820   15.4560   45.2620 C.ar  411  PPE411      0.0978
      3  C2A       45.3850   16.2080   46.5150 C.3   411  PPE411      0.0555
      4  C3        45.6840   14.5200   44.4140 C.ar  411  PPE411      0.2062
      5  O3        46.9510   14.3020   44.8570 O.3   411  PPE411     -0.2856
      6  C4        45.1270   13.9530   43.2710 C.ar  411  PPE411      0.0353
      7  C4A       45.9100   12.9910   42.3880 C.3   411  PPE411      0.1186
      8  C5        43.7830   14.3830   43.0690 C.ar  411  PPE411      0.0275
      9  C6        43.0780   15.2630   43.8630 C.ar  411  PPE411      0.0965
     10  C5A       42.9440   13.9280   41.8700 C.3   411  PPE411      0.1816
     11  OP4       43.3040   12.7640   41.2240 O.3   411  PPE411     -0.2653
     12  P         42.3560   12.0190   40.1660 P.3   411  PPE411      0.5329
     13  OP1       41.2150   11.3920   40.7830 O.3   411  PPE411     -0.1145
     14  OP2       43.3120   11.2350   39.2880 O.2   411  PPE411     -0.2224
     15  OP3       41.7450   13.1640   39.3920 O.3   411  PPE411     -0.1145
     16  NA        47.3350   13.5140   42.5080 N.3   411  PPE411     -0.2034
     17  CAA       48.3140   12.3790   42.4000 C.3   411  PPE411      0.1766
     18  CBA       48.0490   11.5410   41.1570 C.3   411  PPE411      0.0407
     19  CGA       48.6200   12.1200   39.8730 C.3   411  PPE411      0.1161
     20  CDA       47.9090   13.4110   39.5120 C.2   411  PPE411      0.3649
     21  OE1       48.4320   14.4280   39.9100 O.co2 411  PPE411     -0.2457
     22  OE2       46.8930   13.2480   38.8120 O.co2 411  PPE411     -0.2457
     23  CA        49.7570   12.9090   42.4280 C.2   411  PPE411      0.3803
     24  OA        49.8220   14.0840   43.1160 O.co2 411  PPE411     -0.2441
     25  OXT       50.7930   12.2900   41.8960 O.co2 411  PPE411     -0.2441
@<TRIPOS>BOND
     1    22    20   ar
     2    14    12    2
     3    15    12    1
     4    20    19    1
     5    20    21   ar
     6    19    18    1
     7    12    13    1
     8    12    11    1
     9    18    17    1
    10    11    10    1
    11    10     8    1
    12    25    23   ar
    13     7    16    1
    14     7     6    1
    15    17    23    1
    16    17    16    1
    17    23    24   ar
    18     8     6   ar
    19     8     9   ar
    20     6     4   ar
    21     9     1   ar
    22     4     5    1
    23     4     2   ar
    24     1     2   ar
    25     2     3    1
