@<TRIPOS>MOLECULE
1akd_CAM_A_1.pdb
 11 12 0 0 0
SMALL
GASTEIGER

@<TRIPOS>ATOM
      1  C1        17.7020   23.6980    7.1180 C.3   420  CAM420      0.0515
      2  C2        18.4620   23.9710    8.3910 C.2   420  CAM420      0.1498
      3  O         19.5710   23.8500    8.7350 O.2   420  CAM420     -0.2961
      4  C3        17.2000   24.0710    9.3170 C.3   420  CAM420      0.0645
      5  C4        15.9310   23.7690    8.4180 C.3   420  CAM420      0.0077
      6  C5        16.0350   22.2830    8.0580 C.3   420  CAM420      0.0009
      7  C6        17.2750   22.2100    7.1290 C.3   420  CAM420      0.0069
      8  C7        16.3960   24.4330    7.1610 C.3   420  CAM420      0.0066
      9  C8        16.5400   25.9500    7.3510 C.3   420  CAM420      0.0004
     10  C9        15.4610   24.1240    5.9830 C.3   420  CAM420      0.0004
     11  C10       18.5730   23.9580    5.9020 C.3   420  CAM420      0.0073
@<TRIPOS>BOND
     1    11     1    1
     2    10     8    1
     3     1     7    1
     4     1     8    1
     5     1     2    1
     6     7     6    1
     7     8     9    1
     8     8     5    1
     9     6     5    1
    10     2     3    2
    11     2     4    1
    12     5     4    1
