@<TRIPOS>MOLECULE
1akd_HEM_A_1.pdb
 43 50 0 0 0
SMALL
GASTEIGER

@<TRIPOS>ATOM
      1 FE         12.7440   20.5930    9.4110 Fe    417  HEM417      0.0000
      2  CHA       11.9640   22.3000    6.5250 C.2   417  HEM417      0.0000
      3  CHB       12.3500   23.4270   11.2680 C.2   417  HEM417      0.0000
      4  CHC       13.4520   18.8580   12.3020 C.2   417  HEM417      0.0000
      5  CHD       13.7420   17.9240    7.5120 C.2   417  HEM417      0.0000
      6  NA        12.2210   22.4640    9.0010 N.2   417  HEM417      0.0000
      7  C1A       11.9130   23.0170    7.7420 C.2   417  HEM417      0.0000
      8  C2A       11.6020   24.4550    7.8540 C.2   417  HEM417      0.0000
      9  C3A       11.7390   24.7640    9.1720 C.2   417  HEM417      0.0000
     10  C4A       12.1110   23.5260    9.8830 C.2   417  HEM417      0.0000
     11  CMA       11.5640   26.1680    9.7550 C.3   417  HEM417      0.0000
     12  CAA       11.2180   25.4530    6.7400 C.3   417  HEM417      0.0000
     13  CBA       12.4310   26.0840    6.0500 C.3   417  HEM417      0.0000
     14  CGA       12.0780   27.2360    5.1060 C.2   417  HEM417      0.0000
     15  O1A       10.8950   27.6280    5.0190 O.co2 417  HEM417      0.0000
     16  O2A       13.0000   27.7670    4.4580 O.co2 417  HEM417      0.0000
     17  NB        12.8640   21.0470   11.4230 N.ar  417  HEM417      0.0000
     18  C1B       12.6810   22.2870   12.0030 C.ar  417  HEM417      0.0000
     19  C2B       12.8050   22.2070   13.4690 C.ar  417  HEM417      0.0000
     20  C3B       13.0900   20.8780   13.7740 C.ar  417  HEM417      0.0000
     21  C4B       13.1180   20.1810   12.4800 C.ar  417  HEM417      0.0000
     22  CMB       12.5380   23.3740   14.4240 C.3   417  HEM417      0.0000
     23  CAB       13.2800   20.2350   15.0140 C.3   417  HEM417      0.0000
     24  CBB       13.3350   20.7970   16.3480 C.3   417  HEM417      0.0000
     25  NC        13.4770   18.8110    9.8290 N.2   417  HEM417      0.0000
     26  C1C       13.6880   18.2340   11.0880 C.2   417  HEM417      0.0000
     27  C2C       14.2590   16.8960   10.9610 C.2   417  HEM417      0.0000
     28  C3C       14.3460   16.6230    9.6210 C.2   417  HEM417      0.0000
     29  C4C       13.8890   17.8300    8.9210 C.2   417  HEM417      0.0000
     30  CMC       14.6480   15.9450   12.0910 C.3   417  HEM417      0.0000
     31  CAC       14.5220   15.3570    9.0740 C.3   417  HEM417      0.0000
     32  CBC       15.7470   14.8780    8.4850 C.3   417  HEM417      0.0000
     33  ND        12.8060   20.1780    7.3860 N.ar  417  HEM417      0.0000
     34  C1D       13.1840   18.9820    6.7970 C.ar  417  HEM417      0.0000
     35  C2D       12.9340   19.0050    5.3520 C.ar  417  HEM417      0.0000
     36  C3D       12.4930   20.2580    5.0660 C.ar  417  HEM417      0.0000
     37  C4D       12.4030   20.9900    6.3390 C.ar  417  HEM417      0.0000
     38  CMD       13.0890   17.8430    4.3820 C.3   417  HEM417      0.0000
     39  CAD       12.2280   20.7900    3.6710 C.3   417  HEM417      0.0000
     40  CBD       10.7640   20.8210    3.2640 C.3   417  HEM417      0.0000
     41  CGD       10.5000   21.7020    2.0540 C.2   417  HEM417      0.0000
     42  O1D        9.4640   21.5020    1.3960 O.co2 417  HEM417      0.0000
     43  O2D       11.3020   22.6170    1.7740 O.co2 417  HEM417      0.0000
@<TRIPOS>BOND
     1    42    41   ar
     2    43    41   ar
     3    41    40    1
     4    40    39    1
     5    39    36    1
     6    38    35    1
     7    16    14   ar
     8    15    14   ar
     9    36    35   ar
    10    36    37   ar
    11    14    13    1
    12    35    34   ar
    13    13    12    1
    14    37     2    2
    15    37    33   ar
    16     2     7    1
    17    12     8    1
    18    34    33   ar
    19    34     5    2
    20    33     1    1
    21     5    29    1
    22     7     8    1
    23     7     6    2
    24     8     9    2
    25    32    31    1
    26    29    28    1
    27    29    25    2
    28     6     1    1
    29     6    10    1
    30    31    28    1
    31     9    11    1
    32     9    10    1
    33     1    25    1
    34     1    17    1
    35    28    27    2
    36    25    26    1
    37    10     3    2
    38    27    26    1
    39    27    30    1
    40    26     4    2
    41     3    18    1
    42    17    18   ar
    43    17    21   ar
    44    18    19   ar
    45     4    21    1
    46    21    20   ar
    47    19    20   ar
    48    19    22    1
    49    20    23    1
    50    23    24    1
