@<TRIPOS>MOLECULE
1akq_FMN_A_1.pdb
 31 33 0 0 0
SMALL
GASTEIGER

@<TRIPOS>ATOM
      1  N1        52.0070   40.1660   12.3960 N.2   149  FMN149     -0.2887
      2  C2        50.8860   40.8480   12.8220 C.1   149  FMN149      0.3669
      3  O2        50.8620   41.5090   13.9930 O.2   149  FMN149     -0.1744
      4  N3        49.7480   40.9330   12.0510 N.2   149  FMN149     -0.2300
      5  C4        49.6620   40.3010   10.8090 C.1   149  FMN149      0.2513
      6  O4        48.4910   40.3930   10.1210 O.2   149  FMN149     -0.2057
      7  C4A       50.8030   39.6000   10.3340 C.2   149  FMN149      0.2703
      8  N5        50.7260   38.9530    9.1080 N.2   149  FMN149     -0.3882
      9  C5A       51.8870   38.3740    8.5960 C.2   149  FMN149      0.1277
     10  C6        51.8440   37.8850    7.2690 C.3   149  FMN149      0.0820
     11  C7        53.0240   37.3220    6.7760 C.2   149  FMN149     -0.0408
     12  C7M       53.0980   36.7900    5.4410 C.3   149  FMN149      0.0265
     13  C8        54.1610   37.2660    7.5850 C.2   149  FMN149     -0.0280
     14  C8M       55.3840   36.7170    7.1220 C.3   149  FMN149      0.0304
     15  C9        54.1930   37.7640    8.9040 C.2   149  FMN149      0.0123
     16  C9A       53.0220   38.3370    9.4360 C.2   149  FMN149      0.0793
     17  N10       53.0760   38.8410   10.7440 N.pl3 149  FMN149     -0.2545
     18  C10       51.9500   39.5500   11.1530 C.2   149  FMN149      0.2449
     19  C1'       54.1560   38.8360   11.6360 C.3   149  FMN149      0.1336
     20  C2'       54.2190   37.5020   12.4320 C.3   149  FMN149      0.2048
     21  O2'       53.1570   37.3740   13.3870 O.3   149  FMN149     -0.2185
     22  C3'       55.5400   37.4860   13.2390 C.3   149  FMN149      0.2165
     23  O3'       56.6060   37.2000   12.3410 O.3   149  FMN149     -0.2175
     24  C4'       55.6110   36.5450   14.3770 C.3   149  FMN149      0.2147
     25  O4'       56.8370   36.7900   15.0930 O.3   149  FMN149     -0.2176
     26  C5'       55.5420   35.1750   13.9900 C.3   149  FMN149      0.1892
     27  O5'       55.5480   34.4550   15.2120 O.3   149  FMN149     -0.2674
     28  P         55.6480   32.8070   15.2870 P.3   149  FMN149      0.5327
     29  O1P       54.4510   32.1200   14.3780 O.2   149  FMN149     -0.2224
     30  O2P       55.3760   32.3260   16.8820 O.3   149  FMN149     -0.1145
     31  O3P       57.1630   32.3790   14.8620 O.3   149  FMN149     -0.1145
@<TRIPOS>BOND
     1    12    11    1
     2    11    10    1
     3    11    13    2
     4    14    13    1
     5    10     9    1
     6    13    15    1
     7     9     8    2
     8     9    16    1
     9    15    16    2
    10     8     7    2
    11    16    17    1
    12     6     5    2
    13     7     5    1
    14     7    18    1
    15    17    18    1
    16    17    19    1
    17     5     4    2
    18    18     1    2
    19    19    20    1
    20     4     2    2
    21    23    22    1
    22     1     2    2
    23    20    22    1
    24    20    21    1
    25     2     3    2
    26    22    24    1
    27    26    24    1
    28    26    27    1
    29    24    25    1
    30    29    28    2
    31    31    28    1
    32    27    28    1
    33    28    30    1
