@<TRIPOS>MOLECULE
1akr_FMN_A_1.pdb
 31 33 0 0 0
SMALL
GASTEIGER

@<TRIPOS>ATOM
      1  N1        -4.1670   36.0330   18.0950 N.2   149  FMN149     -0.2887
      2  C2        -3.2060   36.7360   18.7940 C.1   149  FMN149      0.3669
      3  O2        -2.3360   37.5450   18.1480 O.2   149  FMN149     -0.1744
      4  N3        -3.1450   36.6640   20.1800 N.2   149  FMN149     -0.2300
      5  C4        -4.0190   35.8690   20.9070 C.1   149  FMN149      0.2513
      6  O4        -3.8960   35.8010   22.2740 O.2   149  FMN149     -0.2057
      7  C4A       -5.0060   35.1320   20.1860 C.2   149  FMN149      0.2706
      8  N5        -5.8690   34.3250   20.8950 N.2   149  FMN149     -0.3841
      9  C5A       -6.8990   33.7120   20.1710 C.2   149  FMN149      0.1452
     10  C6        -7.8640   33.0020   20.9350 C.2   149  FMN149      0.0252
     11  C7        -8.8950   32.4130   20.1900 C.2   149  FMN149     -0.0375
     12  C7M       -9.9050   31.6880   20.9090 C.3   149  FMN149      0.0268
     13  C8        -8.9740   32.5170   18.7920 C.3   149  FMN149      0.0417
     14  C8M      -10.0430   31.9070   18.0560 C.3   149  FMN149      0.0091
     15  C9        -7.9980   33.2220   18.0570 C.2   149  FMN149     -0.0049
     16  C9A       -6.9310   33.8180   18.7710 C.2   149  FMN149      0.0795
     17  N10       -5.9830   34.5220   18.0320 N.pl3 149  FMN149     -0.2545
     18  C10       -5.0500   35.2280   18.7760 C.2   149  FMN149      0.2449
     19  C1'       -5.9430   34.6770   16.6350 C.3   149  FMN149      0.1336
     20  C2'       -5.2750   33.4120   16.0560 C.3   149  FMN149      0.2048
     21  O2'       -3.8870   33.3320   16.4270 O.3   149  FMN149     -0.2185
     22  C3'       -5.3640   33.5390   14.5100 C.3   149  FMN149      0.2165
     23  O3'       -6.7170   33.2100   14.2170 O.3   149  FMN149     -0.2175
     24  C4'       -4.4010   32.7710   13.7020 C.3   149  FMN149      0.2147
     25  O4'       -4.5360   33.1090   12.2930 O.3   149  FMN149     -0.2176
     26  C5'       -4.4510   31.3460   13.8580 C.3   149  FMN149      0.1892
     27  O5'       -3.3530   30.8000   13.1270 O.3   149  FMN149     -0.2674
     28  P         -3.2830   29.1870   12.7530 P.3   149  FMN149      0.5327
     29  O1P       -3.3950   28.3190   14.1420 O.3   149  FMN149     -0.1145
     30  O2P       -1.8390   28.9240   11.9800 O.3   149  FMN149     -0.1145
     31  O3P       -4.4640   28.8110   11.6560 O.2   149  FMN149     -0.2224
@<TRIPOS>BOND
     1    31    28    2
     2    30    28    1
     3    25    24    1
     4    28    27    1
     5    28    29    1
     6    27    26    1
     7    24    26    1
     8    24    22    1
     9    23    22    1
    10    22    20    1
    11    20    21    1
    12    20    19    1
    13    19    17    1
    14    17    16    1
    15    17    18    1
    16    14    13    1
    17    15    16    2
    18    15    13    1
    19     1    18    2
    20     1     2    2
    21     3     2    2
    22    16     9    1
    23    18     7    1
    24    13    11    1
    25     2     4    2
    26     9     8    2
    27     9    10    1
    28     4     5    2
    29     7     8    2
    30     7     5    1
    31    11    12    1
    32    11    10    2
    33     5     6    2
