@<TRIPOS>MOLECULE
1akt_FMN_A_1.pdb
 31 33 0 0 0
SMALL
GASTEIGER

@<TRIPOS>ATOM
      1  N1        -4.0330   35.9560   18.2020 N.2   149  FMN149     -0.2887
      2  C2        -3.0990   36.5730   18.8730 C.1   149  FMN149      0.3669
      3  O2        -2.3760   37.3340   18.3350 O.2   149  FMN149     -0.1744
      4  N3        -3.0880   36.4810   20.2900 N.2   149  FMN149     -0.2300
      5  C4        -3.9840   35.7140   21.0170 C.1   149  FMN149      0.2513
      6  O4        -3.7350   35.6470   22.2420 O.2   149  FMN149     -0.2057
      7  C4A       -4.9900   34.9910   20.3690 C.2   149  FMN149      0.2706
      8  N5        -5.8800   34.2390   20.8650 N.2   149  FMN149     -0.3841
      9  C5A       -6.7790   33.6190   20.1620 C.2   149  FMN149      0.1452
     10  C6        -7.7110   32.8520   20.9390 C.2   149  FMN149      0.0252
     11  C7        -8.6540   32.2260   20.2200 C.2   149  FMN149     -0.0375
     12  C7M       -9.8080   31.4220   20.9260 C.3   149  FMN149      0.0268
     13  C8        -8.8110   32.2540   18.7830 C.3   149  FMN149      0.0417
     14  C8M       -9.9110   31.5450   18.0960 C.3   149  FMN149      0.0091
     15  C9        -7.8770   33.0220   18.0580 C.2   149  FMN149     -0.0049
     16  C9A       -6.8780   33.6830   18.6960 C.2   149  FMN149      0.0795
     17  N10       -5.8440   34.5250   18.1190 N.pl3 149  FMN149     -0.2545
     18  C10       -4.9430   35.1710   18.8600 C.2   149  FMN149      0.2449
     19  C1'       -5.9760   34.3830   16.6510 C.3   149  FMN149      0.1336
     20  C2'       -5.1620   33.1640   16.1700 C.3   149  FMN149      0.2048
     21  O2'       -3.8010   33.1350   16.6170 O.3   149  FMN149     -0.2185
     22  C3'       -5.2640   33.5120   14.7050 C.3   149  FMN149      0.2165
     23  O3'       -6.5710   33.0460   14.3280 O.3   149  FMN149     -0.2175
     24  C4'       -4.2570   32.6540   13.7810 C.3   149  FMN149      0.2147
     25  O4'       -4.6100   32.9790   12.3720 O.3   149  FMN149     -0.2176
     26  C5'       -4.4030   31.1850   13.9060 C.3   149  FMN149      0.1892
     27  O5'       -3.3270   30.5560   13.1690 O.3   149  FMN149     -0.2674
     28  P         -3.2580   29.0850   12.8380 P.3   149  FMN149      0.5327
     29  O1P       -3.3260   28.2850   14.0630 O.3   149  FMN149     -0.1145
     30  O2P       -1.9740   28.7940   12.1290 O.3   149  FMN149     -0.1145
     31  O3P       -4.3490   28.6660   11.7890 O.2   149  FMN149     -0.2224
@<TRIPOS>BOND
     1    31    28    2
     2    30    28    1
     3    25    24    1
     4    28    27    1
     5    28    29    1
     6    27    26    1
     7    24    26    1
     8    24    22    1
     9    23    22    1
    10    22    20    1
    11    20    21    1
    12    20    19    1
    13    19    17    1
    14    15    16    2
    15    15    13    1
    16    14    13    1
    17    17    16    1
    18    17    18    1
    19     1    18    2
    20     1     2    2
    21     3     2    2
    22    16     9    1
    23    13    11    1
    24    18     7    1
    25     2     4    2
    26     9     8    2
    27     9    10    1
    28    11    12    1
    29    11    10    2
    30     4     5    2
    31     7     8    2
    32     7     5    1
    33     5     6    2
