@<TRIPOS>MOLECULE
1aku_FMN_A_1.pdb
 31 33 0 0 0
SMALL
GASTEIGER

@<TRIPOS>ATOM
      1  N1         0.5740   40.2350   22.2290 N.2   150  FMN150     -0.2887
      2  C2         1.6070   41.0320   21.7920 C.1   150  FMN150      0.3669
      3  O2         1.4650   41.6470   20.6030 O.2   150  FMN150     -0.1744
      4  N3         2.7210   41.2670   22.5540 N.2   150  FMN150     -0.2300
      5  C4         2.8890   40.6220   23.8080 C.1   150  FMN150      0.2513
      6  O4         4.0490   40.8080   24.5510 O.2   150  FMN150     -0.2057
      7  C4A        1.8440   39.7700   24.2690 C.2   150  FMN150      0.2703
      8  N5         2.0030   39.1120   25.4900 N.2   150  FMN150     -0.3882
      9  C5A        0.8820   38.4580   26.0710 C.2   150  FMN150      0.1277
     10  C6         0.9450   37.9630   27.4120 C.3   150  FMN150      0.0820
     11  C7        -0.1800   37.3360   27.9880 C.2   150  FMN150     -0.0408
     12  C7M       -0.2220   36.8010   29.3400 C.3   150  FMN150      0.0265
     13  C8        -1.3370   37.1990   27.2070 C.2   150  FMN150     -0.0280
     14  C8M       -2.5290   36.5820   27.7010 C.3   150  FMN150      0.0304
     15  C9        -1.3880   37.6930   25.8620 C.2   150  FMN150      0.0123
     16  C9A       -0.2780   38.3420   25.2690 C.2   150  FMN150      0.0793
     17  N10       -0.3620   38.7880   23.9140 N.pl3 150  FMN150     -0.2545
     18  C10        0.6940   39.5900   23.4670 C.2   150  FMN150      0.2449
     19  C1'       -1.5070   38.6690   23.0910 C.3   150  FMN150      0.1336
     20  C2'       -1.6290   37.2830   22.4530 C.3   150  FMN150      0.2048
     21  O2'       -0.5390   37.0060   21.5770 O.3   150  FMN150     -0.2185
     22  C3'       -2.8930   37.3070   21.5720 C.3   150  FMN150      0.2165
     23  O3'       -3.9890   37.1580   22.4940 O.3   150  FMN150     -0.2175
     24  C4'       -2.9540   36.3010   20.4740 C.3   150  FMN150      0.2147
     25  O4'       -4.2430   36.5140   19.7800 O.3   150  FMN150     -0.2176
     26  C5'       -2.8950   34.9450   20.9080 C.3   150  FMN150      0.1892
     27  O5'       -2.9500   34.1110   19.7880 O.3   150  FMN150     -0.2674
     28  P         -3.0820   32.4680   19.7500 P.3   150  FMN150      0.5327
     29  O1P       -2.0370   31.6610   20.7580 O.3   150  FMN150     -0.1145
     30  O2P       -2.7910   31.8840   18.1950 O.2   150  FMN150     -0.2224
     31  O3P       -4.6380   32.0550   20.1390 O.3   150  FMN150     -0.1145
@<TRIPOS>BOND
     1    30    28    2
     2    28    27    1
     3    28    31    1
     4    28    29    1
     5    25    24    1
     6    27    26    1
     7    24    26    1
     8    24    22    1
     9     3     2    2
    10    22    20    1
    11    22    23    1
    12    21    20    1
    13     2     1    2
    14     2     4    2
    15     1    18    2
    16    20    19    1
    17     4     5    2
    18    19    17    1
    19    18    17    1
    20    18     7    1
    21     5     7    1
    22     5     6    2
    23    17    16    1
    24     7     8    2
    25    16    15    2
    26    16     9    1
    27     8     9    2
    28    15    13    1
    29     9    10    1
    30    13    14    1
    31    13    11    2
    32    10    11    1
    33    11    12    1
