@<TRIPOS>MOLECULE
1akv_FMN_A_1.pdb
 31 33 0 0 0
SMALL
GASTEIGER

@<TRIPOS>ATOM
      1  N1        51.7950   11.9870   21.4910 N.2   152  FMN152     -0.2887
      2  C2        50.7230   11.2320   21.0400 C.1   152  FMN152      0.3669
      3  O2        50.9110   10.6170   19.8500 O.2   152  FMN152     -0.1744
      4  N3        49.5460   11.0760   21.7290 N.2   152  FMN152     -0.2300
      5  C4        49.3900   11.6930   22.9690 C.1   152  FMN152      0.2513
      6  O4        48.2420   11.5800   23.7070 O.2   152  FMN152     -0.2057
      7  C4A       50.4460   12.4910   23.4670 C.2   152  FMN152      0.2703
      8  N5        50.2940   13.1160   24.6950 N.2   152  FMN152     -0.3882
      9  C5A       51.4060   13.7270   25.2760 C.2   152  FMN152      0.1277
     10  C6        51.3100   14.2050   26.6080 C.3   152  FMN152      0.0820
     11  C7        52.4690   14.7630   27.1790 C.2   152  FMN152     -0.0408
     12  C7M       52.4360   15.2210   28.5590 C.3   152  FMN152      0.0265
     13  C8        53.6470   14.8770   26.4300 C.2   152  FMN152     -0.0280
     14  C8M       54.8660   15.4090   26.9480 C.3   152  FMN152      0.0304
     15  C9        53.7130   14.4190   25.0850 C.2   152  FMN152      0.0123
     16  C9A       52.5780   13.8140   24.5080 C.2   152  FMN152      0.0793
     17  N10       52.6730   13.3940   23.1650 N.pl3 152  FMN152     -0.2545
     18  C10       51.6020   12.6600   22.6810 C.2   152  FMN152      0.2449
     19  C1'       53.8200   13.4500   22.3620 C.3   152  FMN152      0.1336
     20  C2'       53.9590   14.8180   21.6960 C.3   152  FMN152      0.2048
     21  O2'       52.8340   15.0020   20.8020 O.3   152  FMN152     -0.2185
     22  C3'       55.3120   14.8180   20.9480 C.3   152  FMN152      0.2165
     23  O3'       56.3890   15.0320   21.8940 O.3   152  FMN152     -0.2175
     24  C4'       55.4190   15.7990   19.8230 C.3   152  FMN152      0.2147
     25  O4'       56.6940   15.5730   19.1200 O.3   152  FMN152     -0.2176
     26  C5'       55.4110   17.1850   20.1900 C.3   152  FMN152      0.1892
     27  O5'       55.1980   17.9400   18.9780 O.3   152  FMN152     -0.2674
     28  P         55.2580   19.5780   18.9890 P.3   152  FMN152      0.5327
     29  O1P       54.1280   20.3430   19.9540 O.3   152  FMN152     -0.1145
     30  O2P       54.9600   20.1180   17.3950 O.2   152  FMN152     -0.2224
     31  O3P       56.7860   20.0360   19.3990 O.3   152  FMN152     -0.1145
@<TRIPOS>BOND
     1    30    28    2
     2    27    28    1
     3    27    26    1
     4    28    31    1
     5    28    29    1
     6    25    24    1
     7    24    26    1
     8    24    22    1
     9     3     2    2
    10    21    20    1
    11    22    20    1
    12    22    23    1
    13     2     1    2
    14     2     4    2
    15     1    18    2
    16    20    19    1
    17     4     5    2
    18    19    17    1
    19    18    17    1
    20    18     7    1
    21     5     7    1
    22     5     6    2
    23    17    16    1
    24     7     8    2
    25    16    15    2
    26    16     9    1
    27     8     9    2
    28    15    13    1
    29     9    10    1
    30    13    14    1
    31    13    11    2
    32    10    11    1
    33    11    12    1
