@<TRIPOS>MOLECULE
1akw_FMN_A_1.pdb
 31 33 0 0 0
SMALL
GASTEIGER

@<TRIPOS>ATOM
      1  N1        -4.2130   36.2990   18.2440 N.2   149  FMN149     -0.2887
      2  C2        -3.2510   36.9960   18.9590 C.1   149  FMN149      0.3669
      3  O2        -2.3890   37.8000   18.2920 O.2   149  FMN149     -0.1744
      4  N3        -3.1770   36.9490   20.3410 N.2   149  FMN149     -0.2300
      5  C4        -4.0500   36.1500   21.0580 C.1   149  FMN149      0.2513
      6  O4        -3.8830   36.1220   22.4230 O.2   149  FMN149     -0.2057
      7  C4A       -5.0310   35.4060   20.3250 C.2   149  FMN149      0.2706
      8  N5        -5.8900   34.5820   21.0130 N.2   149  FMN149     -0.3841
      9  C5A       -6.9130   33.9520   20.3070 C.2   149  FMN149      0.1452
     10  C6        -7.8550   33.2420   21.1040 C.2   149  FMN149      0.0252
     11  C7        -8.9200   32.6470   20.4080 C.2   149  FMN149     -0.0375
     12  C7M       -9.9110   31.9230   21.1630 C.3   149  FMN149      0.0268
     13  C8        -9.0110   32.7570   19.0140 C.3   149  FMN149      0.0417
     14  C8M      -10.0810   32.1400   18.2820 C.3   149  FMN149      0.0091
     15  C9        -8.0570   33.4550   18.2480 C.2   149  FMN149     -0.0049
     16  C9A       -6.9690   34.0750   18.9150 C.2   149  FMN149      0.0795
     17  N10       -6.0340   34.7810   18.1620 N.pl3 149  FMN149     -0.2545
     18  C10       -5.1070   35.4870   18.9180 C.2   149  FMN149      0.2449
     19  C1'       -5.9800   34.9500   16.7580 C.3   149  FMN149      0.1336
     20  C2'       -5.3210   33.6920   16.1540 C.3   149  FMN149      0.2048
     21  O2'       -3.9360   33.6090   16.5550 O.3   149  FMN149     -0.2185
     22  C3'       -5.4010   33.8000   14.6100 C.3   149  FMN149      0.2165
     23  O3'       -6.7470   33.4530   14.2750 O.3   149  FMN149     -0.2175
     24  C4'       -4.4430   33.0190   13.8050 C.3   149  FMN149      0.2147
     25  O4'       -4.5980   33.3770   12.4100 O.3   149  FMN149     -0.2176
     26  C5'       -4.5060   31.5910   13.9900 C.3   149  FMN149      0.1892
     27  O5'       -3.4330   31.0060   13.2410 O.3   149  FMN149     -0.2674
     28  P         -3.3280   29.3950   12.8670 P.3   149  FMN149      0.5327
     29  O1P       -3.4330   28.5040   14.2550 O.3   149  FMN149     -0.1145
     30  O2P       -1.8710   29.1220   12.0910 O.3   149  FMN149     -0.1145
     31  O3P       -4.5160   28.9790   11.7880 O.2   149  FMN149     -0.2224
@<TRIPOS>BOND
     1    31    28    2
     2    30    28    1
     3    25    24    1
     4    28    27    1
     5    28    29    1
     6    27    26    1
     7    24    26    1
     8    24    22    1
     9    23    22    1
    10    22    20    1
    11    20    21    1
    12    20    19    1
    13    19    17    1
    14    17    16    1
    15    17    18    1
    16     1    18    2
    17     1     2    2
    18    15    16    2
    19    15    13    1
    20    14    13    1
    21     3     2    2
    22    16     9    1
    23    18     7    1
    24     2     4    2
    25    13    11    1
    26     9     8    2
    27     9    10    1
    28     7     8    2
    29     7     5    1
    30     4     5    2
    31    11    10    2
    32    11    12    1
    33     5     6    2
