@<TRIPOS>MOLECULE
1al2_III_0_1.pdb
 29 28 0 0 0
SMALL
GASTEIGER

@<TRIPOS>ATOM
      1  N          8.5830   50.6310   85.1640 N.3     6  GLY6       -0.1210
      2  CA         7.1810   50.2560   85.3690 C.3     6  GLY6        0.1956
      3  C          6.9020   49.5680   86.7170 C.2     6  GLY6        0.2613
      4  O          6.6250   50.2080   87.7470 O.2     6  GLY6       -0.2717
      5  N          7.0200   48.2390   86.6950 N.am    7  SER7       -0.1938
      6  CA         6.8530   47.4050   87.8700 C.3     7  SER7        0.2055
      7  C          7.7240   46.1700   87.8520 C.2     7  SER7        0.2644
      8  O          7.7770   45.4230   86.8810 O.2     7  SER7       -0.2714
      9  CB         5.4520   46.8190   88.0840 C.3     7  SER7        0.2130
     10  OG         4.4080   47.7710   88.1450 O.3     7  SER7       -0.2179
     11  N          8.4450   45.9510   88.9350 N.am    8  SER8       -0.1935
     12  CA         9.1550   44.6940   89.1850 C.3     8  SER8        0.2055
     13  C          8.3020   43.7910   90.0820 C.2     8  SER8        0.2644
     14  O          7.4990   44.2550   90.8540 O.2     8  SER8       -0.2714
     15  CB        10.4750   44.9170   89.8850 C.3     8  SER8        0.2130
     16  OG        11.3850   45.3550   88.8980 O.3     8  SER8       -0.2179
     17  N          8.4150   42.4710   89.9810 N.am    9  SER9       -0.1935
     18  CA         7.5860   41.5640   90.7660 C.3     9  SER9        0.2055
     19  C          8.3090   40.3730   91.3830 C.2     9  SER9        0.2643
     20  O          8.7850   39.4840   90.6840 O.2     9  SER9       -0.2714
     21  CB         6.4330   41.0100   89.9570 C.3     9  SER9        0.2130
     22  OG         5.5060   40.2380   90.7200 O.3     9  SER9       -0.2179
     23  N          8.4500   40.3750   92.6890 N.am   10  THR10      -0.1950
     24  CA         9.0860   39.3070   93.4730 C.3    10  THR10       0.1897
     25  C          8.1530   38.4530   94.3710 C.2    10  THR10       0.2313
     26  O          8.1470   38.4820   95.6200 O.2    10  THR10      -0.2863
     27  CB        10.2350   39.9450   94.3370 C.3    10  THR10       0.1794
     28  OG1        9.8810   41.2770   94.6480 O.3    10  THR10      -0.2208
     29  CG2       11.5400   39.9960   93.5680 C.3    10  THR10       0.0378
@<TRIPOS>BOND
     1     1     2    1
     2     2     3    1
     3     5     3   am
     4     5     6    1
     5     3     4    2
     6     8     7    2
     7     7     6    1
     8     7    11   am
     9     6     9    1
    10     9    10    1
    11    16    15    1
    12    11    12    1
    13    12    15    1
    14    12    13    1
    15    21    22    1
    16    21    18    1
    17    17    13   am
    18    17    18    1
    19    13    14    2
    20    20    19    2
    21    18    19    1
    22    19    23   am
    23    23    24    1
    24    24    27    1
    25    24    25    1
    26    29    27    1
    27    27    28    1
    28    25    26    2
