@<TRIPOS>MOLECULE
1al7_HST_A_1.pdb
 20 20 0 0 0
SMALL
GASTEIGER

@<TRIPOS>ATOM
      1  N1        47.0180   53.0920   19.9480 N.ar  361  HST361     -0.1205
      2  N2        47.4880   53.6560   21.0750 N.ar  361  HST361     -0.0414
      3  N3        48.2280   54.7350   20.7700 N.ar  361  HST361     -0.1198
      4  CB1       47.4680   53.8400   18.8920 C.ar  361  HST361      0.1559
      5  CB2       48.2410   54.8740   19.3950 C.ar  361  HST361      0.2089
      6  CB3       49.2300   55.7830   18.6680 C.2   361  HST361      0.4090
      7  O1        49.9400   56.5930   19.2470 O.co2 361  HST361     -0.2387
      8  O2        49.0570   55.8320   17.3220 O.co2 361  HST361     -0.2387
      9  S         46.7560   53.8760   17.2990 S.3   361  HST361     -0.0923
     10  C1        44.2430   58.3890   13.6330 C.3   361  HST361      0.0000
     11  C2        45.0680   57.1010   13.7820 C.3   361  HST361      0.0000
     12  C3        44.7280   56.2790   15.0390 C.3   361  HST361      0.0000
     13  C4        44.8490   57.0740   16.3570 C.3   361  HST361      0.0009
     14  C5        45.4970   56.2620   17.4910 C.3   361  HST361      0.0112
     15  C6        45.1820   54.7540   17.4800 C.3   361  HST361      0.0535
     16  C7        44.4670   54.1980   18.7400 C.3   361  HST361      0.0112
     17  C8        44.2220   55.2430   19.8460 C.3   361  HST361      0.0009
     18  C9        42.7500   55.2870   20.2900 C.3   361  HST361      0.0000
     19  C10       42.5450   55.0110   21.7890 C.3   361  HST361      0.0000
     20  C11       41.3780   54.0590   22.0950 C.3   361  HST361      0.0000
@<TRIPOS>BOND
     1    10    11    1
     2    11    12    1
     3    12    13    1
     4    13    14    1
     5     9    15    1
     6     9     4    1
     7     8     6   ar
     8    15    14    1
     9    15    16    1
    10     6     7   ar
    11     6     5    1
    12    16    17    1
    13     4     5   ar
    14     4     1   ar
    15     5     3   ar
    16    17    18    1
    17     1     2   ar
    18    18    19    1
    19     3     2   ar
    20    19    20    1
