@<TRIPOS>MOLECULE
1al7_FMN_A_1.pdb
 31 33 0 0 0
SMALL
GASTEIGER

@<TRIPOS>ATOM
      1  N1        50.7910   52.5280   22.9610 N.2   360  FMN360     -0.2887
      2  C2        49.7260   51.7800   23.4280 C.1   360  FMN360      0.3669
      3  O2        49.4730   51.7410   24.6270 O.2   360  FMN360     -0.1744
      4  N3        49.0000   51.1200   22.4350 N.2   360  FMN360     -0.2300
      5  C4        49.2440   51.2180   21.0630 C.1   360  FMN360      0.2513
      6  O4        48.5330   50.5690   20.2980 O.2   360  FMN360     -0.2057
      7  C4A       50.3040   52.1300   20.7060 C.2   360  FMN360      0.2706
      8  N5        50.4760   52.2750   19.3550 N.2   360  FMN360     -0.3841
      9  C5A       51.5280   53.0180   18.9240 C.2   360  FMN360      0.1452
     10  C6        51.7130   53.0940   17.5800 C.2   360  FMN360      0.0252
     11  C7        52.8470   53.6810   17.0860 C.2   360  FMN360     -0.0375
     12  C7M       52.9890   53.8660   15.5960 C.3   360  FMN360      0.0268
     13  C8        53.8030   54.1800   17.9520 C.3   360  FMN360      0.0417
     14  C8M       55.0400   54.8660   17.3970 C.3   360  FMN360      0.0091
     15  C9        53.6140   54.1120   19.3180 C.2   360  FMN360     -0.0049
     16  C9A       52.4650   53.5410   19.8110 C.2   360  FMN360      0.0795
     17  N10       52.2720   53.4210   21.1780 N.pl3 360  FMN360     -0.2545
     18  C10       51.1400   52.7540   21.6260 C.2   360  FMN360      0.2449
     19  C1'       53.2770   53.7170   22.0260 C.3   360  FMN360      0.1336
     20  C2'       53.8740   52.5530   22.8240 C.3   360  FMN360      0.2048
     21  O2'       53.8120   51.3010   22.1940 O.3   360  FMN360     -0.2185
     22  C3'       55.2410   52.7260   23.3660 C.3   360  FMN360      0.2165
     23  O3'       55.1920   53.5630   24.4920 O.3   360  FMN360     -0.2175
     24  C4'       56.4000   53.0150   22.3580 C.3   360  FMN360      0.2147
     25  O4'       56.0930   53.6450   21.1500 O.3   360  FMN360     -0.2176
     26  C5'       57.7740   53.2790   23.0500 C.3   360  FMN360      0.1892
     27  O5'       58.6440   54.1940   22.5050 O.3   360  FMN360     -0.2674
     28  P         59.5840   54.0250   21.2540 P.3   360  FMN360      0.5327
     29  O1P       60.3940   55.2390   21.4400 O.3   360  FMN360     -0.1145
     30  O2P       58.7490   54.0420   20.0480 O.2   360  FMN360     -0.2224
     31  O3P       60.2890   52.7760   21.4600 O.3   360  FMN360     -0.1145
@<TRIPOS>BOND
     1    12    11    1
     2    11    10    2
     3    11    13    1
     4    14    13    1
     5    10     9    1
     6    13    15    1
     7     9     8    2
     8     9    16    1
     9    15    16    2
    10     8     7    2
    11    16    17    1
    12    30    28    2
    13     6     5    2
    14     7     5    1
    15     7    18    1
    16     5     4    2
    17    25    24    1
    18    17    18    1
    19    17    19    1
    20    28    29    1
    21    28    31    1
    22    28    27    1
    23    18     1    2
    24    19    20    1
    25    21    20    1
    26    24    26    1
    27    24    22    1
    28     4     2    2
    29    27    26    1
    30    20    22    1
    31     1     2    2
    32    22    23    1
    33     2     3    2
