@<TRIPOS>MOLECULE
1al8_FMN_A_1.pdb
 31 33 0 0 0
SMALL
GASTEIGER

@<TRIPOS>ATOM
      1  N1        22.1800   69.1800   -1.8650 N.2   360  FMN360     -0.2890
      2  C2        21.3330   70.0790   -1.2970 C.1   360  FMN360      0.3669
      3  O2        21.3790   70.2350   -0.0940 O.2   360  FMN360     -0.1744
      4  N3        20.5240   70.7640   -2.1860 N.2   360  FMN360     -0.2300
      5  C4        20.5750   70.6410   -3.5950 C.1   360  FMN360      0.2513
      6  O4        19.7580   71.2620   -4.2870 O.2   360  FMN360     -0.2057
      7  C4A       21.5660   69.7020   -4.0490 C.2   360  FMN360      0.2700
      8  N5        21.6620   69.5850   -5.4070 N.2   360  FMN360     -0.3878
      9  C5A       22.4590   68.6050   -5.9240 C.2   360  FMN360      0.1320
     10  C6        22.5400   68.4810   -7.2930 C.2   360  FMN360      0.0250
     11  C7        23.3190   67.4860   -7.8390 C.2   360  FMN360     -0.0238
     12  C7M       23.5120   67.4130   -9.3300 C.3   360  FMN360      0.0308
     13  C8        23.9980   66.6000   -7.0030 C.2   360  FMN360     -0.0280
     14  C8M       24.7050   65.3630   -7.5080 C.3   360  FMN360      0.0304
     15  C9        23.9010   66.7370   -5.6540 C.2   360  FMN360     -0.0041
     16  C9A       23.1350   67.7320   -5.0960 C.3   360  FMN360      0.1497
     17  N10       23.0190   67.8300   -3.7040 N.pl3 360  FMN360     -0.2691
     18  C10       22.2820   68.8580   -3.2010 C.2   360  FMN360      0.2416
     19  C1'       23.6020   66.9280   -2.8920 C.3   360  FMN360      0.1294
     20  C2'       22.7270   66.0540   -1.9910 C.3   360  FMN360      0.2044
     21  O2'       21.4160   65.9560   -2.3100 O.3   360  FMN360     -0.2185
     22  C3'       23.1770   64.6870   -1.6290 C.3   360  FMN360      0.2164
     23  O3'       24.1460   64.8350   -0.6010 O.3   360  FMN360     -0.2175
     24  C4'       23.5200   63.6220   -2.6840 C.3   360  FMN360      0.2147
     25  O4'       23.9620   63.9370   -4.0180 O.3   360  FMN360     -0.2176
     26  C5'       24.2050   62.3880   -2.0690 C.3   360  FMN360      0.1892
     27  O5'       25.0830   61.5650   -2.8920 O.3   360  FMN360     -0.2674
     28  P         24.7260   60.5810   -4.0900 P.3   360  FMN360      0.5327
     29  O1P       25.9790   59.8260   -4.2410 O.3   360  FMN360     -0.1145
     30  O2P       24.4150   61.5520   -5.1760 O.2   360  FMN360     -0.2224
     31  O3P       23.5580   59.8020   -3.6120 O.3   360  FMN360     -0.1145
@<TRIPOS>BOND
     1    12    11    1
     2    11    10    2
     3    11    13    1
     4    14    13    1
     5    10     9    1
     6    13    15    2
     7     9     8    2
     8     9    16    1
     9    15    16    1
    10     8     7    2
    11    30    28    2
    12    16    17    1
    13     6     5    2
    14    29    28    1
    15    28    31    1
    16    28    27    1
    17     7     5    1
    18     7    18    1
    19    25    24    1
    20    17    18    1
    21    17    19    1
    22     5     4    2
    23    18     1    2
    24    19    20    1
    25    27    26    1
    26    24    26    1
    27    24    22    1
    28    21    20    1
    29     4     2    2
    30    20    22    1
    31     1     2    2
    32    22    23    1
    33     2     3    2
