@<TRIPOS>MOLECULE
1al8_DHP_A_1.pdb
 18 18 0 0 0
SMALL
GASTEIGER

@<TRIPOS>ATOM
      1  N1        24.3430   71.5920   -4.9150 N.2   361  DHP361     -0.2589
      2  C1        24.5940   71.4280   -7.0310 C.2   361  DHP361      0.2829
      3  O3        24.9670   71.1230   -8.1090 O.2   361  DHP361     -0.2764
      4  C2        25.0730   71.0360   -5.8620 C.1   361  DHP361      0.2514
      5  O2        26.1220   70.2170   -5.5960 O.2   361  DHP361     -0.2056
      6  C3        23.4580   72.4250   -5.5130 C.1   361  DHP361      0.1984
      7  O1        22.8420   73.0620   -4.3450 O.2   361  DHP361     -0.2130
      8  C4        23.5260   72.2910   -6.8530 C.3   361  DHP361      0.1931
      9  C5        22.6320   72.9080   -7.9440 C.3   361  DHP361      0.0264
     10  C6        23.2680   74.1170   -8.6570 C.3   361  DHP361      0.0016
     11  C7        22.3660   74.6850   -9.7710 C.3   361  DHP361      0.0000
     12  C8        22.2790   73.7670  -11.0050 C.3   361  DHP361      0.0000
     13  C9        22.5100   74.5270  -12.3220 C.3   361  DHP361      0.0000
     14  C10       22.6420   73.5990  -13.5460 C.3   361  DHP361      0.0000
     15  C11       24.0440   73.6590  -14.1820 C.3   361  DHP361      0.0000
     16  C12       24.0060   73.7420  -15.7190 C.3   361  DHP361      0.0000
     17  C13       24.3820   72.4130  -16.3980 C.3   361  DHP361      0.0000
     18  C14       25.7620   72.4990  -17.1330 C.3   361  DHP361      0.0000
@<TRIPOS>BOND
     1    18    17    1
     2    17    16    1
     3    16    15    1
     4    15    14    1
     5    14    13    1
     6    13    12    1
     7    12    11    1
     8    11    10    1
     9    10     9    1
    10     3     2    2
    11     9     8    1
    12     2     8    1
    13     2     4    1
    14     8     6    1
    15     4     5    2
    16     4     1    2
    17     6     1    2
    18     6     7    2
