@<TRIPOS>MOLECULE
1aln_CTD_A_1.pdb
 17 18 0 0 0
SMALL
GASTEIGER

@<TRIPOS>ATOM
      1  N1        35.2340   48.7950    9.5110 N.am  295  CTD295     -0.2323
      2  C2        36.0890   47.9700    8.8320 C.2   295  CTD295      0.2372
      3  C3        35.6480   46.6370    8.6150 C.3   295  CTD295      0.1331
      4  C4        34.3890   46.2780    8.9020 C.2   295  CTD295      0.0910
      5  C5        33.5420   47.1930    9.6010 C.2   295  CTD295      0.0332
      6  C6        33.9790   48.4280    9.9000 C.2   295  CTD295      0.0710
      7  O2        37.1450   48.3570    8.3290 O.2   295  CTD295     -0.2741
      8  N4        33.9460   45.0830    8.5420 N.2   295  CTD295     -0.1521
      9  C1'       35.7540   50.2830    9.8620 C.3   295  CTD295      0.2319
     10  C2'       35.6610   51.6400    9.2710 C.3   295  CTD295      0.2313
     11  O2'       36.5530   51.7510    8.1300 O.3   295  CTD295     -0.2158
     12  C3'       35.9890   52.4540   10.4320 C.3   295  CTD295      0.2159
     13  C4'       35.5040   51.6020   11.6040 C.3   295  CTD295      0.1829
     14  O4'       35.7070   50.2340   11.2890 O.3   295  CTD295     -0.3323
     15  O3'       37.3770   52.6210   10.5450 O.3   295  CTD295     -0.2175
     16  C5'       34.1470   51.8980   12.0940 C.3   295  CTD295      0.2142
     17  O5'       33.2480   51.6520   11.0210 O.3   295  CTD295     -0.2176
@<TRIPOS>BOND
     1    11    10    1
     2     7     2    2
     3     8     4    2
     4     3     2    1
     5     3     4    1
     6     2     1   am
     7     4     5    1
     8    10     9    1
     9    10    12    1
    10     1     9    1
    11     1     6    1
    12     5     6    2
    13     9    14    1
    14    12    15    1
    15    12    13    1
    16    17    16    1
    17    14    13    1
    18    13    16    1
