@<TRIPOS>MOLECULE
1alw_ISA_A_1.pdb
 13 13 0 0 0
SMALL
GASTEIGER

@<TRIPOS>ATOM
      1  I          7.1160  -49.1470   38.4980 I      11  ISA11      -0.0425
      2  CZ         8.6510  -49.7830   37.4240 C.ar   11  ISA11       0.0300
      3  CE1        8.9710  -49.0630   36.2960 C.ar   11  ISA11       0.0055
      4  CD1        9.8710  -49.5360   35.4390 C.ar   11  ISA11      -0.0038
      5  CE2        9.2470  -50.9610   37.7170 C.ar   11  ISA11       0.0055
      6  CD2       10.1790  -51.4610   36.8290 C.ar   11  ISA11      -0.0038
      7  CG        10.4930  -50.7460   35.6640 C.ar   11  ISA11      -0.0207
      8  C4        11.3660  -51.2980   34.6640 C.3    11  ISA11       0.0494
      9  C3        10.6520  -52.2670   33.6740 C.3    11  ISA11       0.1650
     10  S3        11.8800  -53.0310   32.7030 S.3    11  ISA11      -0.0707
     11  C2         9.6110  -51.5540   32.8530 C.2    11  ISA11       0.3754
     12  O3         9.9350  -50.4380   32.3120 O.co2  11  ISA11      -0.2447
     13  O2         8.4560  -52.1140   32.7060 O.co2  11  ISA11      -0.2447
@<TRIPOS>BOND
     1    12    11   ar
     2    10     9    1
     3    13    11   ar
     4    11     9    1
     5     9     8    1
     6     8     7    1
     7     4     7   ar
     8     4     3   ar
     9     7     6   ar
    10     3     2   ar
    11     6     5   ar
    12     2     5   ar
    13     2     1    1
