@<TRIPOS>MOLECULE
1am1_ADP_A_1.pdb
 27 29 0 0 0
SMALL
GASTEIGER

@<TRIPOS>ATOM
      1  PB        10.5010   -5.0550   -3.7550 P.3   300  ADP300      0.5373
      2  O1B        9.7090   -4.2980   -4.7920 O.2   300  ADP300     -0.2221
      3  O2B       11.8360   -5.7570   -4.3610 O.3   300  ADP300     -0.1143
      4  O3B        9.6540   -6.0560   -2.9930 O.3   300  ADP300     -0.1143
      5  PA        11.9470   -4.1460   -1.4440 P.3   300  ADP300      0.2231
      6  O1A       11.1530   -3.7890   -0.2820 O.3   300  ADP300     -0.4370
      7  O2A       12.4570   -5.5390   -1.3530 O.2   300  ADP300     -0.5169
      8  O3A       11.0970   -4.0180   -2.7620 O.3   300  ADP300     -0.2261
      9  O5'       13.0880   -3.0420   -1.7330 O.3   300  ADP300     -0.3111
     10  C5'       12.7090   -1.6730   -1.7890 C.3   300  ADP300      0.1813
     11  C4'       13.1580   -1.0480   -3.1190 C.3   300  ADP300      0.1821
     12  O4'       14.5510   -0.6480   -3.0410 O.3   300  ADP300     -0.3135
     13  C3'       13.0500   -1.9410   -4.3470 C.3   300  ADP300      0.2184
     14  O3'       11.7970   -1.8390   -5.0450 O.3   300  ADP300     -0.2174
     15  C2'       14.2100   -1.5360   -5.2100 C.3   300  ADP300      0.2570
     16  O2'       13.8670   -0.4870   -6.1160 O.3   300  ADP300     -0.2130
     17  C1'       15.2530   -1.1230   -4.2120 C.3   300  ADP300      0.3186
     18  N9        16.2670   -2.2190   -3.9900 N.pl3 300  ADP300     -0.1439
     19  C8        16.3070   -3.1310   -3.0060 C.3   300  ADP300      0.3377
     20  N7        17.3930   -3.9110   -3.1830 N.2   300  ADP300     -0.2095
     21  C5        18.0380   -3.5030   -4.2610 C.2   300  ADP300      0.2526
     22  C6        19.2080   -3.8880   -4.9620 C.2   300  ADP300      0.4393
     23  N6        19.9650   -4.9230   -4.5340 N.pl3 300  ADP300      0.2180
     24  N1        19.5970   -3.1950   -6.0930 N.2   300  ADP300      0.0021
     25  C2        18.8800   -2.1530   -6.5790 C.3   300  ADP300      0.5254
     26  N3        17.7600   -1.7820   -5.9120 N.2   300  ADP300     -0.0055
     27  C4        17.3130   -2.4140   -4.7790 C.2   300  ADP300      0.3518
@<TRIPOS>BOND
     1    25    24    1
     2    25    26    1
     3    16    15    1
     4    24    22    2
     5    26    27    2
     6    15    13    1
     7    15    17    1
     8    14    13    1
     9    22    23    1
    10    22    21    1
    11     2     1    2
    12    27    21    1
    13    27    18    1
    14     3     1    1
    15    13    11    1
    16    21    20    2
    17    17    18    1
    18    17    12    1
    19    18    19    1
    20     1     4    1
    21     1     8    1
    22    20    19    1
    23    11    12    1
    24    11    10    1
    25     8     5    1
    26    10     9    1
    27     9     5    1
    28     5     7    2
    29     5     6    1
