@<TRIPOS>MOLECULE
1ama_PLA_A_1.pdb
 25 25 0 0 0
SMALL
GASTEIGER

@<TRIPOS>ATOM
      1  N1        43.5220   15.8300   45.0360 N.ar  411  PLA411     -0.2452
      2  C2        44.7400   15.5310   45.4730 C.ar  411  PLA411      0.0981
      3  C2A       45.2240   16.1100   46.7550 C.3   411  PLA411      0.0555
      4  C3        45.5110   14.6620   44.6730 C.ar  411  PLA411      0.2103
      5  O3        46.7120   14.3380   45.0850 O.3   411  PLA411     -0.2853
      6  C4        44.9580   14.1650   43.4850 C.ar  411  PLA411      0.0587
      7  C4A       45.7900   13.3060   42.6820 C.2   411  PLA411      0.0966
      8  C5        43.7000   14.5180   43.0770 C.ar  411  PLA411      0.0316
      9  C6        42.9590   15.3810   43.8890 C.ar  411  PLA411      0.0968
     10  C5A       43.0140   14.0730   41.8270 C.3   411  PLA411      0.1819
     11  O4P       43.1650   12.6830   41.5010 O.3   411  PLA411     -0.2653
     12  P         42.1580   12.0120   40.5100 P.3   411  PLA411      0.5329
     13  O1P       42.9990   11.0000   39.8000 O.3   411  PLA411     -0.1145
     14  O2P       41.5780   13.1000   39.5250 O.2   411  PLA411     -0.2224
     15  O3P       40.9830   11.5340   41.2800 O.3   411  PLA411     -0.1145
     16  N         47.1470   13.1430   43.0060 N.2   411  PLA411     -0.2612
     17  CA        48.0270   12.3000   42.1780 C.3   411  PLA411      0.1881
     18  CB1       47.5840   12.2760   40.7330 C.3   411  PLA411      0.1474
     19  CB2       47.9620   10.8030   42.3850 C.3   411  PLA411      0.0366
     20  CG        47.6490   13.5760   39.9530 C.2   411  PLA411      0.3673
     21  OD1       48.5790   14.4040   40.0420 O.co2 411  PLA411     -0.2456
     22  OD2       46.6620   13.7890   39.2070 O.co2 411  PLA411     -0.2456
     23  C         49.4680   12.7990   42.3340 C.2   411  PLA411      0.3848
     24  O         50.4230   12.2720   41.7560 O.co2 411  PLA411     -0.2436
     25  OXT       49.7050   13.7780   43.0580 O.co2 411  PLA411     -0.2436
@<TRIPOS>BOND
     1    22    20   ar
     2    14    12    2
     3    13    12    1
     4    20    21   ar
     5    20    18    1
     6    12    15    1
     7    12    11    1
     8    18    17    1
     9    11    10    1
    10    24    23   ar
    11    10     8    1
    12    17    23    1
    13    17    19    1
    14    17    16    1
    15    23    25   ar
    16     7    16    2
    17     7     6    1
    18     8     6   ar
    19     8     9   ar
    20     6     4   ar
    21     9     1   ar
    22     4     5    1
    23     4     2   ar
    24     1     2   ar
    25     2     3    1
