@<TRIPOS>MOLECULE
1ami_MIC_A_1.pdb
 14 13 0 0 0
SMALL
GASTEIGER

@<TRIPOS>ATOM
      1  C1        35.1320   34.7900   69.7840 C.2   755  MIC755      0.3922
      2  O1        34.8330   36.0210   69.9410 O.co2 755  MIC755     -0.2429
      3  O2        34.5770   34.1150   68.9120 O.co2 755  MIC755     -0.2429
      4  C2        36.1740   34.0680   70.6680 C.3   755  MIC755      0.2295
      5  CM2       37.5430   34.5270   70.2680 C.3   755  MIC755      0.0453
      6  O7        36.2340   32.6800   70.4200 O.3   755  MIC755     -0.2135
      7  C3        35.7260   34.3110   72.1410 C.3   755  MIC755      0.1530
      8  C4        36.6350   33.9840   73.2800 C.3   755  MIC755      0.1284
      9  C5        37.7830   34.8860   73.3900 C.2   755  MIC755      0.3655
     10  O3        37.6780   36.1150   73.3340 O.co2 755  MIC755     -0.2456
     11  O4        38.9160   34.3700   73.4540 O.co2 755  MIC755     -0.2456
     12  C6        34.2500   33.9950   72.5810 C.2   755  MIC755      0.3679
     13  O5        33.9450   33.9370   73.7730 O.co2 755  MIC755     -0.2455
     14  O6        33.3390   33.7880   71.7660 O.co2 755  MIC755     -0.2455
@<TRIPOS>BOND
     1     3     1   ar
     2     1     2   ar
     3     1     4    1
     4     5     4    1
     5     6     4    1
     6     4     7    1
     7    14    12   ar
     8     7    12    1
     9     7     8    1
    10    12    13   ar
    11     8     9    1
    12    10     9   ar
    13     9    11   ar
