@<TRIPOS>MOLECULE
1amn_NAF_A_1.pdb
 17 17 0 0 0
SMALL
GASTEIGER

@<TRIPOS>ATOM
      1  C1         4.2960   67.6090   63.5630 C.ar  594  NAF594      0.0342
      2  C2         4.9600   66.8170   62.5800 C.ar  594  NAF594      0.0165
      3  C3         5.0040   65.3880   62.7360 C.ar  594  NAF594      0.0703
      4  C4         4.4600   64.7860   63.9260 C.ar  594  NAF594      0.0033
      5  C5         3.8390   65.5310   64.9080 C.ar  594  NAF594      0.0011
      6  C6         3.7140   66.9180   64.7460 C.ar  594  NAF594      0.0132
      7  C1'        5.5830   64.5170   61.6060 C.3   594  NAF594      0.4546
      8  O1'        4.3880   64.4710   61.0300 O.2   594  NAF594     -0.2611
      9  O2'        6.6010   65.1840   60.8300 O.2   594  NAF594     -0.2611
     10  C2'        5.9730   63.0760   62.0100 C.3   594  NAF594      0.4813
     11  F1'        4.9480   62.3530   62.7050 F     594  NAF594     -0.1631
     12  F2'        7.1910   63.1660   62.7590 F     594  NAF594     -0.1631
     13  F3'        6.2580   62.2570   60.9110 F     594  NAF594     -0.1631
     14  N1         4.0930   68.9740   63.3730 N.pl3 594  NAF594     -0.3512
     15  CM1        4.1310   69.5470   64.7080 C.3   594  NAF594      0.0960
     16  CM2        2.7870   69.3860   62.8310 C.3   594  NAF594      0.0960
     17  CM3        4.8130   69.6890   62.2570 C.3   594  NAF594      0.0960
@<TRIPOS>BOND
     1     9     7    1
     2    13    10    1
     3     8     7    1
     4     7    10    1
     5     7     3    1
     6    10    11    1
     7    10    12    1
     8    17    14    1
     9     2     3   ar
    10     2     1   ar
    11     3     4   ar
    12    16    14    1
    13    14     1    1
    14    14    15    1
    15     1     6   ar
    16     4     5   ar
    17     6     5   ar
