@<TRIPOS>MOLECULE
1amo_FAD_B_1.pdb
 47 46 0 0 0
SMALL
GASTEIGER

@<TRIPOS>ATOM
      1  PA        33.1460   26.1230   26.2890 P.3   750  FAD750      0.2189
      2  O1A       31.9060   26.8110   25.9290 O.2   750  FAD750     -0.5170
      3  O2A       34.1130   26.6990   27.2370 O.3   750  FAD750     -0.4371
      4  O5B       32.6900   24.7330   26.8820 O.3   750  FAD750     -0.3112
      5  C5B       33.6710   23.9020   27.4460 C.3   750  FAD750      0.1813
      6  C4B       33.1350   23.1490   28.6590 C.3   750  FAD750      0.1821
      7  O4B       32.0510   22.2830   28.3260 O.3   750  FAD750     -0.3135
      8  C3B       34.1930   22.1800   29.1740 C.3   750  FAD750      0.2184
      9  O3B       35.2340   22.9500   29.8270 O.3   750  FAD750     -0.2174
     10  C2B       33.2660   21.4820   30.1700 C.3   750  FAD750      0.2570
     11  O2B       32.9600   22.4820   31.1720 O.3   750  FAD750     -0.2130
     12  C1B       32.0460   21.2010   29.2680 C.3   750  FAD750      0.3186
     13  N9A       31.9540   19.9120   28.4520 N.pl3 750  FAD750     -0.1439
     14  C8A       32.5080   19.5690   27.2180 C.3   750  FAD750      0.3377
     15  N7A       32.0610   18.4480   26.6800 N.2   750  FAD750     -0.2095
     16  C5A       31.1430   17.9840   27.6220 C.2   750  FAD750      0.2526
     17  C6A       30.3160   16.8470   27.6670 C.2   750  FAD750      0.4393
     18  N6A       30.2260   15.9470   26.6920 N.pl3 750  FAD750      0.2180
     19  N1A       29.5420   16.6940   28.7440 N.2   750  FAD750      0.0021
     20  C2A       29.5730   17.5980   29.7160 C.3   750  FAD750      0.5254
     21  N3A       30.2940   18.7050   29.7990 N.2   750  FAD750     -0.0055
     22  C4A       31.0760   18.8550   28.7050 C.2   750  FAD750      0.3518
     23  O2        41.1040   22.2250   21.1300 O.3   750  FAD750      0.0000
     24  O4        45.5200   23.3250   21.5340 O.3   750  FAD750      0.0000
     25  C4X       44.1510   23.8010   23.3640 C.2   750  FAD750      0.1143
     26  N5        45.2160   24.3460   24.0390 N.2   750  FAD750     -0.2439
     27  C5X       44.8740   24.8130   25.2730 C.2   750  FAD750      0.0920
     28  C7        45.7850   25.7530   27.3130 C.3   750  FAD750      0.0000
     29  C7M       46.9850   26.2020   28.1050 C.3   750  FAD750      0.0000
     30  C8M       44.4340   26.2130   29.3620 C.3   750  FAD750      0.0000
     31  C9        43.4430   25.2640   27.2120 C.3   750  FAD750      0.0280
     32  C9A       43.6020   24.7870   25.8780 C.3   750  FAD750      0.1145
     33  N10       42.5580   24.2000   25.1020 N.pl3 750  FAD750     -0.2992
     34  C10       42.8380   23.6830   23.7950 C.2   750  FAD750      0.0826
     35  C1'       41.1880   24.1310   25.5700 C.3   750  FAD750      0.1269
     36  C2'       40.5170   25.3920   25.0300 C.3   750  FAD750      0.2043
     37  O2'       41.0870   26.5650   25.6640 O.3   750  FAD750     -0.2185
     38  C3'       39.0040   25.3390   25.2770 C.3   750  FAD750      0.2164
     39  O3'       38.6310   24.7690   26.5170 O.3   750  FAD750     -0.2175
     40  C4'       38.2720   24.5280   24.2280 C.3   750  FAD750      0.2145
     41  O4'       38.6520   25.0300   22.9650 O.3   750  FAD750     -0.2176
     42  C5'       36.7590   24.6430   24.4450 C.3   750  FAD750      0.1846
     43  O5'       36.2620   25.9970   24.6030 O.3   750  FAD750     -0.3111
     44  P         34.8210   26.4450   24.1060 P.3   750  FAD750      0.2189
     45  O1P       34.6260   27.8860   24.3150 O.3   750  FAD750     -0.4371
     46  O2P       34.6350   25.9000   22.7650 O.2   750  FAD750     -0.5170
     47  O3P       33.8350   25.7020   25.0020 O.3   750  FAD750     -0.2703
@<TRIPOS>BOND
     1    46    44    2
     2    41    40    1
     3    25    34    2
     4    25    26    1
     5    34    33    1
     6    26    27    2
     7    44    45    1
     8    44    43    1
     9    44    47    1
    10    40    42    1
    11    40    38    1
    12    42    43    1
    13    47     1    1
    14    36    38    1
    15    36    35    1
    16    36    37    1
    17    33    35    1
    18    33    32    1
    19    27    32    1
    20    38    39    1
    21    32    31    1
    22     2     1    2
    23     1     4    1
    24     1     3    1
    25    15    14    1
    26    15    16    2
    27    18    17    1
    28     4     5    1
    29    14    13    1
    30    28    29    1
    31     5     6    1
    32    16    17    1
    33    16    22    1
    34    17    19    2
    35     7     6    1
    36     7    12    1
    37    13    22    1
    38    13    12    1
    39     6     8    1
    40    22    21    2
    41    19    20    1
    42     8     9    1
    43     8    10    1
    44    12    10    1
    45    20    21    1
    46    10    11    1
