@<TRIPOS>MOLECULE
1amo_NAP_A_1.pdb
 31 33 0 0 0
SMALL
GASTEIGER

@<TRIPOS>ATOM
      1  PA        10.5980   13.5560   23.0980 P.3   752  NAP752      0.2231
      2  O1A       10.0850   13.1400   21.7640 O.2   752  NAP752     -0.5169
      3  O2A       11.7560   14.4640   23.1800 O.3   752  NAP752     -0.4370
      4  O5B        9.4790   14.2570   23.9700 O.3   752  NAP752     -0.3111
      5  C5B        8.2770   14.6810   23.3250 C.3   752  NAP752      0.1813
      6  C4B        7.8780   16.1150   23.6890 C.3   752  NAP752      0.1820
      7  O4B        7.5510   16.2850   25.0750 O.3   752  NAP752     -0.3136
      8  C3B        8.8600   17.2170   23.4030 C.3   752  NAP752      0.2157
      9  O3B        8.0780   18.2700   22.8580 O.3   752  NAP752     -0.2175
     10  C2B        9.4480   17.5680   24.7600 C.3   752  NAP752      0.2314
     11  O2B        9.9370   18.9220   24.7560 O.3   752  NAP752     -0.2630
     12  C1B        8.2050   17.4390   25.6020 C.3   752  NAP752      0.3158
     13  N9A        8.3260   17.2540   27.0680 N.pl3 752  NAP752     -0.1439
     14  C8A        9.3910   17.1630   27.8850 C.3   752  NAP752      0.3377
     15  N7A        9.0120   17.2320   29.1860 N.2   752  NAP752     -0.2095
     16  C5A        7.6910   17.3560   29.1260 C.2   752  NAP752      0.2526
     17  C6A        6.8200   17.4870   30.1950 C.2   752  NAP752      0.4393
     18  N6A        7.2130   17.6540   31.4410 N.pl3 752  NAP752      0.2180
     19  N1A        5.5170   17.5740   29.9100 N.2   752  NAP752      0.0021
     20  C2A        5.0950   17.5250   28.6450 C.3   752  NAP752      0.5254
     21  N3A        5.9090   17.4200   27.6010 N.2   752  NAP752     -0.0055
     22  C4A        7.2370   17.3420   27.8280 C.2   752  NAP752      0.3518
     23  O3        10.7840   12.2100   23.9470 O.3   752  NAP752     -0.2261
     24  PN        10.5310   10.7550   23.4020 P.3   752  NAP752      0.5373
     25  O1N       11.8540   10.1970   23.1260 O.3   752  NAP752     -0.1143
     26  O2N        9.4640   10.7940   22.3790 O.2   752  NAP752     -0.2221
     27  O5D       10.0000   10.1640   24.7560 O.3   752  NAP752     -0.1143
     28  P2B       11.4230   19.3070   24.9700 P.3   752  NAP752      0.5328
     29  O1X       11.5130   19.6690   26.4020 O.3   752  NAP752     -0.1145
     30  O2X       11.5450   20.4230   24.0140 O.2   752  NAP752     -0.2224
     31  O3X       12.1420   18.0850   24.5550 O.3   752  NAP752     -0.1145
@<TRIPOS>BOND
     1     2     1    2
     2    26    24    2
     3     9     8    1
     4     1     3    1
     5     1    23    1
     6     1     4    1
     7    25    24    1
     8     5     6    1
     9     5     4    1
    10    24    23    1
    11    24    27    1
    12     8     6    1
    13     8    10    1
    14     6     7    1
    15    30    28    2
    16    31    28    1
    17    11    10    1
    18    11    28    1
    19    10    12    1
    20    28    29    1
    21     7    12    1
    22    12    13    1
    23    13    22    1
    24    13    14    1
    25    21    22    2
    26    21    20    1
    27    22    16    1
    28    14    15    1
    29    20    19    1
    30    16    15    2
    31    16    17    1
    32    19    17    2
    33    17    18    1
