@<TRIPOS>MOLECULE
1amo_FMN_A_1.pdb
 31 33 0 0 0
SMALL
GASTEIGER

@<TRIPOS>ATOM
      1  N1         7.1430   -0.2400   40.1010 N.2   751  FMN751     -0.2890
      2  C2         6.3620    0.0610   41.1430 C.1   751  FMN751      0.3669
      3  O2         6.8420    0.2420   42.2600 O.2   751  FMN751     -0.1744
      4  N3         5.0290    0.1380   40.8610 N.2   751  FMN751     -0.2300
      5  C4         4.4250   -0.0520   39.6270 C.1   751  FMN751      0.2513
      6  O4         3.1960   -0.0180   39.5540 O.2   751  FMN751     -0.2057
      7  C4A        5.3070   -0.3470   38.5620 C.2   751  FMN751      0.2700
      8  N5         4.7270   -0.4810   37.3470 N.2   751  FMN751     -0.3878
      9  C5A        5.6520   -0.7030   36.3770 C.2   751  FMN751      0.1320
     10  C6         5.1440   -0.7710   35.0730 C.2   751  FMN751      0.0250
     11  C7         5.9510   -0.9380   34.0030 C.2   751  FMN751     -0.0238
     12  C7M        5.3690   -0.9790   32.6120 C.3   751  FMN751      0.0308
     13  C8         7.3250   -1.0510   34.1950 C.2   751  FMN751     -0.0280
     14  C8M        8.2690   -1.1920   33.0180 C.3   751  FMN751      0.0304
     15  C9         7.8320   -0.9970   35.4270 C.2   751  FMN751     -0.0041
     16  C9A        7.0350   -0.8240   36.5350 C.3   751  FMN751      0.1497
     17  N10        7.5550   -0.7150   37.8150 N.pl3 751  FMN751     -0.2691
     18  C10        6.6570   -0.4380   38.8750 C.2   751  FMN751      0.2416
     19  C1'        8.9820   -1.0000   38.0520 C.3   751  FMN751      0.1294
     20  C2'        9.4590   -2.4560   38.1710 C.3   751  FMN751      0.2044
     21  O2'        8.8170   -3.1700   39.2230 O.3   751  FMN751     -0.2185
     22  C3'       10.9860   -2.5010   38.3890 C.3   751  FMN751      0.2164
     23  O3'       11.6910   -2.1560   37.2040 O.3   751  FMN751     -0.2175
     24  C4'       11.5800   -3.8650   38.7930 C.3   751  FMN751      0.2147
     25  O4'       12.9950   -3.7420   38.8980 O.3   751  FMN751     -0.2176
     26  C5'       11.2580   -4.9350   37.7460 C.3   751  FMN751      0.1892
     27  O5'       11.7880   -6.2380   38.0570 O.3   751  FMN751     -0.2674
     28  P         11.7550   -7.4320   37.0130 P.3   751  FMN751      0.5327
     29  O1P       11.9330   -8.6080   37.8700 O.3   751  FMN751     -0.1145
     30  O2P       12.8890   -7.1280   36.1290 O.2   751  FMN751     -0.2224
     31  O3P       10.4180   -7.3320   36.4170 O.3   751  FMN751     -0.1145
@<TRIPOS>BOND
     1    12    11    1
     2    14    13    1
     3    11    13    1
     4    11    10    2
     5    13    15    2
     6    10     9    1
     7    15    16    1
     8    30    28    2
     9     9    16    1
    10     9     8    2
    11    31    28    1
    12    16    17    1
    13    28    29    1
    14    28    27    1
    15    23    22    1
    16     8     7    2
    17    26    27    1
    18    26    24    1
    19    17    19    1
    20    17    18    1
    21    19    20    1
    22    20    22    1
    23    20    21    1
    24    22    24    1
    25     7    18    1
    26     7     5    1
    27    24    25    1
    28    18     1    2
    29     6     5    2
    30     5     4    2
    31     1     2    2
    32     4     2    2
    33     2     3    2
