@<TRIPOS>MOLECULE
1amq_PMP_A_1.pdb
 16 16 0 0 0
SMALL
GASTEIGER

@<TRIPOS>ATOM
      1  N1        26.6930    5.1010  -14.6940 N.ar  413  PMP413     -0.2452
      2  C2        26.2220    6.1970  -15.3100 C.ar  413  PMP413      0.0978
      3  C2A       26.6350    6.4860  -16.7320 C.3   413  PMP413      0.0555
      4  C3        25.3660    7.0130  -14.6530 C.ar  413  PMP413      0.2063
      5  O3        24.9050    8.1820  -15.2350 O.3   413  PMP413     -0.2856
      6  C4        24.9580    6.6910  -13.3770 C.ar  413  PMP413      0.0369
      7  C4A       24.1860    7.7540  -12.5740 C.3   413  PMP413      0.1386
      8  N4A       23.2490    8.2920  -13.4110 N.3   413  PMP413     -0.1261
      9  C5        25.3870    5.5100  -12.7850 C.ar  413  PMP413      0.0275
     10  C6        26.2760    4.7380  -13.4490 C.ar  413  PMP413      0.0965
     11  C5A       24.7200    4.9270  -11.4990 C.3   413  PMP413      0.1816
     12  O4P       23.4010    5.3980  -11.0840 O.3   413  PMP413     -0.2653
     13  P         22.6490    4.7470   -9.8910 P.3   413  PMP413      0.5329
     14  O1P       23.4290    4.5510   -8.6820 O.3   413  PMP413     -0.1145
     15  O2P       22.0790    3.5960  -10.5550 O.2   413  PMP413     -0.2224
     16  O3P       21.7170    5.8820   -9.4320 O.3   413  PMP413     -0.1145
@<TRIPOS>BOND
     1     3     2    1
     2     2     1   ar
     3     2     4   ar
     4     5     4    1
     5     1    10   ar
     6     4     6   ar
     7    10     9   ar
     8     8     7    1
     9     6     9   ar
    10     6     7    1
    11     9    11    1
    12    11    12    1
    13    12    13    1
    14    15    13    2
    15    13    16    1
    16    13    14    1
