@<TRIPOS>MOLECULE
1amr_PMP_A_1.pdb
 16 16 0 0 0
SMALL
GASTEIGER

@<TRIPOS>ATOM
      1  N1        26.8030    3.5270  -14.9240 N.ar  413  PMP413     -0.2452
      2  C2        26.4580    4.5330  -15.7800 C.ar  413  PMP413      0.0978
      3  C2A       27.1180    4.6490  -17.1680 C.3   413  PMP413      0.0555
      4  C3        25.5490    5.4640  -15.3760 C.ar  413  PMP413      0.2063
      5  O3        25.1440    6.4600  -16.2240 O.3   413  PMP413     -0.2856
      6  C4        25.0100    5.4020  -14.1100 C.ar  413  PMP413      0.0369
      7  C4A       24.1690    6.5440  -13.6340 C.3   413  PMP413      0.1386
      8  N4A       23.4060    6.9280  -14.7130 N.3   413  PMP413     -0.1261
      9  C5        25.3650    4.3750  -13.2470 C.ar  413  PMP413      0.0275
     10  C6        26.2520    3.4370  -13.6720 C.ar  413  PMP413      0.0965
     11  C5A       24.9300    4.3920  -11.7650 C.3   413  PMP413      0.1816
     12  O4P       23.5690    4.0890  -11.6510 O.3   413  PMP413     -0.2653
     13  P         22.8270    3.8790  -10.2870 P.3   413  PMP413      0.5329
     14  O1P       23.6350    3.6670   -9.1020 O.3   413  PMP413     -0.1145
     15  O2P       21.9360    2.7770  -10.6460 O.2   413  PMP413     -0.2224
     16  O3P       22.1450    5.2820  -10.1400 O.3   413  PMP413     -0.1145
@<TRIPOS>BOND
     1     3     2    1
     2     5     4    1
     3     2     4   ar
     4     2     1   ar
     5     4     6   ar
     6     1    10   ar
     7     8     7    1
     8     6     7    1
     9     6     9   ar
    10    10     9   ar
    11     9    11    1
    12    11    12    1
    13    12    13    1
    14    15    13    2
    15    13    16    1
    16    13    14    1
