@<TRIPOS>MOLECULE
1ams_PMP_A_1.pdb
 16 16 0 0 0
SMALL
GASTEIGER

@<TRIPOS>ATOM
      1  N1        26.5210    4.8540  -14.4870 N.ar  413  PMP413     -0.2452
      2  C2        26.1770    5.9250  -15.2440 C.ar  413  PMP413      0.0978
      3  C2A       26.6020    5.9870  -16.7030 C.3   413  PMP413      0.0555
      4  C3        25.3110    6.8460  -14.7610 C.ar  413  PMP413      0.2063
      5  O3        25.0010    7.9130  -15.5400 O.3   413  PMP413     -0.2856
      6  C4        24.7390    6.6680  -13.5110 C.ar  413  PMP413      0.0369
      7  C4A       23.8810    7.7820  -12.8850 C.3   413  PMP413      0.1386
      8  N4A       23.0090    8.2630  -13.8410 N.3   413  PMP413     -0.1261
      9  C5        25.0520    5.5450  -12.7920 C.ar  413  PMP413      0.0275
     10  C6        25.9590    4.6550  -13.2660 C.ar  413  PMP413      0.0965
     11  C5A       24.3770    5.2400  -11.5060 C.3   413  PMP413      0.1816
     12  O4P       22.9580    5.0120  -11.3370 O.3   413  PMP413     -0.2653
     13  P         22.6060    4.6820   -9.8130 P.3   413  PMP413      0.5329
     14  O1P       23.7950    4.2480   -9.0800 O.3   413  PMP413     -0.1145
     15  O2P       21.5720    3.6510   -9.9120 O.2   413  PMP413     -0.2224
     16  O3P       22.0900    5.9860   -9.0160 O.3   413  PMP413     -0.1145
@<TRIPOS>BOND
     1     3     2    1
     2     5     4    1
     3     2     4   ar
     4     2     1   ar
     5     4     6   ar
     6     1    10   ar
     7     8     7    1
     8     6     7    1
     9     6     9   ar
    10    10     9   ar
    11     9    11    1
    12    11    12    1
    13    12    13    1
    14    15    13    2
    15    13    14    1
    16    13    16    1
