@<TRIPOS>MOLECULE
1amu_AMP_A_1.pdb
 23 25 0 0 0
SMALL
GASTEIGER

@<TRIPOS>ATOM
      1  P         32.5340   99.3980   26.4740 P.3   567  AMP567      0.5327
      2  O1P       31.0610   99.1990   26.5670 O.3   567  AMP567     -0.1145
      3  O2P       33.0020   99.6230   25.0960 O.2   567  AMP567     -0.2224
      4  O3P       33.1170  100.3540   27.4370 O.3   567  AMP567     -0.1145
      5  O5'       33.2410   97.9710   26.7210 O.3   567  AMP567     -0.2675
      6  C5'       32.5910   96.8510   27.3460 C.3   567  AMP567      0.1860
      7  C4'       33.4220   95.6040   27.0690 C.3   567  AMP567      0.1823
      8  O4'       34.5590   95.5450   27.9360 O.3   567  AMP567     -0.3135
      9  C3'       32.6860   94.3190   27.3730 C.3   567  AMP567      0.2184
     10  O3'       31.7610   93.9750   26.3520 O.3   567  AMP567     -0.2174
     11  C2'       33.8360   93.3180   27.4670 C.3   567  AMP567      0.2570
     12  O2'       34.2820   92.8310   26.1860 O.3   567  AMP567     -0.2130
     13  C1'       34.8680   94.1700   28.1780 C.3   567  AMP567      0.3186
     14  N9        34.8140   93.8940   29.6220 N.pl3 567  AMP567     -0.1439
     15  C8        34.1710   94.5880   30.5870 C.3   567  AMP567      0.3377
     16  N7        34.3720   94.0220   31.7910 N.2   567  AMP567     -0.2095
     17  C5        35.1470   92.9710   31.5200 C.2   567  AMP567      0.2526
     18  C6        35.5860   92.0160   32.4320 C.2   567  AMP567      0.4393
     19  N6        35.3560   92.0880   33.7380 N.pl3 567  AMP567      0.2180
     20  N1        36.3110   91.0000   31.9070 N.2   567  AMP567      0.0021
     21  C2        36.5830   90.9050   30.6030 C.3   567  AMP567      0.5254
     22  N3        36.1590   91.8150   29.7380 N.2   567  AMP567     -0.0055
     23  C4        35.4370   92.8630   30.1760 C.2   567  AMP567      0.3518
@<TRIPOS>BOND
     1     3     1    2
     2    12    11    1
     3    10     9    1
     4     1     2    1
     5     1     5    1
     6     1     4    1
     7     5     6    1
     8     7     6    1
     9     7     9    1
    10     7     8    1
    11     9    11    1
    12    11    13    1
    13     8    13    1
    14    13    14    1
    15    14    23    1
    16    14    15    1
    17    22    23    2
    18    22    21    1
    19    23    17    1
    20    15    16    1
    21    21    20    1
    22    17    16    2
    23    17    18    1
    24    20    18    2
    25    18    19    1
