@<TRIPOS>MOLECULE
1amu_PHE_A_1.pdb
 12 12 0 0 0
SMALL
GASTEIGER

@<TRIPOS>ATOM
      1  N         30.8560   99.1270   31.8890 N.3   566  PHE566     -0.1205
      2  CA        32.3410   99.0490   31.8530 C.3   566  PHE566      0.1986
      3  C         32.7970   98.8880   30.4110 C.2   566  PHE566      0.3822
      4  O         33.9260   98.4010   30.1860 O.co2 566  PHE566     -0.2440
      5  CB        32.8330   97.8840   32.7110 C.3   566  PHE566      0.0569
      6  CG        32.6190   98.0860   34.1790 C.ar  566  PHE566     -0.0202
      7  CD1       33.1030   99.2290   34.8180 C.ar  566  PHE566     -0.0042
      8  CD2       31.9480   97.1260   34.9320 C.ar  566  PHE566     -0.0042
      9  CE1       32.9230   99.4130   36.1930 C.ar  566  PHE566     -0.0003
     10  CE2       31.7620   97.2980   36.3050 C.ar  566  PHE566     -0.0003
     11  CZ        32.2510   98.4460   36.9370 C.ar  566  PHE566     -0.0000
     12  OXT       31.9960   99.2530   29.5230 O.co2 566  PHE566     -0.2440
@<TRIPOS>BOND
     1    12     3   ar
     2     4     3   ar
     3     3     2    1
     4     2     1    1
     5     2     5    1
     6     5     6    1
     7     6     7   ar
     8     6     8   ar
     9     7     9   ar
    10     8    10   ar
    11     9    11   ar
    12    10    11   ar
