@<TRIPOS>MOLECULE
1amw_ADP_A_1.pdb
 27 29 0 0 0
SMALL
GASTEIGER

@<TRIPOS>ATOM
      1  PB        10.5090   -4.8700   -3.7360 P.3   300  ADP300      0.5373
      2  O1B        9.7050   -4.2170   -4.8630 O.2   300  ADP300     -0.2221
      3  O2B       11.8930   -5.5900   -4.2890 O.3   300  ADP300     -0.1143
      4  O3B        9.6530   -5.8370   -2.9410 O.3   300  ADP300     -0.1143
      5  PA        11.8240   -3.9720   -1.4370 P.3   300  ADP300      0.2231
      6  O1A       10.9340   -3.5680   -0.3250 O.3   300  ADP300     -0.4370
      7  O2A       12.2960   -5.3730   -1.2860 O.2   300  ADP300     -0.5169
      8  O3A       11.0700   -3.7970   -2.7730 O.3   300  ADP300     -0.2261
      9  O5'       13.0580   -2.9530   -1.6250 O.3   300  ADP300     -0.3111
     10  C5'       12.7730   -1.5790   -1.7630 C.3   300  ADP300      0.1813
     11  C4'       13.2040   -1.0410   -3.1430 C.3   300  ADP300      0.1821
     12  O4'       14.5870   -0.6290   -3.0930 O.3   300  ADP300     -0.3135
     13  C3'       13.0680   -1.9640   -4.3440 C.3   300  ADP300      0.2184
     14  O3'       11.8090   -1.8630   -5.0130 O.3   300  ADP300     -0.2174
     15  C2'       14.2060   -1.5650   -5.2380 C.3   300  ADP300      0.2570
     16  O2'       13.8390   -0.5360   -6.1600 O.3   300  ADP300     -0.2130
     17  C1'       15.2700   -1.1150   -4.2620 C.3   300  ADP300      0.3186
     18  N9        16.2860   -2.1950   -4.0060 N.pl3 300  ADP300     -0.1439
     19  C8        16.3210   -3.0830   -2.9990 C.3   300  ADP300      0.3377
     20  N7        17.4040   -3.8670   -3.1510 N.2   300  ADP300     -0.2095
     21  C5        18.0520   -3.4790   -4.2370 C.2   300  ADP300      0.2526
     22  C6        19.2190   -3.8720   -4.9270 C.2   300  ADP300      0.4393
     23  N6        19.9740   -4.8930   -4.4760 N.pl3 300  ADP300      0.2180
     24  N1        19.5980   -3.2110   -6.0710 N.2   300  ADP300      0.0021
     25  C2        18.8800   -2.1790   -6.5710 C.3   300  ADP300      0.5254
     26  N3        17.7600   -1.8000   -5.9240 N.2   300  ADP300     -0.0055
     27  C4        17.3230   -2.4050   -4.7840 C.2   300  ADP300      0.3518
@<TRIPOS>BOND
     1    25    24    1
     2    25    26    1
     3    16    15    1
     4    24    22    2
     5    26    27    2
     6    15    13    1
     7    15    17    1
     8    14    13    1
     9    22    23    1
    10    22    21    1
    11     2     1    2
    12    27    21    1
    13    27    18    1
    14    13    11    1
    15     3     1    1
    16    17    18    1
    17    17    12    1
    18    21    20    2
    19    18    19    1
    20     1     4    1
    21     1     8    1
    22    20    19    1
    23    11    12    1
    24    11    10    1
    25     8     5    1
    26    10     9    1
    27     9     5    1
    28     5     7    2
    29     5     6    1
