@<TRIPOS>MOLECULE
1an0_GDP_A_1.pdb
 28 30 0 0 0
SMALL
GASTEIGER

@<TRIPOS>ATOM
      1  PB        64.8340   18.0210   26.9290 P.3   200  GDP200      0.5373
      2  O1B       66.1100   18.4460   27.6040 O.3   200  GDP200     -0.1143
      3  O2B       64.4730   18.7750   25.6810 O.2   200  GDP200     -0.2221
      4  O3B       63.7160   17.9220   27.9410 O.3   200  GDP200     -0.1143
      5  O3A       64.9660   16.3880   26.6170 O.3   200  GDP200     -0.2261
      6  PA        65.0170   15.7870   25.1270 P.3   200  GDP200      0.2231
      7  O1A       66.2910   15.8250   24.3500 O.2   200  GDP200     -0.5169
      8  O2A       63.6850   15.5670   24.4540 O.3   200  GDP200     -0.4370
      9  O5'       65.1710   14.3480   25.7510 O.3   200  GDP200     -0.3111
     10  C5'       66.4390   14.0360   26.2480 C.3   200  GDP200      0.1813
     11  C4'       66.6510   12.5930   26.3190 C.3   200  GDP200      0.1799
     12  O4'       65.3900   12.0390   26.6260 O.3   200  GDP200     -0.3326
     13  C3'       67.0640   11.8350   25.0680 C.3   200  GDP200      0.2158
     14  O3'       67.7370   10.5830   25.3880 O.3   200  GDP200     -0.2175
     15  C2'       65.7780   11.4250   24.4180 C.3   200  GDP200      0.2310
     16  O2'       66.2480   10.3620   23.5260 O.3   200  GDP200     -0.2158
     17  C1'       65.0400   11.0020   25.7140 C.3   200  GDP200      0.2293
     18  N9        63.5860   10.7870   25.7470 N.pl3 200  GDP200     -0.2354
     19  C8        62.5760   11.6740   25.8580 C.3   200  GDP200      0.2246
     20  N7        61.3550   11.1770   25.9550 N.2   200  GDP200     -0.2322
     21  C5        61.6000    9.8190   25.9940 C.2   200  GDP200      0.2182
     22  C6        60.7260    8.7420   26.1740 C.1   200  GDP200      0.2372
     23  O6        59.5160    8.7510   26.3960 O.2   200  GDP200     -0.2069
     24  N1        61.3820    7.5310   26.0990 N.2   200  GDP200     -0.2485
     25  C2        62.7540    7.3580   26.0890 C.1   200  GDP200      0.2531
     26  N2        63.2820    6.1120   26.0260 N.pl3 200  GDP200     -0.0226
     27  N3        63.5770    8.3970   25.9880 N.2   200  GDP200     -0.3074
     28  C4        62.9490    9.5870   25.9360 C.2   200  GDP200      0.2300
@<TRIPOS>BOND
     1    16    15    1
     2     7     6    2
     3    15    13    1
     4    15    17    1
     5     8     6    1
     6    13    14    1
     7    13    11    1
     8     6     9    1
     9     6     5    1
    10     3     1    2
    11    17    18    1
    12    17    12    1
    13    18    19    1
    14    18    28    1
    15     9    10    1
    16    19    20    1
    17    28    27    2
    18    28    21    1
    19    20    21    2
    20    27    25    2
    21    21    22    1
    22    26    25    1
    23    25    24    2
    24    24    22    2
    25    22    23    2
    26    10    11    1
    27    11    12    1
    28     5     1    1
    29     1     2    1
    30     1     4    1
