@<TRIPOS>MOLECULE
1an5_CB3_A_1.pdb
 35 37 0 0 0
SMALL
GASTEIGER

@<TRIPOS>ATOM
      1  N1        16.7920   18.4310   28.2320 N.2   684  CB3684     -0.3286
      2  C2        17.9470   18.7310   27.6420 C.1   684  CB3684      0.2515
      3  NA2       17.8990   19.6280   26.6880 N.pl3 684  CB3684     -0.0226
      4  N3        19.0920   18.1100   27.9810 N.2   684  CB3684     -0.2501
      5  C4        19.0810   17.0940   28.8740 C.1   684  CB3684      0.2179
      6  O4        20.2760   16.5690   29.3220 O.2   684  CB3684     -0.2085
      7  C4A       17.8620   16.6060   29.3500 C.2   684  CB3684      0.1217
      8  C5        17.7680   15.4240   30.1010 C.2   684  CB3684      0.0121
      9  C6        16.5030   14.9310   30.4560 C.2   684  CB3684     -0.0054
     10  C7        15.3610   15.6510   30.0700 C.2   684  CB3684     -0.0212
     11  C8        15.4250   16.8410   29.3460 C.3   684  CB3684      0.0865
     12  C8A       16.6920   17.3180   28.9790 C.2   684  CB3684      0.1389
     13  C9        16.1860   13.9050   31.4220 C.3   684  CB3684      0.1182
     14  N10       16.9110   13.7110   32.6920 N.pl3 684  CB3684     -0.2924
     15  C11       13.9620   13.5230   35.7080 C.ar  684  CB3684      0.0551
     16  C12       13.6710   13.3680   34.3730 C.ar  684  CB3684      0.0058
     17  C13       14.6760   13.4540   33.4610 C.ar  684  CB3684      0.0147
     18  C14       16.0290   13.7030   33.7570 C.ar  684  CB3684      0.0488
     19  C15       16.3260   13.9020   35.1320 C.ar  684  CB3684      0.0147
     20  C16       15.2990   13.8070   36.1010 C.ar  684  CB3684      0.0058
     21  C         12.8110   13.2390   36.5530 C.2   684  CB3684      0.2652
     22  O         11.6960   12.9720   36.0710 O.2   684  CB3684     -0.2684
     23  N         13.0100   13.2180   37.8670 N.am  684  CB3684     -0.1918
     24  CA        12.4040   12.1590   38.6940 C.3   684  CB3684      0.1986
     25  CB        13.3280   10.9250   38.6450 C.3   684  CB3684      0.0451
     26  CG        12.7420    9.6320   39.2510 C.3   684  CB3684      0.1164
     27  CD        13.6470    8.3990   39.0760 C.2   684  CB3684      0.3649
     28  OE1       13.5990    7.4810   39.9280 O.co2 684  CB3684     -0.2457
     29  OE2       14.3980    8.3290   38.0820 O.co2 684  CB3684     -0.2457
     30  CT        12.4330   12.8270   40.0700 C.2   684  CB3684      0.3842
     31  O1        13.5300   13.2770   40.4730 O.co2 684  CB3684     -0.2437
     32  O2        11.3560   12.9490   40.7020 O.co2 684  CB3684     -0.2437
     33  CP1       18.3720   13.6290   32.7870 C.3   684  CB3684      0.1697
     34  CP2       18.9690   14.8980   33.2410 C.1   684  CB3684     -0.0557
     35  CP3       19.3290   15.9630   33.6580 C.1   684  CB3684     -0.0124
@<TRIPOS>BOND
     1     3     2    1
     2     2     4    2
     3     2     1    2
     4     4     5    2
     5     1    12    2
     6     5     6    2
     7     5     7    1
     8    12    11    1
     9    12     7    1
    10    11    10    1
    11     7     8    2
    12    10     9    2
    13     8     9    1
    14     9    13    1
    15    13    14    1
    16    14    33    1
    17    14    18    1
    18    33    34    1
    19    34    35    3
    20    17    18   ar
    21    17    16   ar
    22    18    19   ar
    23    16    15   ar
    24    19    20   ar
    25    15    20   ar
    26    15    21    1
    27    22    21    2
    28    21    23   am
    29    23    24    1
    30    29    27   ar
    31    25    24    1
    32    25    26    1
    33    24    30    1
    34    27    26    1
    35    27    28   ar
    36    30    31   ar
    37    30    32   ar
