@<TRIPOS>MOLECULE
1an9_BE2_A_1.pdb
 10 10 0 0 0
SMALL
GASTEIGER

@<TRIPOS>ATOM
      1  C         36.2600   74.9230   66.0690 C.2   352  BE2352      0.3891
      2  O1        37.4320   75.1580   66.4320 O.co2 352  BE2352     -0.2405
      3  O2        35.5170   75.8240   65.6180 O.co2 352  BE2352     -0.2405
      4  C1        35.7260   73.4890   66.1560 C.ar  352  BE2352      0.0965
      5  C2        34.5330   73.0890   65.4820 C.ar  352  BE2352      0.0954
      6  C3        34.0980   71.7260   65.6110 C.ar  352  BE2352      0.0183
      7  N2        33.7670   73.9890   64.7800 N.pl3 352  BE2352     -0.1278
      8  C4        34.8270   70.8140   66.3770 C.ar  352  BE2352      0.0014
      9  C5        35.9880   71.2150   67.0290 C.ar  352  BE2352      0.0003
     10  C6        36.4330   72.5290   66.9230 C.ar  352  BE2352      0.0079
@<TRIPOS>BOND
     1     7     5    1
     2     5     6   ar
     3     5     4   ar
     4     6     8   ar
     5     3     1   ar
     6     1     4    1
     7     1     2   ar
     8     4    10   ar
     9     8     9   ar
    10    10     9   ar
