@<TRIPOS>MOLECULE
1anf_GLC_A_1.pdb
 11 11 0 0 0
SMALL
GASTEIGER

@<TRIPOS>ATOM
      1  C1        11.3820   15.5960   41.1810 C.3   372  GLC372      0.1777
      2  C2        10.6860   16.0920   42.4640 C.3   372  GLC372      0.2141
      3  C3        10.2520   17.5280   42.3090 C.3   372  GLC372      0.2173
      4  C4        11.4890   18.3650   41.8450 C.3   372  GLC372      0.2142
      5  C5        12.1020   17.8100   40.5770 C.3   372  GLC372      0.1810
      6  C6        13.4220   18.4800   40.3150 C.3   372  GLC372      0.2141
      7  O2         9.5900   15.2330   42.8480 O.3   372  GLC372     -0.2176
      8  O3         9.7560   18.1050   43.5280 O.3   372  GLC372     -0.2175
      9  O4        11.1360   19.7490   41.6240 O.3   372  GLC372     -0.2176
     10  O5        12.4060   16.4200   40.8060 O.3   372  GLC372     -0.3481
     11  O6        13.9080   18.1910   38.9310 O.3   372  GLC372     -0.2176
@<TRIPOS>BOND
     1    11     6    1
     2     6     5    1
     3     5    10    1
     4     5     4    1
     5    10     1    1
     6     1     2    1
     7     9     4    1
     8     4     3    1
     9     3     2    1
    10     3     8    1
    11     2     7    1
