@<TRIPOS>MOLECULE
1ank_ANP_A_1.pdb
 35 37 0 0 0
SMALL
GASTEIGER

@<TRIPOS>ATOM
      1  PG         2.5180    2.1390   25.8800 P.3   216  ANP216      0.4884
      2  O1G        1.0350    2.0470   25.5530 O.3   216  ANP216     -0.1240
      3  O2G        2.8040    1.5630   27.2300 O.3   216  ANP216     -0.1240
      4  O3G        3.4640    1.7440   24.7640 O.2   216  ANP216     -0.2331
      5  PB         4.4560    4.4480   25.7870 P.3   216  ANP216      0.4669
      6  O1B        4.7120    4.9000   27.1930 O.3   216  ANP216     -0.1253
      7  O2B        5.5640    3.6270   25.2930 O.2   216  ANP216     -0.2351
      8  N3B        3.0040    3.7650   25.8970 N.3   216  ANP216     -0.0163
      9  PA         5.1210    6.4670   23.5260 P.3   216  ANP216      0.2220
     10  O1A        6.6200    6.7230   23.5510 O.3   216  ANP216     -0.4370
     11  O2A        4.6600    5.5940   22.3990 O.2   216  ANP216     -0.5170
     12  O3A        4.6220    5.8650   24.9240 O.3   216  ANP216     -0.2360
     13  O5'        4.5300    7.9410   23.6960 O.3   216  ANP216     -0.3111
     14  C5'        3.0870    7.9490   23.7290 C.3   216  ANP216      0.1812
     15  C4'        2.6460    8.7710   22.4990 C.3   216  ANP216      0.1784
     16  O4'        2.9240   10.0990   22.8210 O.3   216  ANP216     -0.3138
     17  C3'        3.4210    8.6500   21.2340 C.3   216  ANP216      0.1737
     18  O3'        2.5710    9.2180   20.2700 O.3   216  ANP216     -0.3793
     19  C2'        4.5410    9.6900   21.3550 C.3   216  ANP216      0.2135
     20  O2'        4.8430   10.3750   20.1620 O.3   216  ANP216     -0.3763
     21  C1'        4.0440   10.7400   22.2570 C.3   216  ANP216      0.3148
     22  N9         5.0650   11.3480   23.1870 N.pl3 216  ANP216     -0.1440
     23  C8         6.0680   10.6890   23.7910 C.3   216  ANP216      0.3377
     24  N7         6.7390   11.4930   24.6140 N.2   216  ANP216     -0.2098
     25  C5         6.1550   12.6870   24.5070 C.2   216  ANP216      0.2438
     26  C6         6.4780   13.8560   25.2200 C.2   216  ANP216      0.3428
     27  N6         7.5580   13.8520   26.0490 N.pl3 216  ANP216     -0.2449
     28  N1         5.7030   14.9570   25.0540 N.2   216  ANP216     -0.0059
     29  C2         4.7360   14.8430   24.1280 C.3   216  ANP216      0.5252
     30  N3         4.4590   13.7570   23.4000 N.2   216  ANP216     -0.0055
     31  C4         5.0970   12.6150   23.6280 C.2   216  ANP216      0.3515
     32 HO3'        3.0120    9.1820   19.3730 H     216  ANP216      0.2105
     33 HO2'        5.1920    9.7280   19.4850 H     216  ANP216      0.2107
     34 HN61        7.7980   14.6770   26.5610 H     216  ANP216      0.2885
     35 HN62        8.1110   13.0250   26.1460 H     216  ANP216      0.2885
@<TRIPOS>BOND
     1    32    18    1
     2    33    20    1
     3    20    19    1
     4    18    17    1
     5    17    19    1
     6    17    15    1
     7    19    21    1
     8    21    16    1
     9    21    22    1
    10    11     9    2
    11    15    16    1
    12    15    14    1
    13    22    31    1
    14    22    23    1
    15    30    31    2
    16    30    29    1
    17     9    10    1
    18     9    13    1
    19     9    12    1
    20    31    25    1
    21    13    14    1
    22    23    24    1
    23    29    28    1
    24    25    24    2
    25    25    26    1
    26     4     1    2
    27    12     5    1
    28    28    26    2
    29    26    27    1
    30     7     5    2
    31     2     1    1
    32     5     8    1
    33     5     6    1
    34     1     8    1
    35     1     3    1
    36    27    35    1
    37    27    34    1
