@<TRIPOS>MOLECULE
1ank_AMP_A_1.pdb
 27 29 0 0 0
SMALL
GASTEIGER

@<TRIPOS>ATOM
      1  P          1.9980   -1.7570   25.3960 P.3   215  AMP215      0.5327
      2  O1P        1.1630   -0.5610   25.6280 O.3   215  AMP215     -0.1145
      3  O2P        2.6310   -1.9300   24.0590 O.2   215  AMP215     -0.2224
      4  O3P        3.0510   -1.8180   26.5110 O.3   215  AMP215     -0.1145
      5  O5'        1.0560   -3.0660   25.5910 O.3   215  AMP215     -0.2675
      6  C5'       -0.3510   -3.0930   25.1770 C.3   215  AMP215      0.1858
      7  C4'       -1.0690   -4.3420   25.6980 C.3   215  AMP215      0.1786
      8  O4'       -0.0580   -5.3050   25.6550 O.3   215  AMP215     -0.3138
      9  C3'       -1.3110   -4.2050   27.1130 C.3   215  AMP215      0.1737
     10  O3'       -2.6850   -3.8710   27.1630 O.3   215  AMP215     -0.3793
     11  C2'       -1.2660   -5.6800   27.4870 C.3   215  AMP215      0.2135
     12  O2'       -2.4090   -6.3450   27.0730 O.3   215  AMP215     -0.3763
     13  C1'       -0.2010   -6.2650   26.6690 C.3   215  AMP215      0.3148
     14  N9         1.0090   -6.5020   27.4610 N.pl3 215  AMP215     -0.1440
     15  C8         2.2360   -5.9810   27.3080 C.3   215  AMP215      0.3377
     16  N7         3.0350   -6.2900   28.3230 N.2   215  AMP215     -0.2098
     17  C5         2.2510   -6.9390   29.1550 C.2   215  AMP215      0.2438
     18  C6         2.6560   -7.4190   30.3970 C.2   215  AMP215      0.3428
     19  N6         3.9010   -7.2800   30.8380 N.pl3 215  AMP215     -0.2449
     20  N1         1.6960   -8.0020   31.0580 N.2   215  AMP215     -0.0059
     21  C2         0.4360   -8.1040   30.6090 C.3   215  AMP215      0.5252
     22  N3         0.0240   -7.6190   29.4340 N.2   215  AMP215     -0.0055
     23  C4         0.9700   -7.0230   28.6730 C.2   215  AMP215      0.3515
     24 HO3'       -2.9650   -3.7510   28.1150 H     215  AMP215      0.2105
     25 HO2'       -3.1970   -6.0050   27.5860 H     215  AMP215      0.2107
     26 HN61        4.1560   -7.6380   31.7360 H     215  AMP215      0.2885
     27 HN62        4.5830   -6.8180   30.2720 H     215  AMP215      0.2885
@<TRIPOS>BOND
     1     3     1    2
     2     6     5    1
     3     6     7    1
     4     1     5    1
     5     1     2    1
     6     1     4    1
     7     8     7    1
     8     8    13    1
     9     7     9    1
    10    13    14    1
    11    13    11    1
    12    12    11    1
    13    12    25    1
    14     9    10    1
    15     9    11    1
    16    10    24    1
    17    15    14    1
    18    15    16    1
    19    14    23    1
    20    16    17    2
    21    23    17    1
    22    23    22    2
    23    17    18    1
    24    22    21    1
    25    27    19    1
    26    18    19    1
    27    18    20    2
    28    21    20    1
    29    19    26    1
