@<TRIPOS>MOLECULE
1ao0_5GP_A_1.pdb
 24 26 0 0 0
SMALL
GASTEIGER

@<TRIPOS>ATOM
      1  P         14.5510   19.6750   79.9950 P.3   467  5GP467      0.5327
      2  O1P       15.3410   20.3200   78.8900 O.2   467  5GP467     -0.2224
      3  O2P       15.3760   19.5980   81.2230 O.3   467  5GP467     -0.1145
      4  O3P       13.2980   20.4780   80.2440 O.3   467  5GP467     -0.1145
      5  O5'       14.1350   18.2030   79.6140 O.3   467  5GP467     -0.2675
      6  C5'       12.9050   17.6560   80.0480 C.3   467  5GP467      0.1859
      7  C4'       12.7820   16.2900   79.4790 C.3   467  5GP467      0.1801
      8  O4'       14.0440   15.6780   79.7510 O.3   467  5GP467     -0.3326
      9  C3'       11.7380   15.3260   80.0240 C.3   467  5GP467      0.2158
     10  O3'       10.6720   15.2910   79.0500 O.3   467  5GP467     -0.2175
     11  C2'       12.3890   13.9530   79.8220 C.3   467  5GP467      0.2310
     12  O2'       11.9010   13.4430   78.5760 O.3   467  5GP467     -0.2158
     13  C1'       13.8710   14.2840   79.7450 C.3   467  5GP467      0.2293
     14  N9        14.7520   13.7670   80.7870 N.pl3 467  5GP467     -0.2354
     15  C8        16.0120   13.2580   80.6370 C.3   467  5GP467      0.2246
     16  N7        16.5500   12.8690   81.7710 N.2   467  5GP467     -0.2322
     17  C5        15.5790   13.1520   82.6860 C.2   467  5GP467      0.2182
     18  C6        15.5740   12.9520   84.0820 C.1   467  5GP467      0.2372
     19  O6        16.4680   12.4540   84.7940 O.2   467  5GP467     -0.2069
     20  N1        14.3750   13.3850   84.6490 N.2   467  5GP467     -0.2485
     21  C2        13.3260   13.9340   83.9460 C.1   467  5GP467      0.2531
     22  N2        12.2620   14.3130   84.6380 N.pl3 467  5GP467     -0.0226
     23  N3        13.3070   14.1060   82.6540 N.2   467  5GP467     -0.3074
     24  C4        14.4530   13.6980   82.1210 C.2   467  5GP467      0.2300
@<TRIPOS>BOND
     1    12    11    1
     2     2     1    2
     3    10     9    1
     4     7     8    1
     5     7     9    1
     6     7     6    1
     7     5     1    1
     8     5     6    1
     9    13     8    1
    10    13    11    1
    11    13    14    1
    12    11     9    1
    13     1     4    1
    14     1     3    1
    15    15    14    1
    16    15    16    1
    17    14    24    1
    18    16    17    2
    19    24    23    2
    20    24    17    1
    21    23    21    2
    22    17    18    1
    23    21    22    1
    24    21    20    2
    25    18    20    2
    26    18    19    2
