@<TRIPOS>MOLECULE
1ao0_ADP_A_1.pdb
 27 29 0 0 0
SMALL
GASTEIGER

@<TRIPOS>ATOM
      1  PB        15.0100   11.7900   76.4930 P.3   468  ADP468      0.5373
      2  O1B       14.1260   12.5010   77.4630 O.3   468  ADP468     -0.1143
      3  O2B       14.7100   12.2550   75.0970 O.2   468  ADP468     -0.2221
      4  O3B       16.4460   12.0540   76.8330 O.3   468  ADP468     -0.1143
      5  PA        14.9380    9.2270   75.4230 P.3   468  ADP468      0.2231
      6  O1A       14.4320    9.7940   74.1480 O.2   468  ADP468     -0.5169
      7  O2A       16.3230    8.6660   75.4840 O.3   468  ADP468     -0.4370
      8  O3A       14.7070   10.2380   76.6180 O.3   468  ADP468     -0.2261
      9  O5'       13.9570    8.0960   75.8760 O.3   468  ADP468     -0.3111
     10  C5'       13.3820    8.1670   77.1480 C.3   468  ADP468      0.1813
     11  C4'       12.3740    7.0920   77.2630 C.3   468  ADP468      0.1821
     12  O4'       12.8680    5.9400   76.5650 O.3   468  ADP468     -0.3135
     13  C3'       12.1120    6.6280   78.6770 C.3   468  ADP468      0.2184
     14  O3'       11.0370    7.4020   79.2020 O.3   468  ADP468     -0.2174
     15  C2'       11.8710    5.1080   78.5560 C.3   468  ADP468      0.2570
     16  O2'       10.6200    4.6040   78.9300 O.3   468  ADP468     -0.2130
     17  C1'       12.1850    4.8390   77.0780 C.3   468  ADP468      0.3186
     18  N9        12.8700    3.6310   76.6660 N.pl3 468  ADP468     -0.1439
     19  C8        14.0200    3.0550   77.1130 C.3   468  ADP468      0.3377
     20  N7        14.3560    1.9750   76.4530 N.2   468  ADP468     -0.2095
     21  C5        13.3430    1.8280   75.5060 C.2   468  ADP468      0.2526
     22  C6        13.1120    0.8660   74.4770 C.2   468  ADP468      0.4393
     23  N6        13.9410   -0.1360   74.1990 N.pl3 468  ADP468      0.2180
     24  N1        11.9950    0.9940   73.7370 N.2   468  ADP468      0.0021
     25  C2        11.1720    2.0360   74.0000 C.3   468  ADP468      0.5254
     26  N3        11.2900    3.0080   74.9160 N.2   468  ADP468     -0.0055
     27  C4        12.4160    2.8360   75.6440 C.2   468  ADP468      0.3518
@<TRIPOS>BOND
     1    24    25    1
     2    24    22    2
     3    25    26    1
     4     6     5    2
     5    23    22    1
     6    22    21    1
     7    26    27    2
     8     3     1    2
     9     5     7    1
    10     5     9    1
    11     5     8    1
    12    21    27    1
    13    21    20    2
    14    27    18    1
    15     9    10    1
    16    20    19    1
    17     1     8    1
    18     1     4    1
    19     1     2    1
    20    12    17    1
    21    12    11    1
    22    18    17    1
    23    18    19    1
    24    17    15    1
    25    10    11    1
    26    11    13    1
    27    15    13    1
    28    15    16    1
    29    13    14    1
