@<TRIPOS>MOLECULE
1aob_DDU_A_1.pdb
 15 16 0 0 0
SMALL
GASTEIGER

@<TRIPOS>ATOM
      1  N1       -28.3760   -8.8800   20.1160 N.am  301  DDU301     -0.1790
      2  C2       -27.4420   -7.8480   20.1480 C.1   301  DDU301      0.2844
      3  N3       -27.9260   -6.5990   19.8550 N.2   301  DDU301     -0.2452
      4  C4       -29.2410   -6.2890   19.5240 C.1   301  DDU301      0.2182
      5  C5       -30.1370   -7.4350   19.5020 C.2   301  DDU301      0.1242
      6  C6       -29.6500   -8.7090   19.8030 C.2   301  DDU301      0.0928
      7  O2       -26.2480   -7.9980   20.3730 O.2   301  DDU301     -0.1918
      8  O4       -29.5930   -5.1190   19.3530 O.2   301  DDU301     -0.2085
      9  C1'      -27.9550  -10.2400   20.5070 C.3   301  DDU301      0.2089
     10  C2'      -28.1930  -10.5440   21.9780 C.3   301  DDU301      0.0873
     11  C3'      -27.9550  -12.0360   22.0540 C.3   301  DDU301      0.1832
     12  C4'      -28.8030  -12.4390   20.8400 C.3   301  DDU301      0.1475
     13  O3'      -26.5720  -12.2870   21.7880 O.3   301  DDU301     -0.2204
     14  O4'      -28.5310  -11.4060   19.8200 O.3   301  DDU301     -0.3365
     15  C5'      -30.2980  -12.4470   21.2160 C.3   301  DDU301      0.0348
@<TRIPOS>BOND
     1     8     4    2
     2     5     4    1
     3     5     6    2
     4     4     3    2
     5     6     1    1
     6    14     9    1
     7    14    12    1
     8     3     2    2
     9     1     2   am
    10     1     9    1
    11     2     7    2
    12     9    10    1
    13    12    15    1
    14    12    11    1
    15    13    11    1
    16    10    11    1
