@<TRIPOS>MOLECULE
1aod_INS_A_1.pdb
 12 12 0 0 0
SMALL
GASTEIGER

@<TRIPOS>ATOM
      1  C1        31.3490   24.1020   29.1080 C.3   296  INS296      0.2175
      2  C2        31.8340   25.4460   28.7450 C.3   296  INS296      0.2175
      3  C3        31.8330   25.6590   27.2050 C.3   296  INS296      0.2175
      4  C4        30.4610   25.3540   26.6370 C.3   296  INS296      0.2175
      5  C5        30.1550   23.9050   26.9260 C.3   296  INS296      0.2175
      6  C6        30.0900   23.6990   28.4510 C.3   296  INS296      0.2175
      7  O1        31.2570   23.9540   30.5260 O.3   296  INS296     -0.2175
      8  O2        31.0750   26.4660   29.4060 O.3   296  INS296     -0.2175
      9  O3        32.1930   27.0080   26.8670 O.3   296  INS296     -0.2175
     10  O4        30.4350   25.5910   25.2310 O.3   296  INS296     -0.2175
     11  O5        28.9050   23.5790   26.3290 O.3   296  INS296     -0.2175
     12  O6        29.7670   22.3340   28.7660 O.3   296  INS296     -0.2175
@<TRIPOS>BOND
     1    10     4    1
     2    11     5    1
     3     4     5    1
     4     4     3    1
     5     9     3    1
     6     5     6    1
     7     3     2    1
     8     6    12    1
     9     6     1    1
    10     2     1    1
    11     2     8    1
    12     1     7    1
