@<TRIPOS>MOLECULE
1aoe_NDP_A_1.pdb
 48 52 0 0 0
SMALL
GASTEIGER

@<TRIPOS>ATOM
      1  PA        28.9550   -7.2810   12.7090 P.3   193  NDP193      0.2189
      2  O1A       27.7990   -6.3530   12.8480 O.3   193  NDP193     -0.4371
      3  O2A       29.9290   -6.8350   11.6760 O.2   193  NDP193     -0.5170
      4  O5B       29.7590   -7.4160   14.1110 O.3   193  NDP193     -0.3112
      5  C5B       28.9940   -7.7910   15.3060 C.3   193  NDP193      0.1813
      6  C4B       29.9570   -7.4420   16.4810 C.3   193  NDP193      0.1820
      7  O4B       30.0400   -6.0170   16.5690 O.3   193  NDP193     -0.3136
      8  C3B       29.4090   -7.9160   17.8500 C.3   193  NDP193      0.2157
      9  O3B       29.7540   -9.2690   18.0300 O.3   193  NDP193     -0.2175
     10  C2B       30.1840   -6.9060   18.7820 C.3   193  NDP193      0.2314
     11  O2B       31.5320   -7.1830   19.0090 O.3   193  NDP193     -0.2630
     12  C1B       30.0840   -5.6580   17.9460 C.3   193  NDP193      0.3158
     13  N9A       28.9100   -4.9050   18.1950 N.pl3 193  NDP193     -0.1439
     14  C8A       27.6740   -5.0870   17.6510 C.3   193  NDP193      0.3377
     15  N7A       26.8050   -4.1790   18.0370 N.2   193  NDP193     -0.2095
     16  C5A       27.5250   -3.3920   18.8880 C.2   193  NDP193      0.2526
     17  C6A       27.1490   -2.2300   19.6040 C.2   193  NDP193      0.4393
     18  N6A       25.8880   -1.7820   19.5350 N.pl3 193  NDP193      0.2180
     19  N1A       28.1090   -1.6510   20.3770 N.2   193  NDP193      0.0021
     20  C2A       29.3640   -2.2190   20.4070 C.3   193  NDP193      0.5254
     21  N3A       29.8030   -3.2670   19.7570 N.2   193  NDP193     -0.0055
     22  C4A       28.8220   -3.7930   18.9870 C.2   193  NDP193      0.3518
     23  O3        28.5070   -8.7170   12.4250 O.3   193  NDP193     -0.2703
     24  PN        27.3020   -9.6150   11.9160 P.3   193  NDP193      0.2189
     25  O1N       27.6430  -11.0540   12.0100 O.2   193  NDP193     -0.5170
     26  O2N       25.9950   -9.2680   12.5300 O.3   193  NDP193     -0.4371
     27  O5D       27.1950   -9.1850   10.3360 O.3   193  NDP193     -0.3112
     28  C5D       28.1060   -9.8320    9.4180 C.3   193  NDP193      0.1813
     29  C4D       27.2970  -10.0380    8.1330 C.3   193  NDP193      0.1799
     30  O4D       27.0460   -8.7400    7.5510 O.3   193  NDP193     -0.3327
     31  C3D       28.1020  -10.8400    7.0790 C.3   193  NDP193      0.2158
     32  O3D       27.2120  -11.7110    6.3940 O.3   193  NDP193     -0.2175
     33  C2D       28.6200   -9.6660    6.2000 C.3   193  NDP193      0.2309
     34  O2D       28.9870  -10.1360    4.8960 O.3   193  NDP193     -0.2158
     35  C1D       27.3750   -8.7930    6.1730 C.3   193  NDP193      0.2263
     36  N1N       27.6330   -7.4150    5.6550 N.pl3 193  NDP193     -0.2787
     37  C2N       26.8480   -7.0250    4.5560 C.3   193  NDP193      0.1244
     38  C3N       27.1030   -5.7740    4.0230 C.2   193  NDP193      0.0544
     39  C7N       26.1950   -5.3450    2.8180 C.2   193  NDP193      0.2818
     40  O7N       26.2820   -4.1950    2.4210 O.2   193  NDP193     -0.2670
     41  N7N       25.3570   -6.3000    2.3130 N.am  193  NDP193     -0.0839
     42  C4N       28.0780   -4.8470    4.5080 C.2   193  NDP193      0.0033
     43  C5N       28.8040   -5.3920    5.6200 C.2   193  NDP193      0.0157
     44  C6N       28.6430   -6.6170    6.1690 C.2   193  NDP193      0.0633
     45  P2B       31.8780   -8.2170   20.3110 P.3   193  NDP193      0.5328
     46  O1X       33.3740   -8.1280   20.1960 O.3   193  NDP193     -0.1145
     47  O2X       31.2770   -7.4820   21.4530 O.3   193  NDP193     -0.1145
     48  O3X       31.2520   -9.4810   19.9920 O.2   193  NDP193     -0.2224
@<TRIPOS>BOND
     1    41    39   am
     2    40    39    2
     3    39    38    1
     4    38    42    2
     5    38    37    1
     6    42    43    1
     7    37    36    1
     8    34    33    1
     9    43    44    2
    10    36    44    1
    11    36    35    1
    12    35    33    1
    13    35    30    1
    14    33    31    1
    15    32    31    1
    16    31    29    1
    17    30    29    1
    18    29    28    1
    19    28    27    1
    20    27    24    1
    21     3     1    2
    22    24    25    2
    23    24    23    1
    24    24    26    1
    25    23     1    1
    26     1     2    1
    27     1     4    1
    28     4     5    1
    29     5     6    1
    30     6     7    1
    31     6     8    1
    32     7    12    1
    33    14    15    1
    34    14    13    1
    35     8     9    1
    36     8    10    1
    37    12    13    1
    38    12    10    1
    39    15    16    2
    40    13    22    1
    41    10    11    1
    42    16    22    1
    43    16    17    1
    44    22    21    2
    45    11    45    1
    46    18    17    1
    47    17    19    2
    48    21    20    1
    49    48    45    2
    50    46    45    1
    51    45    47    1
    52    19    20    1
