@<TRIPOS>MOLECULE
1aoe_GW3_A_1.pdb
 20 22 0 0 0
SMALL
GASTEIGER

@<TRIPOS>ATOM
      1  C1        29.6120   -2.7000    0.2650 C.2   194  GW3194      0.1346
      2  C2        29.7590   -2.4540    1.6170 C.3   194  GW3194      0.1477
      3  C3        28.7360   -1.5310    2.2180 C.2   194  GW3194      0.2205
      4  N4        27.8620   -0.9400    1.4860 N.2   194  GW3194     -0.3112
      5  C5        27.7420   -1.1080    0.1760 C.1   194  GW3194      0.2422
      6  N6        28.6040   -2.0030   -0.4840 N.2   194  GW3194     -0.3295
      7  N7        28.6960   -1.2540    3.5170 N.pl3 194  GW3194     -0.0962
      8  C8        30.5390   -3.5230   -0.4420 C.2   194  GW3194      0.0308
      9  C9        31.5510   -4.1480    0.2780 C.2   194  GW3194      0.0192
     10  C12       31.7050   -4.0000    1.6570 C.ar  194  GW3194      0.0567
     11  C13       30.7800   -3.1190    2.2990 C.ar  194  GW3194      0.0096
     12  C14       31.2550   -3.1600    3.6700 C.ar  194  GW3194      0.0167
     13  C15       32.3120   -4.0160    3.6340 C.ar  194  GW3194      0.0755
     14  N16       32.5510   -4.4340    2.4680 N.ar  194  GW3194     -0.3282
     15  N19       26.8560   -0.4730   -0.5750 N.pl3 194  GW3194     -0.0232
     16  C25       33.6930   -5.3870    2.2090 C.3   194  GW3194      0.0855
     17  C27       33.6910   -6.6470    3.1010 C.3   194  GW3194      0.0226
     18  C30       32.3170   -7.3180    3.2530 C.3   194  GW3194      0.0020
     19  C34       35.0430   -4.6140    2.3320 C.3   194  GW3194      0.0226
     20  C37       35.2290   -3.5050    1.3200 C.3   194  GW3194      0.0020
@<TRIPOS>BOND
     1    15     5    1
     2     6     5    2
     3     6     1    2
     4     8     1    1
     5     8     9    2
     6     5     4    2
     7     1     2    1
     8     9    10    1
     9    20    19    1
    10     4     3    2
    11     2     3    1
    12     2    11    1
    13    10    11   ar
    14    10    14   ar
    15    16    19    1
    16    16    14    1
    17    16    17    1
    18     3     7    1
    19    11    12   ar
    20    14    13   ar
    21    17    18    1
    22    13    12   ar
