@<TRIPOS>MOLECULE
1aof_DHE_A_1.pdb
 49 56 0 0 0
SMALL
GASTEIGER

@<TRIPOS>ATOM
      1 FE         15.0610    3.0820   36.3090 Fe    602  DHE602      0.0000
      2  CHA       11.6830    2.7820   36.0100 C.2   602  DHE602      0.0000
      3  CHB       14.7660    3.5410   39.6530 C.2   602  DHE602      0.0000
      4  CHC       18.3860    2.6980   36.6120 C.2   602  DHE602      0.0000
      5  CHD       15.3550    3.4860   32.9510 C.2   602  DHE602      0.0000
      6  NA        13.4700    3.1030   37.6400 N.2   602  DHE602      0.0000
      7  C1A       12.1440    3.0010   37.3010 C.2   602  DHE602      0.0000
      8  C2A       11.3760    3.1660   38.4860 C.2   602  DHE602      0.0000
      9  C3A       12.2490    3.3780   39.5310 C.2   602  DHE602      0.0000
     10  C4A       13.5670    3.3500   38.9850 C.2   602  DHE602      0.0000
     11  CMA       11.9540    3.6190   40.9850 C.3   602  DHE602      0.0000
     12  CAA        9.8750    3.1150   38.5100 C.3   602  DHE602      0.0000
     13  CBA        9.2690    4.3720   38.0610 C.3   602  DHE602      0.0000
     14  CGA        7.8110    4.5410   38.1850 C.2   602  DHE602      0.0000
     15  O1A        7.1260    3.6180   38.6470 O.co2 602  DHE602      0.0000
     16  O2A        7.3030    5.6160   37.8180 O.co2 602  DHE602      0.0000
     17  NB        16.3990    3.0730   37.8910 N.pl3 602  DHE602      0.0000
     18  C1B       16.0190    3.2610   39.1870 C.2   602  DHE602      0.0000
     19  C2B       17.1890    3.1040   40.0670 C.2   602  DHE602      0.0000
     20  OMB       17.2240    3.2880   41.2490 O.2   602  DHE602      0.0000
     21  C3B       18.3450    2.6490   39.2010 C.2   602  DHE602      0.0000
     22  CGB       18.5700    1.0900   39.5430 C.3   602  DHE602      0.0000
     23  CAB       19.5940    3.3990   39.4510 C.3   602  DHE602      0.0000
     24  CBB       19.6050    4.8260   39.0810 C.2   602  DHE602      0.0000
     25  O1B       20.6850    5.4390   39.1310 O.co2 602  DHE602      0.0000
     26  O2B       18.5510    5.3830   38.7300 O.co2 602  DHE602      0.0000
     27  C4B       17.7170    2.8020   37.8060 C.2   602  DHE602      0.0000
     28  NC        16.6350    3.0900   34.9620 N.2   602  DHE602      0.0000
     29  C1C       17.9230    2.8860   35.3370 C.2   602  DHE602      0.0000
     30  C2C       18.7910    2.8970   34.1380 C.2   602  DHE602      0.0000
     31  OMC       19.9830    2.7400   34.1180 O.2   602  DHE602      0.0000
     32  C3C       17.8900    3.1310   32.9280 C.2   602  DHE602      0.0000
     33  CGC       17.9030    1.7800   32.0660 C.3   602  DHE602      0.0000
     34  CAC       18.3130    4.2520   32.0400 C.3   602  DHE602      0.0000
     35  CBC       18.0570    5.6360   32.4700 C.2   602  DHE602      0.0000
     36  O1C       17.3470    6.3780   31.7370 O.co2 602  DHE602      0.0000
     37  O2C       18.5730    6.0340   33.5310 O.co2 602  DHE602      0.0000
     38  C4C       16.5360    3.2560   33.6130 C.2   602  DHE602      0.0000
     39  ND        13.7290    3.0250   34.7130 N.ar  602  DHE602      0.0000
     40  C1D       14.0640    3.1970   33.3880 C.ar  602  DHE602      0.0000
     41  C2D       12.8860    3.0030   32.6050 C.ar  602  DHE602      0.0000
     42  C3D       11.8420    2.7720   33.4940 C.ar  602  DHE602      0.0000
     43  C4D       12.3720    2.8560   34.8080 C.ar  602  DHE602      0.0000
     44  CMD       12.8440    3.0610   31.0960 C.3   602  DHE602      0.0000
     45  CAD       10.4350    2.4770   33.1960 C.2   602  DHE602      0.0000
     46  CBD        9.9890    1.7460   32.2280 C.2   602  DHE602      0.0000
     47  CGD        8.5940    1.3490   32.0180 C.2   602  DHE602      0.0000
     48  O1D        8.2960    0.7980   30.9510 O.co2 602  DHE602      0.0000
     49  O2D        7.7570    1.5780   32.9250 O.co2 602  DHE602      0.0000
@<TRIPOS>BOND
     1    48    47   ar
     2    44    41    1
     3    36    35   ar
     4    47    46    1
     5    47    49   ar
     6    34    35    1
     7    34    32    1
     8    33    32    1
     9    46    45    2
    10    35    37   ar
    11    41    40   ar
    12    41    42   ar
    13    32    38    1
    14    32    30    2
    15     5    40    2
    16     5    38    1
    17    45    42    1
    18    40    39   ar
    19    42    43   ar
    20    38    28    2
    21    31    30    1
    22    30    29    1
    23    39    43   ar
    24    39     1    1
    25    43     2    2
    26    28    29    1
    27    28     1    1
    28    29     4    2
    29     2     7    1
    30     1     6    1
    31     1    17    1
    32     4    27    1
    33     7     6    2
    34     7     8    1
    35     6    10    1
    36    27    17    1
    37    27    21    2
    38    16    14   ar
    39    17    18    1
    40    13    14    1
    41    13    12    1
    42    14    15   ar
    43     8    12    1
    44     8     9    2
    45    26    24   ar
    46    10     9    1
    47    10     3    2
    48    24    25   ar
    49    24    23    1
    50    18     3    1
    51    18    19    2
    52    21    23    1
    53    21    22    1
    54    21    19    1
    55     9    11    1
    56    19    20    1
