@<TRIPOS>MOLECULE
1aof_HEM_A_1.pdb
 43 50 0 0 0
SMALL
GASTEIGER

@<TRIPOS>ATOM
      1 FE         31.6580    3.0650   48.0630 Fe    601  HEM601      0.0000
      2  CHA       32.3840    0.1410   49.6250 C.2   601  HEM601      0.0000
      3  CHB       33.8260    4.7280   50.0750 C.2   601  HEM601      0.0000
      4  CHC       31.2030    5.9080   46.2490 C.2   601  HEM601      0.0000
      5  CHD       29.4740    1.4270   46.0040 C.2   601  HEM601      0.0000
      6  NA        32.8680    2.5400   49.5200 N.2   601  HEM601      0.0000
      7  C1A       33.0410    1.2850   50.0680 C.2   601  HEM601      0.0000
      8  C2A       33.9610    1.3310   51.2000 C.2   601  HEM601      0.0000
      9  C3A       34.3980    2.6050   51.2950 C.2   601  HEM601      0.0000
     10  C4A       33.7120    3.3570   50.2580 C.2   601  HEM601      0.0000
     11  CMA       35.3910    3.1290   52.3310 C.3   601  HEM601      0.0000
     12  CAA       34.2870    0.1940   52.1670 C.3   601  HEM601      0.0000
     13  CBA       33.0670   -0.2460   52.9690 C.3   601  HEM601      0.0000
     14  CGA       33.3310   -1.4540   53.8490 C.2   601  HEM601      0.0000
     15  O1A       32.5350   -1.6860   54.7840 O.co2 601  HEM601      0.0000
     16  O2A       34.3200   -2.1780   53.6080 O.co2 601  HEM601      0.0000
     17  NB        32.2850    4.9370   48.1940 N.ar  601  HEM601      0.0000
     18  C1B       33.1440    5.4830   49.1350 C.ar  601  HEM601      0.0000
     19  C2B       33.3070    6.9220   48.9470 C.ar  601  HEM601      0.0000
     20  C3B       32.5760    7.2560   47.8530 C.ar  601  HEM601      0.0000
     21  C4B       31.9790    6.0060   47.3780 C.ar  601  HEM601      0.0000
     22  CMB       34.0330    7.8970   49.8790 C.3   601  HEM601      0.0000
     23  CAB       32.2540    8.6650   47.3260 C.3   601  HEM601      0.0000
     24  CBB       33.3790    9.5910   46.8860 C.3   601  HEM601      0.0000
     25  NC        30.6170    3.5510   46.4590 N.2   601  HEM601      0.0000
     26  C1C       30.5600    4.7750   45.8140 C.2   601  HEM601      0.0000
     27  C2C       29.6220    4.7590   44.7030 C.2   601  HEM601      0.0000
     28  C3C       29.1010    3.5220   44.6550 C.2   601  HEM601      0.0000
     29  C4C       29.7180    2.7650   45.7410 C.2   601  HEM601      0.0000
     30  CMC       29.2690    5.9040   43.7630 C.3   601  HEM601      0.0000
     31  CAC       28.0360    3.0570   43.6630 C.3   601  HEM601      0.0000
     32  CBC       28.6130    2.7110   42.2970 C.3   601  HEM601      0.0000
     33  ND        31.0500    1.1850   47.8650 N.ar  601  HEM601      0.0000
     34  C1D       30.1200    0.6710   46.9690 C.ar  601  HEM601      0.0000
     35  C2D       29.9550   -0.7660   47.1540 C.ar  601  HEM601      0.0000
     36  C3D       30.7310   -1.1370   48.1920 C.ar  601  HEM601      0.0000
     37  C4D       31.4400    0.0740   48.6120 C.ar  601  HEM601      0.0000
     38  CMD       29.0880   -1.7150   46.3290 C.3   601  HEM601      0.0000
     39  CAD       30.6900   -2.5410   48.8250 C.3   601  HEM601      0.0000
     40  CBD       31.9670   -3.3560   49.0490 C.3   601  HEM601      0.0000
     41  CGD       32.6590   -3.7840   47.7590 C.2   601  HEM601      0.0000
     42  O1D       32.3920   -3.1930   46.6900 O.co2 601  HEM601      0.0000
     43  O2D       33.4900   -4.7150   47.8140 O.co2 601  HEM601      0.0000
@<TRIPOS>BOND
     1    32    31    1
     2    31    28    1
     3    30    27    1
     4    28    27    2
     5    28    29    1
     6    27    26    1
     7    29     5    1
     8    29    25    2
     9    26     4    2
    10    26    25    1
    11     5    34    2
    12     4    21    1
    13    38    35    1
    14    25     1    1
    15    42    41   ar
    16    24    23    1
    17    34    35   ar
    18    34    33   ar
    19    35    36   ar
    20    23    20    1
    21    21    20   ar
    22    21    17   ar
    23    41    43   ar
    24    41    40    1
    25    20    19   ar
    26    33     1    1
    27    33    37   ar
    28     1    17    1
    29     1     6    1
    30    36    37   ar
    31    36    39    1
    32    17    18   ar
    33    37     2    2
    34    39    40    1
    35    19    18   ar
    36    19    22    1
    37    18     3    1
    38     6     7    2
    39     6    10    1
    40     2     7    1
    41     7     8    1
    42     3    10    2
    43    10     9    1
    44     8     9    2
    45     8    12    1
    46     9    11    1
    47    12    13    1
    48    13    14    1
    49    16    14   ar
    50    14    15   ar
