@<TRIPOS>MOLECULE
1aom_HEM_B_1.pdb
 43 50 0 0 0
SMALL
GASTEIGER

@<TRIPOS>ATOM
      1 FE         13.7130   28.9070   74.8360 Fe    601  HEM601      0.0000
      2  CHA       13.9750   31.4190   72.5910 C.2   601  HEM601      0.0000
      3  CHB       17.0800   28.4860   74.7190 C.2   601  HEM601      0.0000
      4  CHC       13.4960   26.7650   77.4220 C.2   601  HEM601      0.0000
      5  CHD       10.3190   29.0560   74.6740 C.2   601  HEM601      0.0000
      6  NA        15.2020   29.7400   73.8310 N.ar  601  HEM601      0.0000
      7  C1A       15.1490   30.7870   72.9530 C.ar  601  HEM601      0.0000
      8  C2A       16.4950   31.1660   72.5050 C.ar  601  HEM601      0.0000
      9  C3A       17.3500   30.3290   73.0890 C.ar  601  HEM601      0.0000
     10  C4A       16.5470   29.4370   73.8970 C.ar  601  HEM601      0.0000
     11  CMA       18.8690   30.3530   72.9510 C.3   601  HEM601      0.0000
     12  CAA       16.8650   32.3130   71.5770 C.3   601  HEM601      0.0000
     13  CBA       16.8660   31.8350   70.1260 C.3   601  HEM601      0.0000
     14  CGA       16.8250   32.9740   69.1140 C.2   601  HEM601      0.0000
     15  O1A       16.7880   34.1560   69.5110 O.co2 601  HEM601      0.0000
     16  O2A       16.8140   32.6770   67.9010 O.co2 601  HEM601      0.0000
     17  NB        14.9930   27.8560   75.8330 N.2   601  HEM601      0.0000
     18  C1B       16.3710   27.7470   75.6360 C.2   601  HEM601      0.0000
     19  C2B       16.9870   26.8510   76.5800 C.2   601  HEM601      0.0000
     20  C3B       15.9930   26.4270   77.3970 C.2   601  HEM601      0.0000
     21  C4B       14.7630   27.0270   76.9160 C.2   601  HEM601      0.0000
     22  CMB       18.4490   26.3940   76.6170 C.3   601  HEM601      0.0000
     23  CAB       16.1700   25.4880   78.5900 C.3   601  HEM601      0.0000
     24  CBB       17.0040   26.0400   79.7400 C.3   601  HEM601      0.0000
     25  NC        12.2090   28.0470   75.8290 N.ar  601  HEM601      0.0000
     26  C1C       12.3040   27.2180   76.9150 C.ar  601  HEM601      0.0000
     27  C2C       10.9850   26.7920   77.3910 C.ar  601  HEM601      0.0000
     28  C3C       10.0900   27.3380   76.5190 C.ar  601  HEM601      0.0000
     29  C4C       10.8620   28.1640   75.5930 C.ar  601  HEM601      0.0000
     30  CMC       10.6900   25.9250   78.6020 C.3   601  HEM601      0.0000
     31  CAC        8.5900   27.0700   76.4120 C.3   601  HEM601      0.0000
     32  CBC        7.7100   27.5860   77.5340 C.3   601  HEM601      0.0000
     33  ND        12.4300   30.0070   73.8570 N.2   601  HEM601      0.0000
     34  C1D       11.0430   29.9510   73.9000 C.2   601  HEM601      0.0000
     35  C2D       10.4500   31.0270   73.1400 C.2   601  HEM601      0.0000
     36  C3D       11.4830   31.7350   72.5960 C.2   601  HEM601      0.0000
     37  C4D       12.7010   31.0790   73.0260 C.2   601  HEM601      0.0000
     38  CMD        8.9590   31.3140   72.9910 C.3   601  HEM601      0.0000
     39  CAD       11.3760   32.9570   71.6740 C.3   601  HEM601      0.0000
     40  CBD       11.2700   32.6380   70.1870 C.3   601  HEM601      0.0000
     41  CGD        9.9800   31.9300   69.8300 C.2   601  HEM601      0.0000
     42  O1D       10.0200   30.7050   69.5910 O.co2 601  HEM601      0.0000
     43  O2D        8.9190   32.5950   69.7960 O.co2 601  HEM601      0.0000
@<TRIPOS>BOND
     1    16    14   ar
     2    14    15   ar
     3    14    13    1
     4    42    41   ar
     5    43    41   ar
     6    41    40    1
     7    13    12    1
     8    40    39    1
     9    12     8    1
    10    39    36    1
    11     8     7   ar
    12     8     9   ar
    13     2     7    2
    14     2    37    1
    15    36    37    1
    16    36    35    2
    17    11     9    1
    18     7     6   ar
    19    38    35    1
    20    37    33    2
    21     9    10   ar
    22    35    34    1
    23     6    10   ar
    24     6     1    1
    25    33    34    1
    26    33     1    1
    27    10     3    2
    28    34     5    2
    29     5    29    1
    30     3    18    1
    31     1    25    1
    32     1    17    1
    33    29    25   ar
    34    29    28   ar
    35    18    17    2
    36    18    19    1
    37    25    26   ar
    38    17    21    1
    39    31    28    1
    40    31    32    1
    41    28    27   ar
    42    19    22    1
    43    19    20    2
    44    26    27   ar
    45    26     4    1
    46    21    20    1
    47    21     4    2
    48    27    30    1
    49    20    23    1
    50    23    24    1
