@<TRIPOS>MOLECULE
1aom_DHE_A_1.pdb
 49 56 0 0 0
SMALL
GASTEIGER

@<TRIPOS>ATOM
      1 FE         14.7420    2.9580   36.0990 Fe    602  DHE602      0.0000
      2  CHA       11.3840    2.6110   35.7700 C.2   602  DHE602      0.0000
      3  CHB       14.4340    3.4430   39.4290 C.2   602  DHE602      0.0000
      4  CHC       18.0280    2.4170   36.3910 C.2   602  DHE602      0.0000
      5  CHD       15.0600    3.4370   32.7460 C.2   602  DHE602      0.0000
      6  NA        13.1450    2.9560   37.4220 N.2   602  DHE602      0.0000
      7  C1A       11.8190    2.8520   37.0670 C.2   602  DHE602      0.0000
      8  C2A       11.0270    3.0440   38.2360 C.2   602  DHE602      0.0000
      9  C3A       11.8990    3.2100   39.3010 C.2   602  DHE602      0.0000
     10  C4A       13.2330    3.2190   38.7620 C.2   602  DHE602      0.0000
     11  CMA       11.5830    3.3480   40.7570 C.3   602  DHE602      0.0000
     12  CAA        9.5130    3.0620   38.2520 C.3   602  DHE602      0.0000
     13  CBA        8.9450    4.3550   37.8490 C.3   602  DHE602      0.0000
     14  CGA        7.4800    4.5140   37.8230 C.2   602  DHE602      0.0000
     15  O1A        6.7650    3.6740   38.3920 O.co2 602  DHE602      0.0000
     16  O2A        6.9960    5.5030   37.2360 O.co2 602  DHE602      0.0000
     17  NB        16.0720    2.9050   37.6770 N.pl3 602  DHE602      0.0000
     18  C1B       15.6990    3.1330   38.9680 C.2   602  DHE602      0.0000
     19  C2B       16.8810    2.9840   39.8440 C.2   602  DHE602      0.0000
     20  OMB       16.9350    3.2070   41.0180 O.2   602  DHE602      0.0000
     21  C3B       18.0200    2.4680   38.9760 C.2   602  DHE602      0.0000
     22  CGB       18.1850    0.9110   39.3440 C.3   602  DHE602      0.0000
     23  CAB       19.3170    3.1670   39.1780 C.3   602  DHE602      0.0000
     24  CBB       19.3250    4.6420   39.1060 C.2   602  DHE602      0.0000
     25  O1B       20.2520    5.2510   39.6870 O.co2 602  DHE602      0.0000
     26  O2B       18.4300    5.2410   38.4760 O.co2 602  DHE602      0.0000
     27  C4B       17.3820    2.5970   37.5910 C.2   602  DHE602      0.0000
     28  NC        16.3000    2.9120   34.7420 N.2   602  DHE602      0.0000
     29  C1C       17.5800    2.6480   35.1190 C.2   602  DHE602      0.0000
     30  C2C       18.4600    2.6750   33.9310 C.2   602  DHE602      0.0000
     31  OMC       19.6290    2.3580   33.8880 O.2   602  DHE602      0.0000
     32  C3C       17.6180    3.1990   32.7710 C.2   602  DHE602      0.0000
     33  CGC       17.6680    2.0700   31.6110 C.3   602  DHE602      0.0000
     34  CAC       18.0720    4.5170   32.2490 C.3   602  DHE602      0.0000
     35  CBC       18.2850    5.5910   33.2500 C.2   602  DHE602      0.0000
     36  O1C       18.1800    6.7770   32.8880 O.co2 602  DHE602      0.0000
     37  O2C       18.5740    5.2920   34.4280 O.co2 602  DHE602      0.0000
     38  C4C       16.2270    3.1930   33.4180 C.2   602  DHE602      0.0000
     39  ND        13.4200    3.0110   34.5030 N.ar  602  DHE602      0.0000
     40  C1D       13.7670    3.1700   33.1860 C.ar  602  DHE602      0.0000
     41  C2D       12.5930    3.0100   32.3990 C.ar  602  DHE602      0.0000
     42  C3D       11.5650    2.6860   33.2590 C.ar  602  DHE602      0.0000
     43  C4D       12.0740    2.7580   34.5820 C.ar  602  DHE602      0.0000
     44  CMD       12.5660    3.1820   30.9070 C.3   602  DHE602      0.0000
     45  CAD       10.1830    2.3240   32.9350 C.2   602  DHE602      0.0000
     46  CBD        9.7610    1.6500   31.9200 C.2   602  DHE602      0.0000
     47  CGD        8.3890    1.1550   31.7510 C.2   602  DHE602      0.0000
     48  O1D        8.1010    0.5510   30.6990 O.co2 602  DHE602      0.0000
     49  O2D        7.5540    1.3620   32.6750 O.co2 602  DHE602      0.0000
@<TRIPOS>BOND
     1    48    47   ar
     2    44    41    1
     3    33    32    1
     4    47    46    1
     5    47    49   ar
     6    46    45    2
     7    34    32    1
     8    34    35    1
     9    41    40   ar
    10    41    42   ar
    11     5    40    2
    12     5    38    1
    13    32    38    1
    14    32    30    2
    15    36    35   ar
    16    45    42    1
    17    40    39   ar
    18    35    37   ar
    19    42    43   ar
    20    38    28    2
    21    31    30    1
    22    30    29    1
    23    39    43   ar
    24    39     1    1
    25    43     2    2
    26    28    29    1
    27    28     1    1
    28    29     4    2
    29     2     7    1
    30     1     6    1
    31     1    17    1
    32     4    27    1
    33     7     6    2
    34     7     8    1
    35    16    14   ar
    36     6    10    1
    37    27    17    1
    38    27    21    2
    39    17    18    1
    40    14    13    1
    41    14    15   ar
    42    13    12    1
    43     8    12    1
    44     8     9    2
    45    26    24   ar
    46    10     9    1
    47    10     3    2
    48    18     3    1
    49    18    19    2
    50    21    23    1
    51    21    22    1
    52    21    19    1
    53    24    23    1
    54    24    25   ar
    55     9    11    1
    56    19    20    1
