@<TRIPOS>MOLECULE
1aon_ADP_A_1.pdb
 27 29 0 0 0
SMALL
GASTEIGER

@<TRIPOS>ATOM
      1  PB        32.5110  -43.9530  -18.7200 P.3     1  ADP1        0.5373
      2  O1B       31.2120  -43.4930  -19.2910 O.3     1  ADP1       -0.1143
      3  O2B       32.5730  -45.3540  -18.2590 O.3     1  ADP1       -0.1143
      4  O3B       33.7550  -43.4100  -19.3490 O.2     1  ADP1       -0.2221
      5  PA        31.8680  -41.7330  -17.1940 P.3     1  ADP1        0.2231
      6  O1A       32.2510  -41.0810  -15.9130 O.3     1  ADP1       -0.4370
      7  O2A       32.1700  -41.0640  -18.4720 O.2     1  ADP1       -0.5169
      8  O3A       32.4550  -43.2110  -17.3060 O.3     1  ADP1       -0.2261
      9  O5'       30.3040  -41.9700  -17.0880 O.3     1  ADP1       -0.3111
     10  C5'       29.5960  -41.4750  -15.9620 C.3     1  ADP1        0.1813
     11  C4'       28.2340  -42.1160  -15.8680 C.3     1  ADP1        0.1821
     12  O4'       27.5030  -41.4850  -14.7840 O.3     1  ADP1       -0.3135
     13  C3'       27.3580  -41.9030  -17.0900 C.3     1  ADP1        0.2184
     14  O3'       27.6090  -42.9340  -18.0380 O.3     1  ADP1       -0.2174
     15  C2'       25.9490  -41.9650  -16.5080 C.3     1  ADP1        0.2570
     16  O2'       25.5350  -43.2900  -16.2420 O.3     1  ADP1       -0.2130
     17  C1'       26.1550  -41.2590  -15.1680 C.3     1  ADP1        0.3186
     18  N9        25.8950  -39.8120  -15.1490 N.pl3   1  ADP1       -0.1439
     19  C8        26.3480  -38.8320  -16.0010 C.3     1  ADP1        0.3377
     20  N7        25.9340  -37.6240  -15.6880 N.2     1  ADP1       -0.2095
     21  C5        25.1480  -37.8240  -14.5590 C.2     1  ADP1        0.2526
     22  C6        24.4230  -36.9360  -13.7320 C.2     1  ADP1        0.4393
     23  N6        24.3910  -35.6130  -13.9100 N.pl3   1  ADP1        0.2180
     24  N1        23.7390  -37.4620  -12.6920 N.2     1  ADP1        0.0021
     25  C2        23.8090  -38.7820  -12.4830 C.3     1  ADP1        0.5254
     26  N3        24.4670  -39.7130  -13.1710 N.2     1  ADP1       -0.0055
     27  C4        25.1170  -39.1640  -14.2140 C.2     1  ADP1        0.3518
@<TRIPOS>BOND
     1     4     1    2
     2     2     1    1
     3     1     3    1
     4     1     8    1
     5     7     5    2
     6    14    13    1
     7     8     5    1
     8     5     9    1
     9     5     6    1
    10    13    15    1
    11    13    11    1
    12     9    10    1
    13    15    16    1
    14    15    17    1
    15    19    20    1
    16    19    18    1
    17    10    11    1
    18    11    12    1
    19    20    21    2
    20    17    18    1
    21    17    12    1
    22    18    27    1
    23    21    27    1
    24    21    22    1
    25    27    26    2
    26    23    22    1
    27    22    24    2
    28    26    25    1
    29    24    25    1
