@<TRIPOS>MOLECULE
1aoq_DHE_A_1.pdb
 49 56 0 0 0
SMALL
GASTEIGER

@<TRIPOS>ATOM
      1 FE         14.9090    3.2300   36.1280 Fe    602  DHE602      0.0000
      2  CHA       11.5570    2.6590   35.8600 C.2   602  DHE602      0.0000
      3  CHB       14.6020    3.6270   39.5150 C.2   602  DHE602      0.0000
      4  CHC       18.2780    3.3480   36.3820 C.2   602  DHE602      0.0000
      5  CHD       15.1420    3.5610   32.7280 C.2   602  DHE602      0.0000
      6  NA        13.3270    3.0890   37.4790 N.2   602  DHE602      0.0000
      7  C1A       12.0000    2.9190   37.1450 C.2   602  DHE602      0.0000
      8  C2A       11.2150    3.0640   38.3330 C.2   602  DHE602      0.0000
      9  C3A       12.0780    3.3110   39.3800 C.2   602  DHE602      0.0000
     10  C4A       13.4100    3.3600   38.8380 C.2   602  DHE602      0.0000
     11  CMA       11.7450    3.5160   40.8270 C.3   602  DHE602      0.0000
     12  CAA        9.7050    2.9910   38.3720 C.3   602  DHE602      0.0000
     13  CBA        9.0740    4.1650   37.7550 C.3   602  DHE602      0.0000
     14  CGA        7.6190    4.3520   37.8870 C.2   602  DHE602      0.0000
     15  O1A        6.9150    3.4260   38.3190 O.co2 602  DHE602      0.0000
     16  O2A        7.1330    5.4500   37.5580 O.co2 602  DHE602      0.0000
     17  NB        16.2560    3.4150   37.6940 N.pl3 602  DHE602      0.0000
     18  C1B       15.8770    3.5750   39.0050 C.2   602  DHE602      0.0000
     19  C2B       17.0990    3.6970   39.8470 C.2   602  DHE602      0.0000
     20  OMB       17.1490    4.0200   41.0040 O.2   602  DHE602      0.0000
     21  C3B       18.2840    3.3250   38.9580 C.2   602  DHE602      0.0000
     22  CGB       18.6420    1.8020   39.2870 C.3   602  DHE602      0.0000
     23  CAB       19.5000    4.1570   39.1360 C.3   602  DHE602      0.0000
     24  CBB       19.3210    5.6130   39.1710 C.2   602  DHE602      0.0000
     25  O1B       19.9970    6.2750   39.9940 O.co2 602  DHE602      0.0000
     26  O2B       18.5160    6.1490   38.3800 O.co2 602  DHE602      0.0000
     27  C4B       17.6130    3.3700   37.5840 C.2   602  DHE602      0.0000
     28  NC        16.4580    3.3750   34.7420 N.2   602  DHE602      0.0000
     29  C1C       17.7780    3.4180   35.1090 C.2   602  DHE602      0.0000
     30  C2C       18.6290    3.5830   33.9050 C.2   602  DHE602      0.0000
     31  OMC       19.8410    3.6970   33.8800 O.2   602  DHE602      0.0000
     32  C3C       17.7080    3.5710   32.6970 C.2   602  DHE602      0.0000
     33  CGC       17.9620    2.1730   31.9430 C.3   602  DHE602      0.0000
     34  CAC       17.9570    4.6870   31.7440 C.3   602  DHE602      0.0000
     35  CBC       17.6830    6.0630   32.1970 C.2   602  DHE602      0.0000
     36  O1C       16.9850    6.8180   31.4550 O.co2 602  DHE602      0.0000
     37  O2C       18.1620    6.4520   33.2830 O.co2 602  DHE602      0.0000
     38  C4C       16.3360    3.5130   33.3880 C.2   602  DHE602      0.0000
     39  ND        13.5760    3.0450   34.5410 N.ar  602  DHE602      0.0000
     40  C1D       13.8840    3.2100   33.2120 C.ar  602  DHE602      0.0000
     41  C2D       12.7020    2.9610   32.4530 C.ar  602  DHE602      0.0000
     42  C3D       11.6970    2.6550   33.3450 C.ar  602  DHE602      0.0000
     43  C4D       12.2330    2.7760   34.6550 C.ar  602  DHE602      0.0000
     44  CMD       12.6450    3.0330   30.9600 C.3   602  DHE602      0.0000
     45  CAD       10.3090    2.2720   33.0550 C.2   602  DHE602      0.0000
     46  CBD        9.8960    1.5020   32.0980 C.2   602  DHE602      0.0000
     47  CGD        8.5030    1.0910   31.8740 C.2   602  DHE602      0.0000
     48  O1D        8.2270    0.4750   30.8260 O.co2 602  DHE602      0.0000
     49  O2D        7.6400    1.3790   32.7440 O.co2 602  DHE602      0.0000
@<TRIPOS>BOND
     1    48    47   ar
     2    44    41    1
     3    36    35   ar
     4    34    35    1
     5    34    32    1
     6    47    46    1
     7    47    49   ar
     8    33    32    1
     9    46    45    2
    10    35    37   ar
    11    41    40   ar
    12    41    42   ar
    13    32    38    1
    14    32    30    2
    15     5    40    2
    16     5    38    1
    17    45    42    1
    18    40    39   ar
    19    42    43   ar
    20    38    28    2
    21    31    30    1
    22    30    29    1
    23    39    43   ar
    24    39     1    1
    25    43     2    2
    26    28    29    1
    27    28     1    1
    28    29     4    2
    29     2     7    1
    30     1     6    1
    31     1    17    1
    32     4    27    1
    33     7     6    2
    34     7     8    1
    35     6    10    1
    36    16    14   ar
    37    27    17    1
    38    27    21    2
    39    17    18    1
    40    13    14    1
    41    13    12    1
    42    14    15   ar
    43     8    12    1
    44     8     9    2
    45    26    24   ar
    46    10     9    1
    47    10     3    2
    48    21    23    1
    49    21    22    1
    50    21    19    1
    51    18     3    1
    52    18    19    2
    53    23    24    1
    54    24    25   ar
    55     9    11    1
    56    19    20    1
