@<TRIPOS>MOLECULE
1aoq_HEM_A_1.pdb
 43 50 0 0 0
SMALL
GASTEIGER

@<TRIPOS>ATOM
      1 FE         29.2210   -1.4510   50.5980 Fe    601  HEM601      0.0000
      2  CHA       29.7260   -3.7860   52.9580 C.2   601  HEM601      0.0000
      3  CHB       31.4040    0.6430   52.2080 C.2   601  HEM601      0.0000
      4  CHC       29.1860    0.6870   47.9390 C.2   601  HEM601      0.0000
      5  CHD       26.8560   -3.3230   49.1360 C.2   601  HEM601      0.0000
      6  NA        30.2950   -1.5210   52.2610 N.2   601  HEM601      0.0000
      7  C1A       30.4110   -2.5920   53.1280 C.2   601  HEM601      0.0000
      8  C2A       31.3460   -2.2970   54.2160 C.2   601  HEM601      0.0000
      9  C3A       31.8140   -1.0550   54.0020 C.2   601  HEM601      0.0000
     10  C4A       31.1410   -0.5630   52.7990 C.2   601  HEM601      0.0000
     11  CMA       32.8700   -0.3510   54.8470 C.3   601  HEM601      0.0000
     12  CAA       31.7180   -3.1780   55.4010 C.3   601  HEM601      0.0000
     13  CBA       30.5290   -3.3940   56.3280 C.3   601  HEM601      0.0000
     14  CGA       30.8250   -4.3560   57.4650 C.2   601  HEM601      0.0000
     15  O1A       31.6210   -5.2990   57.2680 O.co2 601  HEM601      0.0000
     16  O2A       30.2500   -4.1730   58.5610 O.co2 601  HEM601      0.0000
     17  NB        30.0650    0.2970   50.1900 N.ar  601  HEM601      0.0000
     18  C1B       30.9100    1.0560   50.9840 C.ar  601  HEM601      0.0000
     19  C2B       31.3780    2.2530   50.3080 C.ar  601  HEM601      0.0000
     20  C3B       30.8360    2.2270   49.0530 C.ar  601  HEM601      0.0000
     21  C4B       30.0030    1.0280   49.0050 C.ar  601  HEM601      0.0000
     22  CMB       32.2470    3.3440   50.9470 C.3   601  HEM601      0.0000
     23  CAB       31.0430    3.2280   47.9130 C.3   601  HEM601      0.0000
     24  CBB       32.4770    3.6500   47.6040 C.3   601  HEM601      0.0000
     25  NC        28.2160   -1.3280   48.9010 N.2   601  HEM601      0.0000
     26  C1C       28.3200   -0.3880   47.8990 C.2   601  HEM601      0.0000
     27  C2C       27.3560   -0.6500   46.8300 C.2   601  HEM601      0.0000
     28  C3C       26.6440   -1.7400   47.2210 C.2   601  HEM601      0.0000
     29  C4C       27.2220   -2.1720   48.4750 C.2   601  HEM601      0.0000
     30  CMC       27.1930    0.1250   45.5240 C.3   601  HEM601      0.0000
     31  CAC       25.3600   -2.3230   46.6200 C.3   601  HEM601      0.0000
     32  CBC       25.4400   -2.8940   45.2100 C.3   601  HEM601      0.0000
     33  ND        28.4390   -3.1690   50.9820 N.ar  601  HEM601      0.0000
     34  C1D       27.4380   -3.8120   50.2840 C.ar  601  HEM601      0.0000
     35  C2D       27.2010   -5.1370   50.8110 C.ar  601  HEM601      0.0000
     36  C3D       28.0930   -5.3150   51.8120 C.ar  601  HEM601      0.0000
     37  C4D       28.8100   -4.0670   51.9600 C.ar  601  HEM601      0.0000
     38  CMD       26.1970   -6.1680   50.3040 C.3   601  HEM601      0.0000
     39  CAD       28.4080   -6.6400   52.5040 C.3   601  HEM601      0.0000
     40  CBD       27.6620   -6.8720   53.8090 C.3   601  HEM601      0.0000
     41  CGD       26.1620   -6.9550   53.6160 C.2   601  HEM601      0.0000
     42  O1D       25.4830   -5.9180   53.7700 O.co2 601  HEM601      0.0000
     43  O2D       25.6600   -8.0540   53.3000 O.co2 601  HEM601      0.0000
@<TRIPOS>BOND
     1    32    31    1
     2    30    27    1
     3    31    28    1
     4    27    28    2
     5    27    26    1
     6    28    29    1
     7    24    23    1
     8    26     4    2
     9    26    25    1
    10    23    20    1
    11     4    21    1
    12    29    25    2
    13    29     5    1
    14    25     1    1
    15    21    20   ar
    16    21    17   ar
    17    20    19   ar
    18     5    34    2
    19    17     1    1
    20    17    18   ar
    21    34    35   ar
    22    34    33   ar
    23    38    35    1
    24    19    22    1
    25    19    18   ar
    26     1    33    1
    27     1     6    1
    28    35    36   ar
    29    33    37   ar
    30    18     3    1
    31    36    37   ar
    32    36    39    1
    33    37     2    2
    34     3    10    2
    35     6    10    1
    36     6     7    2
    37    39    40    1
    38    10     9    1
    39     2     7    1
    40     7     8    1
    41    43    41   ar
    42    41    42   ar
    43    41    40    1
    44     9     8    2
    45     9    11    1
    46     8    12    1
    47    12    13    1
    48    13    14    1
    49    15    14   ar
    50    14    16   ar
