@<TRIPOS>MOLECULE
1aoz_NAG_A_1.pdb
 14 14 0 0 0
SMALL
GASTEIGER

@<TRIPOS>ATOM
      1  C1        63.0660   16.6850  -17.9490 C.3   601  NAG601      0.1665
      2  C2        62.8870   16.1480  -19.3300 C.3   601  NAG601      0.1576
      3  C3        64.0770   15.2330  -19.6380 C.3   601  NAG601      0.2069
      4  C4        65.3750   15.9380  -19.3990 C.3   601  NAG601      0.2134
      5  C5        65.4640   16.4710  -17.9940 C.3   601  NAG601      0.1809
      6  C6        66.7360   17.3100  -17.7490 C.3   601  NAG601      0.2141
      7  C7        60.5210   16.1150  -19.7800 C.2   601  NAG601      0.2420
      8  C8        59.2450   15.2960  -19.8250 C.3   601  NAG601      0.0964
      9  N2        61.6470   15.4750  -19.5040 N.am  601  NAG601     -0.2019
     10  O3        63.9630   14.7320  -20.9530 O.3   601  NAG601     -0.2184
     11  O4        66.4380   15.0400  -19.6340 O.3   601  NAG601     -0.2176
     12  O5        64.3170   17.3490  -17.7570 O.3   601  NAG601     -0.3489
     13  O6        66.7140   18.4940  -18.5150 O.3   601  NAG601     -0.2176
     14  O7        60.5360   17.3160  -20.0250 O.2   601  NAG601     -0.2733
@<TRIPOS>BOND
     1    10     3    1
     2    14     7    2
     3     8     7    1
     4     7     9   am
     5     3     4    1
     6     3     2    1
     7    11     4    1
     8     9     2    1
     9     4     5    1
    10     2     1    1
    11    13     6    1
    12     5    12    1
    13     5     6    1
    14     1    12    1
