@<TRIPOS>MOLECULE
1ap8_M7G_A_1.pdb
 44 46 0 0 0
SMALL
GASTEIGER

@<TRIPOS>ATOM
      1  PA        12.1920  -15.4740   -5.7080 P.3   214  M7G214      0.2224
      2  O1A       10.7680  -15.8580   -5.5930 O.3   214  M7G214     -0.4370
      3  O2A       13.2430  -16.5160   -5.7520 O.2   214  M7G214     -0.5170
      4  O3A       12.3880  -14.4450   -6.9290 O.3   214  M7G214     -0.2261
      5  O5'       12.5420  -14.4470   -4.5190 O.3   214  M7G214     -0.3245
      6  PB        13.7120  -13.6430   -7.3740 P.3   214  M7G214      0.5373
      7  O1B       13.9310  -13.8900   -8.8070 O.2   214  M7G214     -0.2221
      8  O2B       14.7790  -13.9610   -6.4160 O.3   214  M7G214     -0.1143
      9  O3B       13.2720  -12.1700   -7.1740 O.3   214  M7G214     -0.1143
     10  C5'       12.2330  -13.0520   -4.6500 C.3   214  M7G214      0.0836
     11  C4'       11.6900  -12.4500   -3.3610 C.3   214  M7G214      0.1130
     12  O4'       11.4640  -11.0340   -3.5180 O.3   214  M7G214     -0.3478
     13  C3'       10.3670  -13.0860   -2.9700 C.3   214  M7G214      0.1133
     14  O3'       10.4980  -13.8360   -1.7600 O.3   214  M7G214     -0.3864
     15  C2'        9.3910  -11.9380   -2.7970 C.3   214  M7G214      0.1263
     16  O2'        8.7170  -12.0160   -1.5380 O.3   214  M7G214     -0.3849
     17  C1'       10.2130  -10.6680   -2.9040 C.3   214  M7G214      0.1570
     18  N9         9.4920   -9.6910   -3.7260 N.pl3 214  M7G214     -0.2598
     19  C8         9.3360   -9.6640   -5.0670 C.3   214  M7G214      0.1149
     20  N7         8.5520   -8.7750   -5.5580 N.3   214  M7G214     -0.2618
     21  CM7        8.2060   -8.5760   -6.9610 C.3   214  M7G214     -0.0095
     22  C5         8.1250   -8.0980   -4.4170 C.3   214  M7G214      0.2028
     23  C6         7.2430   -6.9920   -4.2940 C.2   214  M7G214      0.2517
     24  O6         6.6560   -6.3800   -5.1860 O.2   214  M7G214     -0.2727
     25  N1         7.0750   -6.6210   -2.9690 N.am  214  M7G214     -0.2461
     26  C2         7.6780   -7.2340   -1.8890 C.2   214  M7G214      0.2388
     27  N2         7.3590   -6.7450   -0.6910 N.pl3 214  M7G214     -0.3207
     28  N3         8.5130   -8.2760   -1.9950 N.2   214  M7G214     -0.3609
     29  C4         8.6920   -8.6560   -3.2830 C.2   214  M7G214      0.1887
     30 H5'1       11.4780  -12.9280   -5.4280 H     214  M7G214      0.0591
     31 H5'2       13.1410  -12.5130   -4.9250 H     214  M7G214      0.0591
     32  H4'       12.4160  -12.6060   -2.5640 H     214  M7G214      0.0647
     33  H3'       10.0190  -13.7350   -3.7800 H     214  M7G214      0.0647
     34 HO3'        9.6170  -14.1210   -1.5040 H     214  M7G214      0.2100
     35  H2'        8.6670  -11.9630   -3.6170 H     214  M7G214      0.0663
     36 HO2'        9.3610  -12.3070   -0.8860 H     214  M7G214      0.2101
     37  H1'       10.3940  -10.2480   -1.9120 H     214  M7G214      0.0837
     38  H81        9.8580  -10.3720   -5.7090 H     214  M7G214      0.0705
     39 HM71        7.4150   -9.2040   -7.2110 H     214  M7G214      0.0392
     40 HM72        9.0250   -8.8000   -7.5530 H     214  M7G214      0.0392
     41 HM73        7.9240   -7.5900   -7.1090 H     214  M7G214      0.0392
     42  HN1        6.4630   -5.8360   -2.8030 H     214  M7G214      0.1585
     43 HN21        7.7410   -7.1610    0.1440 H     214  M7G214      0.1459
     44 HN22        6.7320   -5.9560   -0.6200 H     214  M7G214      0.1459
@<TRIPOS>BOND
     1     7     6    2
     2    40    21    1
     3     6     9    1
     4     6     4    1
     5     6     8    1
     6    39    21    1
     7    41    21    1
     8    21    20    1
     9     4     1    1
    10     3     1    2
    11    38    19    1
    12     1     2    1
    13     1     5    1
    14    20    19    1
    15    20    22    1
    16    30    10    1
    17    24    23    2
    18    19    18    1
    19    31    10    1
    20    10     5    1
    21    10    11    1
    22    22    23    1
    23    22    29    1
    24    23    25   am
    25    33    13    1
    26    18    29    1
    27    18    17    1
    28    35    15    1
    29    12    11    1
    30    12    17    1
    31    11    13    1
    32    11    32    1
    33    29    28    2
    34    13    15    1
    35    13    14    1
    36    25    42    1
    37    25    26    1
    38    17    15    1
    39    17    37    1
    40    15    16    1
    41    28    26    2
    42    26    27    1
    43    14    34    1
    44    16    36    1
    45    27    44    1
    46    27    43    1
