@<TRIPOS>MOLECULE
1ap9_RET_A_1.pdb
 20 20 0 0 0
SMALL
GASTEIGER

@<TRIPOS>ATOM
      1  C1        15.3950   45.5350    1.1780 C.3   300  RET300      0.0183
      2  C2        14.6150   46.3110    0.1220 C.3   300  RET300      0.0044
      3  C3        15.2070   47.6770   -0.0630 C.3   300  RET300      0.0047
      4  C4        15.2060   48.5010    1.2150 C.3   300  RET300      0.0217
      5  C5        15.6230   47.7100    2.4210 C.2   300  RET300     -0.0479
      6  C6        15.7230   46.3440    2.4610 C.2   300  RET300     -0.0307
      7  C7        16.1240   45.6120    3.6720 C.2   300  RET300     -0.0052
      8  C8        16.2360   44.3150    4.0070 C.2   300  RET300     -0.0046
      9  C9        16.6420   43.5820    5.1900 C.2   300  RET300     -0.0219
     10  C10       16.5780   42.2050    5.1160 C.2   300  RET300     -0.0043
     11  C11       16.8540   41.1740    6.0820 C.2   300  RET300     -0.0007
     12  C12       16.9600   39.8850    5.7220 C.2   300  RET300     -0.0046
     13  C13       17.2540   38.7990    6.5810 C.2   300  RET300     -0.0261
     14  C14       17.4510   37.6720    5.8930 C.2   300  RET300     -0.0300
     15  C15       17.8620   36.5170    6.5100 C.3   300  RET300      0.0304
     16  C16       14.5120   44.3410    1.3170 C.3   300  RET300      0.0043
     17  C17       16.7510   45.1130    0.5590 C.3   300  RET300      0.0043
     18  C18       15.8690   48.7460    3.4800 C.3   300  RET300      0.0260
     19  C19       17.1520   44.3540    6.3770 C.3   300  RET300      0.0310
     20  C20       17.4090   38.9910    8.0720 C.3   300  RET300      0.0307
@<TRIPOS>BOND
     1     3     2    1
     2     3     4    1
     3     2     1    1
     4    17     1    1
     5     1    16    1
     6     1     6    1
     7     4     5    1
     8     5     6    2
     9     5    18    1
    10     6     7    1
    11     7     8    2
    12     8     9    1
    13    10     9    2
    14    10    11    1
    15     9    19    1
    16    12    11    2
    17    12    13    1
    18    14    15    1
    19    14    13    2
    20    13    20    1
