@<TRIPOS>MOLECULE
1apb_FCA_A_1.pdb
 11 11 0 0 0
SMALL
GASTEIGER

@<TRIPOS>ATOM
      1  C1        14.1310   56.9170   54.9940 C.3   307  FCA307      0.3023
      2  C2        12.6730   57.2260   54.7600 C.3   307  FCA307      0.2434
      3  C3        12.1730   56.3000   53.6630 C.3   307  FCA307      0.2198
      4  C4        12.9940   56.4150   52.3860 C.3   307  FCA307      0.2118
      5  C5        14.4420   56.1420   52.7520 C.3   307  FCA307      0.1509
      6  C6        15.3460   56.2490   51.5300 C.3   307  FCA307      0.0350
      7  O1        14.2590   55.5810   55.5080 O.3   307  FCA307     -0.1869
      8  O2        11.8460   57.0110   55.9200 O.3   307  FCA307     -0.2148
      9  O3        10.7650   56.4510   53.4370 O.3   307  FCA307     -0.2174
     10  O4        12.7450   57.6280   51.6700 O.3   307  FCA307     -0.2177
     11  O5        14.8740   57.0540   53.7720 O.3   307  FCA307     -0.3264
@<TRIPOS>BOND
     1     6     5    1
     2    10     4    1
     3     4     5    1
     4     4     3    1
     5     5    11    1
     6     9     3    1
     7     3     2    1
     8    11     1    1
     9     2     1    1
    10     2     8    1
    11     1     7    1
