@<TRIPOS>MOLECULE
1apb_FCB_A_1.pdb
 11 11 0 0 0
SMALL
GASTEIGER

@<TRIPOS>ATOM
      1  C1        14.2590   56.4290   55.0020 C.3   308  FCB308      0.3023
      2  C2        12.8940   56.9600   54.6440 C.3   308  FCB308      0.2434
      3  C3        12.4620   56.2850   53.3440 C.3   308  FCB308      0.2198
      4  C4        13.4770   56.4860   52.2310 C.3   308  FCB308      0.2118
      5  C5        14.8130   55.9620   52.7210 C.3   308  FCB308      0.1509
      6  C6        15.8950   56.1350   51.6700 C.3   308  FCB308      0.0350
      7  O1        14.8690   57.0610   56.1230 O.3   308  FCB308     -0.1869
      8  O2        11.8910   56.6950   55.6320 O.3   308  FCB308     -0.2148
      9  O3        11.1250   56.6440   52.9780 O.3   308  FCB308     -0.2174
     10  O4        13.4710   57.8220   51.7090 O.3   308  FCB308     -0.2177
     11  O5        15.1850   56.6440   53.9280 O.3   308  FCB308     -0.3264
@<TRIPOS>BOND
     1     6     5    1
     2    10     4    1
     3     4     5    1
     4     4     3    1
     5     5    11    1
     6     9     3    1
     7     3     2    1
     8    11     1    1
     9     2     1    1
    10     2     8    1
    11     1     7    1
