@<TRIPOS>MOLECULE
1apt_III_I_1.pdb
 35 34 0 0 0
SMALL
GASTEIGER

@<TRIPOS>ATOM
      1  CA        15.9970    4.5340   17.8420 C.3     4  IVA4        0.0868
      2  CB        14.8110    3.8320   18.4830 C.3     4  IVA4        0.0091
      3  CG1       14.3780    4.6600   19.6910 C.3     4  IVA4        0.0005
      4  CG2       13.6190    3.6990   17.5650 C.3     4  IVA4        0.0005
      5  C         17.1540    4.7370   18.8420 C.2     4  IVA4        0.2418
      6  O         17.2100    4.0790   19.9240 O.2     4  IVA4       -0.2733
      7  N         18.0490    5.6090   18.4820 N.am    3  VAL3       -0.1978
      8  CA        19.2360    5.8820   19.3380 C.3     3  VAL3        0.1726
      9  C         19.1450    7.2460   20.0120 C.2     3  VAL3        0.2616
     10  O         18.2980    8.1010   19.6030 O.2     3  VAL3       -0.2715
     11  CB        20.4240    5.6900   18.3900 C.3     3  VAL3        0.0290
     12  CG1       20.4730    4.2560   17.8390 C.3     3  VAL3        0.0023
     13  CG2       20.3120    6.6250   17.1640 C.3     3  VAL3        0.0023
     14  N         20.0330    7.3890   20.9900 N.am    2  VAL2       -0.1963
     15  CA        20.1500    8.6590   21.7390 C.3     2  VAL2        0.1727
     16  C         21.6610    8.9920   21.8230 C.2     2  VAL2        0.2612
     17  O         22.3270    8.3940   22.7050 O.2     2  VAL2       -0.2715
     18  CB        19.4630    8.6030   23.1130 C.3     2  VAL2        0.0290
     19  CG1       19.5160    9.9810   23.8310 C.3     2  VAL2        0.0023
     20  CG2       18.0160    8.1750   22.9680 C.3     2  VAL2        0.0023
     21  N         22.1030    9.8790   20.9330 N.am    1  LTA1       -0.2031
     22  CA        23.5500   10.2150   20.9470 C.3     1  LTA1        0.1262
     23  CB        24.2170    9.8420   19.6330 C.3     1  LTA1        0.0243
     24  CG        24.0570    8.4950   19.0470 C.3     1  LTA1        0.0034
     25  CD        24.4590    7.2840   19.8780 C.3     1  LTA1        0.0206
     26  CE        24.3380    6.0550   18.9110 C.3     1  LTA1        0.1093
     27  NZ        24.2520    4.9300   19.8910 N.3     1  LTA1       -0.1314
     28  C         23.7360   11.7390   21.1200 C.3     1  LTA1        0.1828
     29  O         23.2200   12.4700   20.1800 O.3     1  LTA1       -0.2207
     30  C2        23.0800   12.0760   22.4260 C.3     1  LTA1        0.1441
     31  C1        23.9940   12.2990   23.6030 C.2     1  LTA1        0.3197
     32  O1        24.4520   11.2400   24.1330 O.2     1  LTA1       -0.2500
     33  O2        23.4360   13.3690   24.2190 O.3     1  LTA1       -0.4484
     34  C9        22.2790   13.2050   25.1680 C.3     1  LTA1        0.2086
     35  C10       21.6650   14.5560   25.5010 C.3     1  LTA1        0.0513
@<TRIPOS>BOND
     1    13    11    1
     2     4     2    1
     3    12    11    1
     4     1     2    1
     5     1     5    1
     6    11     8    1
     7     7     5   am
     8     7     8    1
     9     2     3    1
    10     5     6    2
    11    26    25    1
    12    26    27    1
    13    24    23    1
    14    24    25    1
    15     8     9    1
    16    10     9    2
    17    23    22    1
    18     9    14   am
    19    29    28    1
    20    21    22    1
    21    21    16   am
    22    22    28    1
    23    14    15    1
    24    28    30    1
    25    15    16    1
    26    15    18    1
    27    16    17    2
    28    30    31    1
    29    20    18    1
    30    18    19    1
    31    31    32    2
    32    31    33    1
    33    33    34    1
    34    34    35    1
