@<TRIPOS>MOLECULE
1apu_III_I_1.pdb
 33 31 0 0 0
SMALL
GASTEIGER

@<TRIPOS>ATOM
      1  CA        15.8690    4.3700   17.6520 C.3     4  IVA4        0.0868
      2  CB        14.4350    4.4960   18.1710 C.3     4  IVA4        0.0091
      3  CG1       13.5390    3.3530   17.7400 C.3     4  IVA4        0.0005
      4  CG2       14.3680    4.7510   19.6640 C.3     4  IVA4        0.0005
      5  C         16.9720    4.6170   18.6700 C.2     4  IVA4        0.2418
      6  O         17.0350    3.8640   19.6860 O.2     4  IVA4       -0.2733
      7  N         17.8230    5.5970   18.4620 N.am    3  VAL3       -0.1978
      8  CA        18.9900    5.8600   19.2950 C.3     3  VAL3        0.1726
      9  C         18.9450    7.1940   20.0250 C.2     3  VAL3        0.2616
     10  O         18.1640    8.0550   19.5630 O.2     3  VAL3       -0.2715
     11  CB        20.2140    5.8900   18.3140 C.3     3  VAL3        0.0290
     12  CG1       20.5330    4.5160   17.7300 C.3     3  VAL3        0.0023
     13  CG2       20.0640    6.8310   17.1240 C.3     3  VAL3        0.0023
     14  N         19.7660    7.3430   21.0400 N.am    2  VAL2       -0.1963
     15  CA        19.8570    8.6710   21.7260 C.3     2  VAL2        0.1727
     16  C         21.3700    8.9950   21.8100 C.2     2  VAL2        0.2612
     17  O         21.9600    8.4640   22.7750 O.2     2  VAL2       -0.2715
     18  CB        19.1580    8.6670   23.0690 C.3     2  VAL2        0.0290
     19  CG1       19.0640   10.0530   23.7460 C.3     2  VAL2        0.0023
     20  CG2       17.7590    8.1090   22.9570 C.3     2  VAL2        0.0023
     21  N         21.9000    9.7750   20.8850 N.am    1  STA1       -0.2031
     22  CA        23.3400   10.1170   20.8750 C.3     1  STA1        0.1257
     23  CB        23.9740    9.6530   19.5500 C.3     1  STA1        0.0243
     24  CG        23.7680    8.1780   19.2410 C.3     1  STA1        0.0018
     25  CD1       24.2370    7.8530   17.8320 C.3     1  STA1        0.0001
     26  CD2       24.4680    7.2820   20.2760 C.3     1  STA1        0.0001
     27  CH        23.4830   11.6370   21.1040 C.3     1  STA1        0.1744
     28  OH        23.0310   12.4140   20.1680 O.3     1  STA1       -0.2212
     29  CM        22.6430   11.8060   22.3740 C.3     1  STA1        0.0702
     30  C         23.6030   12.3260   23.4280 C.3     1  STA1        0.1848
     31  O         23.9360   11.4700   24.3050 O.3     1  STA1       -0.2203
     32  C1        22.5400   14.7830   25.6900 C.3     1  EHN1        0.0000
     33  C2        22.0950   13.8650   24.5630 C.3     1  EHN1        0.0000
@<TRIPOS>BOND
     1    13    11    1
     2     1     2    1
     3     1     5    1
     4    12    11    1
     5     3     2    1
     6    25    24    1
     7     2     4    1
     8    11     8    1
     9     7     5   am
    10     7     8    1
    11     5     6    2
    12    24    23    1
    13    24    26    1
    14     8     9    1
    15    23    22    1
    16    10     9    2
    17     9    14   am
    18    28    27    1
    19    22    21    1
    20    22    27    1
    21    21    16   am
    22    14    15    1
    23    27    29    1
    24    15    16    1
    25    15    18    1
    26    16    17    2
    27    29    30    1
    28    20    18    1
    29    18    19    1
    30    30    31    1
    31    33    32    1
