@<TRIPOS>MOLECULE
1apv_III_I_1.pdb
 36 35 0 0 0
SMALL
GASTEIGER

@<TRIPOS>ATOM
      1  CA        16.0190    4.5530   17.9340 C.3     4  IVA4        0.0868
      2  CB        14.7990    3.9160   18.5820 C.3     4  IVA4        0.0091
      3  CG1       14.3210    4.9180   19.6410 C.3     4  IVA4        0.0005
      4  CG2       13.7190    3.6180   17.5740 C.3     4  IVA4        0.0005
      5  C         17.1300    4.8030   18.9660 C.2     4  IVA4        0.2418
      6  O         17.1600    4.1620   20.0510 O.2     4  IVA4       -0.2733
      7  N         18.0000    5.7030   18.5940 N.am    3  VAL3       -0.1978
      8  CA        19.1740    6.0020   19.4660 C.3     3  VAL3        0.1726
      9  C         19.0780    7.3870   20.1050 C.2     3  VAL3        0.2616
     10  O         18.2360    8.1860   19.6660 O.2     3  VAL3       -0.2715
     11  CB        20.4050    5.8710   18.5450 C.3     3  VAL3        0.0290
     12  CG1       20.5140    4.4980   17.8720 C.3     3  VAL3        0.0023
     13  CG2       20.3940    6.9660   17.4880 C.3     3  VAL3        0.0023
     14  N         19.9330    7.5290   21.0860 N.am    2  VAL2       -0.1963
     15  CA        19.9710    8.8400   21.8490 C.3     2  VAL2        0.1727
     16  C         21.4750    9.1630   22.0480 C.2     2  VAL2        0.2614
     17  O         22.0280    8.5270   22.9380 O.2     2  VAL2       -0.2715
     18  CB        19.2190    8.7390   23.1690 C.3     2  VAL2        0.0290
     19  CG1       19.1830   10.1550   23.8360 C.3     2  VAL2        0.0023
     20  CG2       17.8090    8.2400   23.1190 C.3     2  VAL2        0.0023
     21  N         22.0060   10.0660   21.2120 N.am    1  DFO1       -0.1977
     22  CA        23.4390   10.3800   21.3090 C.3     1  DFO1        0.1853
     23  CB        24.0620    9.9190   19.9650 C.3     1  DFO1        0.0297
     24  CG        23.7960    8.4950   19.5250 C.3     1  DFO1        0.0020
     25  CD1       24.3870    8.2280   18.1500 C.3     1  DFO1        0.0001
     26  CD2       24.4460    7.4540   20.4830 C.3     1  DFO1        0.0001
     27  CH        23.6380   11.8880   21.5110 C.3     1  DFO1        0.4315
     28  OH1       25.0190   12.1230   21.4170 O.2     1  DFO1       -0.2669
     29  OH2       22.8910   12.6110   20.4760 O.2     1  DFO1       -0.2669
     30  CM        23.2280   12.4820   22.8930 C.3     1  DFO1        0.4082
     31  F1        22.0750   11.9820   23.2420 F       1  DFO1       -0.1861
     32  F2        23.1050   13.8100   22.8380 F       1  DFO1       -0.1861
     33  C         24.3170   12.1080   23.9700 C.2     1  DFO1        0.3105
     34  O         24.3070   11.0000   24.5350 O.2     1  DFO1       -0.2671
     35  N         25.1930   13.0570   24.1750 N.am    1  NME1       -0.1987
     36  C         26.3230   12.9170   25.1300 C.3     1  NME1        0.1387
@<TRIPOS>BOND
     1    13    11    1
     2     4     2    1
     3    12    11    1
     4     1     2    1
     5     1     5    1
     6    25    24    1
     7    11     8    1
     8     2     3    1
     9     7     5   am
    10     7     8    1
    11     5     6    2
    12     8     9    1
    13    24    23    1
    14    24    26    1
    15    10     9    2
    16    23    22    1
    17     9    14   am
    18    29    27    1
    19    14    15    1
    20    21    22    1
    21    21    16   am
    22    22    27    1
    23    28    27    1
    24    27    30    1
    25    15    16    1
    26    15    18    1
    27    16    17    2
    28    32    30    1
    29    30    31    1
    30    30    33    1
    31    20    18    1
    32    18    19    1
    33    33    35   am
    34    33    34    2
    35    35    36    1
