@<TRIPOS>MOLECULE
1apw_III_I_1.pdb
 35 34 0 0 0
SMALL
GASTEIGER

@<TRIPOS>ATOM
      1  CA        16.0840    4.4610   17.7960 C.3     4  IVA4        0.0868
      2  CB        14.8430    3.8580   18.4520 C.3     4  IVA4        0.0091
      3  CG1       14.3540    4.8740   19.4690 C.3     4  IVA4        0.0005
      4  CG2       13.7470    3.5900   17.4470 C.3     4  IVA4        0.0005
      5  C         17.2070    4.7150   18.8020 C.2     4  IVA4        0.2418
      6  O         17.2750    4.0360   19.8570 O.2     4  IVA4       -0.2733
      7  N         18.0800    5.6360   18.4920 N.am    3  VAL3       -0.1978
      8  CA        19.2180    5.9090   19.3990 C.3     3  VAL3        0.1726
      9  C         19.1120    7.2860   20.0730 C.2     3  VAL3        0.2616
     10  O         18.2720    8.0860   19.6240 O.2     3  VAL3       -0.2715
     11  CB        20.4700    5.7770   18.4920 C.3     3  VAL3        0.0290
     12  CG1       20.5610    4.4210   17.7960 C.3     3  VAL3        0.0023
     13  CG2       20.4440    6.8290   17.3790 C.3     3  VAL3        0.0023
     14  N         19.9740    7.4100   21.0550 N.am    2  VAL2       -0.1963
     15  CA        20.0420    8.6950   21.8260 C.3     2  VAL2        0.1727
     16  C         21.5340    9.0230   21.9350 C.2     2  VAL2        0.2612
     17  O         22.1540    8.4020   22.8160 O.2     2  VAL2       -0.2715
     18  CB        19.3120    8.6400   23.1800 C.3     2  VAL2        0.0290
     19  CG1       19.2610   10.0270   23.8480 C.3     2  VAL2        0.0023
     20  CG2       17.9070    8.1110   23.0550 C.3     2  VAL2        0.0023
     21  N         22.0560    9.9170   21.0780 N.am    1  DFI1       -0.2029
     22  CA        23.4740   10.2430   21.0960 C.3     1  DFI1        0.1317
     23  CB        24.1080    9.7490   19.7650 C.3     1  DFI1        0.0245
     24  CG        23.8560    8.2980   19.4030 C.3     1  DFI1        0.0018
     25  CD1       24.4200    8.0080   17.9990 C.3     1  DFI1        0.0001
     26  CD2       24.4870    7.3210   20.4130 C.3     1  DFI1        0.0001
     27  CH        23.7370   11.7430   21.2650 C.3     1  DFI1        0.2411
     28  OH        22.8880   12.5040   20.3570 O.3     1  DFI1       -0.2148
     29  CM        23.4880   12.3710   22.6610 C.3     1  DFI1        0.3607
     30  F1        22.3150   11.9820   23.1560 F       1  DFI1       -0.1917
     31  F2        23.3830   13.7150   22.6590 F       1  DFI1       -0.1917
     32  C         24.5910   11.9540   23.6870 C.2     1  DFI1        0.3053
     33  O         24.5680   10.8510   24.2720 O.2     1  DFI1       -0.2673
     34  N         25.5250   12.8650   23.8560 N.am    1  NME1       -0.1989
     35  C         26.6620   12.6360   24.8010 C.3     1  NME1        0.1387
@<TRIPOS>BOND
     1    13    11    1
     2     4     2    1
     3     1     2    1
     4     1     5    1
     5    12    11    1
     6    25    24    1
     7     2     3    1
     8     7     5   am
     9     7     8    1
    10    11     8    1
    11     5     6    2
    12     8     9    1
    13    24    23    1
    14    24    26    1
    15    10     9    2
    16    23    22    1
    17     9    14   am
    18    28    27    1
    19    14    15    1
    20    21    22    1
    21    21    16   am
    22    22    27    1
    23    27    29    1
    24    15    16    1
    25    15    18    1
    26    16    17    2
    27    31    29    1
    28    29    30    1
    29    29    32    1
    30    20    18    1
    31    18    19    1
    32    32    34   am
    33    32    33    2
    34    34    35    1
