@<TRIPOS>MOLECULE
1apx_HEM_A_1.pdb
 43 50 0 0 0
SMALL
GASTEIGER

@<TRIPOS>ATOM
      1 FE         17.6870    0.1320    1.5280 Fe    251  HEM251      0.0000
      2  CHA       14.7420    1.6850    2.2460 C.2   251  HEM251      0.0000
      3  CHB       18.4100    2.5170   -0.8720 C.2   251  HEM251      0.0000
      4  CHC       20.7450   -1.3010    0.9780 C.2   251  HEM251      0.0000
      5  CHD       17.1940   -1.9920    4.2010 C.2   251  HEM251      0.0000
      6  NA        16.7540    1.7460    0.7910 N.ar  251  HEM251      0.0000
      7  C1A       15.5650    2.2660    1.2730 C.ar  251  HEM251      0.0000
      8  C2A       15.4150    3.5970    0.7310 C.ar  251  HEM251      0.0000
      9  C3A       16.2610    3.6960   -0.3200 C.ar  251  HEM251      0.0000
     10  C4A       17.2020    2.6150   -0.1890 C.ar  251  HEM251      0.0000
     11  CMA       16.3250    4.8110   -1.3680 C.3   251  HEM251      0.0000
     12  CAA       14.6410    4.7370    1.3280 C.3   251  HEM251      0.0000
     13  CBA       13.1840    4.5160    1.2000 C.3   251  HEM251      0.0000
     14  CGA       12.3930    5.6690    1.7510 C.2   251  HEM251      0.0000
     15  O1A       12.2350    6.6710    1.0280 O.co2 251  HEM251      0.0000
     16  O2A       11.9080    5.5690    2.8980 O.co2 251  HEM251      0.0000
     17  NB        19.2130    0.4720    0.2260 N.2   251  HEM251      0.0000
     18  C1B       19.3460    1.5150   -0.6670 C.2   251  HEM251      0.0000
     19  C2B       20.6130    1.4280   -1.3160 C.2   251  HEM251      0.0000
     20  C3B       21.1480    0.2400   -0.9770 C.2   251  HEM251      0.0000
     21  C4B       20.3680   -0.2670    0.1230 C.2   251  HEM251      0.0000
     22  CMB       21.1590    2.4820   -2.2400 C.3   251  HEM251      0.0000
     23  CAB       22.2210   -0.3230   -1.6250 C.3   251  HEM251      0.0000
     24  CBB       22.5890   -1.7220   -1.6090 C.3   251  HEM251      0.0000
     25  NC        18.7600   -1.3550    2.4200 N.ar  251  HEM251      0.0000
     26  C1C       20.0150   -1.7880    2.0570 C.ar  251  HEM251      0.0000
     27  C2C       20.5110   -2.7280    3.0390 C.ar  251  HEM251      0.0000
     28  C3C       19.5100   -2.9520    3.9130 C.ar  251  HEM251      0.0000
     29  C4C       18.4170   -2.0850    3.5340 C.ar  251  HEM251      0.0000
     30  CMC       21.9370   -3.2920    3.1050 C.3   251  HEM251      0.0000
     31  CAC       19.5480   -3.7670    5.0450 C.3   251  HEM251      0.0000
     32  CBC       19.6000   -5.1860    5.1100 C.3   251  HEM251      0.0000
     33  ND        16.1760   -0.2230    2.8290 N.2   251  HEM251      0.0000
     34  C1D       16.1460   -1.1420    3.8540 C.2   251  HEM251      0.0000
     35  C2D       14.8030   -1.2050    4.3830 C.2   251  HEM251      0.0000
     36  C3D       14.1110   -0.1720    3.8370 C.2   251  HEM251      0.0000
     37  C4D       15.0180    0.5130    2.9430 C.2   251  HEM251      0.0000
     38  CMD       14.2530   -2.2620    5.3240 C.3   251  HEM251      0.0000
     39  CAD       12.6320    0.1640    4.1050 C.3   251  HEM251      0.0000
     40  CBD       12.3640    1.2000    5.1950 C.3   251  HEM251      0.0000
     41  CGD       10.8790    1.5010    5.3890 C.2   251  HEM251      0.0000
     42  O1D       10.5460    2.5850    5.8890 O.co2 251  HEM251      0.0000
     43  O2D       10.0240    0.6590    5.0600 O.co2 251  HEM251      0.0000
@<TRIPOS>BOND
     1    22    19    1
     2    23    24    1
     3    23    20    1
     4    11     9    1
     5    19    20    2
     6    19    18    1
     7    20    21    1
     8     3    18    1
     9     3    10    2
    10    18    17    2
    11     9    10   ar
    12     9     8   ar
    13    10     6   ar
    14    21    17    1
    15    21     4    2
    16    17     1    1
    17     8     7   ar
    18     8    12    1
    19     6     7   ar
    20     6     1    1
    21     4    26    1
    22    15    14   ar
    23    13    12    1
    24    13    14    1
    25     7     2    2
    26     1    25    1
    27     1    33    1
    28    14    16   ar
    29    26    25   ar
    30    26    27   ar
    31     2    37    1
    32    25    29   ar
    33    33    37    2
    34    33    34    1
    35    37    36    1
    36    27    30    1
    37    27    28   ar
    38    29    28   ar
    39    29     5    1
    40    36    39    1
    41    36    35    2
    42    34     5    2
    43    34    35    1
    44    28    31    1
    45    39    40    1
    46    35    38    1
    47    31    32    1
    48    43    41   ar
    49    40    41    1
    50    41    42   ar
