@<TRIPOS>MOLECULE
1aq0_NAG_A_1.pdb
 14 14 0 0 0
SMALL
GASTEIGER

@<TRIPOS>ATOM
      1  C1        19.2120   95.5360   18.1760 C.3   307  NAG307      0.1665
      2  C2        19.5840   96.7750   19.0010 C.3   307  NAG307      0.1576
      3  C3        20.0130   97.9270   18.0730 C.3   307  NAG307      0.2069
      4  C4        21.0540   97.4530   17.0470 C.3   307  NAG307      0.2134
      5  C5        20.5310   96.2020   16.3320 C.3   307  NAG307      0.1809
      6  C6        21.4740   95.6190   15.2980 C.3   307  NAG307      0.2141
      7  C7        18.4560   97.0610   21.1050 C.2   307  NAG307      0.2420
      8  C8        17.2220   97.5270   21.8420 C.3   307  NAG307      0.0964
      9  N2        18.4670   97.2080   19.7900 N.am  307  NAG307     -0.2019
     10  O3        20.5370   98.9820   18.8650 O.3   307  NAG307     -0.2184
     11  O4        21.2590   98.4900   16.0980 O.3   307  NAG307     -0.2176
     12  O5        20.2530   95.1670   17.2870 O.3   307  NAG307     -0.3489
     13  O6        22.6200   95.0630   15.9180 O.3   307  NAG307     -0.2176
     14  O7        19.3950   96.5860   21.7200 O.2   307  NAG307     -0.2733
@<TRIPOS>BOND
     1     6    13    1
     2     6     5    1
     3    11     4    1
     4     5     4    1
     5     5    12    1
     6     4     3    1
     7    12     1    1
     8     3    10    1
     9     3     2    1
    10     1     2    1
    11     2     9    1
    12     9     7   am
    13     7    14    2
    14     7     8    1
