@<TRIPOS>MOLECULE
1aq1_STU_A_1.pdb
 35 42 0 0 0
SMALL
GASTEIGER

@<TRIPOS>ATOM
      1  O4        -0.0580   24.6050    8.9150 O.3   299  STU299     -0.3186
      2  C25        1.3300   24.6420    8.6200 C.3   299  STU299      0.2078
      3  C24        2.1900   24.1630    9.8170 C.3   299  STU299      0.0739
      4  C23        1.2850   23.8640   11.0150 C.3   299  STU299      0.1086
      5  C22        0.3990   25.1070   11.3170 C.3   299  STU299      0.1761
      6  C21       -0.5830   25.1790   10.1000 C.3   299  STU299      0.1915
      7  C26       -1.7820   24.3150   10.4450 C.3   299  STU299      0.0566
      8  N2        -1.0180   26.5730    9.8090 N.ar  299  STU299     -0.3054
      9  C18       -0.2490   27.3530    8.9070 C.ar  299  STU299      0.0774
     10  C19        0.8600   27.1010    8.2060 C.ar  299  STU299      0.0783
     11  C6         1.4780   28.0810    7.3700 C.ar  299  STU299      0.0293
     12  C7         0.7740   29.3740    7.3290 C.ar  299  STU299      0.0822
     13  C10       -0.3120   29.6130    8.0170 C.ar  299  STU299      0.0154
     14  C11       -0.9010   28.6450    8.8630 C.ar  299  STU299      0.0173
     15  C12       -2.0370   28.5990    9.7020 C.ar  299  STU299      0.0171
     16  C17       -2.1080   27.3050   10.3030 C.ar  299  STU299      0.0617
     17  C16       -3.1120   27.0110   11.1730 C.ar  299  STU299      0.0172
     18  C15       -4.0610   27.9440   11.4680 C.ar  299  STU299      0.0015
     19  C14       -4.0150   29.2500   10.8950 C.ar  299  STU299      0.0001
     20  C13       -2.9870   29.5370   10.0290 C.ar  299  STU299      0.0015
     21  C9        -0.7870   31.0610    7.7940 C.3   299  STU299      0.1650
     22  N1         0.2460   31.4880    6.8730 N.2   299  STU299     -0.1976
     23  C8         1.1910   30.5900    6.5600 C.1   299  STU299      0.1501
     24  O5         2.1450   30.7330    5.8200 O.2   299  STU299     -0.2222
     25  C5         2.6460   27.5280    6.8110 C.ar  299  STU299      0.0180
     26  C20        2.7410   26.1970    7.3090 C.ar  299  STU299      0.0618
     27  C1         3.7550   25.3170    6.9230 C.ar  299  STU299      0.0172
     28  C2         4.7040   25.7920    6.0470 C.ar  299  STU299      0.0015
     29  C3         4.6280   27.1160    5.5550 C.ar  299  STU299      0.0001
     30  C4         3.6100   27.9460    5.9210 C.ar  299  STU299      0.0015
     31  N3         1.7090   25.9710    8.1520 N.ar  299  STU299     -0.3039
     32  O6         1.2830   26.2450   11.2960 O.3   299  STU299     -0.3478
     33  C27        0.7080   27.3650   11.9400 C.3   299  STU299      0.1743
     34  N4         2.1900   23.5100   12.2490 N.3   299  STU299     -0.2152
     35  C28        2.2190   22.0360   12.4640 C.3   299  STU299      0.1075
@<TRIPOS>BOND
     1    29    30   ar
     2    29    28   ar
     3    24    23    2
     4    30    25   ar
     5    28    27   ar
     6    23    22    2
     7    23    12    1
     8    25    26   ar
     9    25    11   ar
    10    22    21    1
    11    27    26   ar
    12    26    31   ar
    13    12    11   ar
    14    12    13   ar
    15    11    10   ar
    16    21    13    1
    17    13    14   ar
    18    31    10   ar
    19    31     2    1
    20    10     9   ar
    21     2     1    1
    22     2     3    1
    23    14     9   ar
    24    14    15   ar
    25     9     8   ar
    26     1     6    1
    27    15    20   ar
    28    15    16   ar
    29     8     6    1
    30     8    16   ar
    31     3     4    1
    32    20    19   ar
    33     6     7    1
    34     6     5    1
    35    16    17   ar
    36    19    18   ar
    37     4     5    1
    38     4    34    1
    39    17    18   ar
    40    32     5    1
    41    32    33    1
    42    34    35    1
