@<TRIPOS>MOLECULE
1aq2_ATP_A_1.pdb
 31 33 0 0 0
SMALL
GASTEIGER

@<TRIPOS>ATOM
      1  PG        31.3460    4.5850   10.3770 P.3   541  ATP541      0.5373
      2  O1G       30.8030    3.2640    9.9870 O.3   541  ATP541     -0.1143
      3  O2G       32.1950    5.2100    9.3280 O.2   541  ATP541     -0.2221
      4  O3G       32.0110    4.5340   11.6710 O.3   541  ATP541     -0.1143
      5  PB        29.2810    6.1540   11.8480 P.3   541  ATP541      0.2277
      6  O1B       27.8600    5.8560   11.5000 O.2   541  ATP541     -0.5168
      7  O2B       29.8730    5.5770   13.0650 O.3   541  ATP541     -0.4368
      8  O3B       30.1790    5.7520   10.4430 O.3   541  ATP541     -0.2258
      9  PA        29.6550    8.5150   13.1330 P.3   541  ATP541      0.2189
     10  O1A       28.6460    8.0350   14.0970 O.3   541  ATP541     -0.4371
     11  O2A       31.0840    8.4620   13.5120 O.2   541  ATP541     -0.5170
     12  O3A       29.4880    7.7100   11.7490 O.3   541  ATP541     -0.2700
     13  O5'       29.4890   10.0520   12.7830 O.3   541  ATP541     -0.3112
     14  C5'       28.4750   11.0140   12.6920 C.3   541  ATP541      0.1813
     15  C4'       29.2370   12.2610   12.4500 C.3   541  ATP541      0.1821
     16  O4'       28.3410   13.3570   12.2710 O.3   541  ATP541     -0.3135
     17  C3'       30.1010   12.6820   13.6280 C.3   541  ATP541      0.2184
     18  O3'       31.1570   13.5270   13.1350 O.3   541  ATP541     -0.2174
     19  C2'       29.1130   13.5450   14.4390 C.3   541  ATP541      0.2570
     20  O2'       29.7800   14.5170   15.2400 O.3   541  ATP541     -0.2130
     21  C1'       28.4290   14.3150   13.3500 C.3   541  ATP541      0.3186
     22  N9        27.0280   14.7740   13.7040 N.pl3 541  ATP541     -0.1439
     23  C8        26.5930   16.0550   13.5920 C.3   541  ATP541      0.3377
     24  N7        25.3210   16.2050   13.7730 N.2   541  ATP541     -0.2095
     25  C5        24.8610   14.9410   14.0350 C.2   541  ATP541      0.2526
     26  C6        23.5920   14.4720   14.3170 C.2   541  ATP541      0.4393
     27  N6        22.5660   15.3360   14.3850 N.pl3 541  ATP541      0.2180
     28  N1        23.4460   13.1550   14.5470 N.2   541  ATP541      0.0021
     29  C2        24.4860   12.3470   14.5050 C.3   541  ATP541      0.5254
     30  N3        25.7330   12.6950   14.2480 N.2   541  ATP541     -0.0055
     31  C4        25.8730   14.0340   14.0120 C.2   541  ATP541      0.3518
@<TRIPOS>BOND
     1     3     1    2
     2     2     1    1
     3     1     8    1
     4     1     4    1
     5     8     5    1
     6     6     5    2
     7    12     5    1
     8    12     9    1
     9     5     7    1
    10    16    15    1
    11    16    21    1
    12    15    14    1
    13    15    17    1
    14    14    13    1
    15    13     9    1
    16     9    11    2
    17     9    10    1
    18    18    17    1
    19    21    22    1
    20    21    19    1
    21    23    22    1
    22    23    24    1
    23    17    19    1
    24    22    31    1
    25    24    25    2
    26    31    25    1
    27    31    30    2
    28    25    26    1
    29    30    29    1
    30    26    27    1
    31    26    28    2
    32    19    20    1
    33    29    28    1
