@<TRIPOS>MOLECULE
1aq7_III_B_1.pdb
 45 47 0 0 0
SMALL
GASTEIGER

@<TRIPOS>ATOM
      1  O4        14.1830   19.4170   11.6090 O.3     1  34H1       -0.2128
      2  C9        13.9330   15.6110   11.7460 C.2     1  34H1       -0.0222
      3  C8        12.9620   14.6010   11.5010 C.3     1  34H1        0.0948
      4  C7        11.5750   14.6890   12.1690 C.2     1  34H1        0.1775
      5  C6        11.3160   15.9390   13.0700 C.2     1  34H1        0.0375
      6  C5        12.3740   16.8710   13.2400 C.2     1  34H1       -0.0015
      7  C4        13.6520   16.7070   12.6200 C.2     1  34H1       -0.0229
      8  O3        10.7520   13.8120   11.9520 O.2     1  34H1       -0.2910
      9  C3        14.7950   17.6910   12.9580 C.3     1  34H1        0.0685
     10  C2        15.2150   18.5120   11.7800 C.3     1  34H1        0.2333
     11  C1        16.5350   19.2400   12.0350 C.2     1  34H1        0.2726
     12  O1        17.3550   18.8140   12.8620 O.2     1  34H1       -0.2706
     13  N         16.7080   20.3510   11.3210 N.am    2  DIL2       -0.1957
     14  CA        18.0870   20.7870   11.1980 C.3     2  DIL2        0.1712
     15  C         18.8040   20.0140   10.0580 C.2     2  DIL2        0.2458
     16  O         18.2080   19.6580    9.0360 O.2     2  DIL2       -0.2730
     17  CB        18.2050   22.3420   11.2020 C.3     2  DIL2        0.0289
     18  CG1       19.3450   22.9340   10.3930 C.3     2  DIL2        0.0022
     19  CG2       16.9390   23.1500   11.3070 C.3     2  DIL2        0.0023
     20  CD1       19.1760   24.3770    9.8970 C.3     2  DIL2        0.0001
     21  N         20.1080   19.7640   10.2930 N.am    3  PRO3       -0.2731
     22  CD        20.8920   20.0840   11.5050 C.3     3  PRO3        0.0783
     23  CG        22.3560   20.2330   10.9820 C.3     3  PRO3        0.0205
     24  CB        22.3950   19.2430    9.7860 C.3     3  PRO3        0.0309
     25  CA        20.9720   19.1490    9.2620 C.3     3  PRO3        0.1535
     26  C14       20.7810   18.9380   12.5420 C.3     3  PRO3        0.0518
     27  C13       21.9030   18.9810   13.5970 C.3     3  PRO3        0.1449
     28  C12       23.2430   18.7970   12.8690 C.3     3  PRO3        0.0321
     29  C11       23.4750   20.0080   11.9760 C.3     3  PRO3        0.0043
     30  O2        21.8500   20.1940   14.3890 O.3     3  PRO3       -0.2437
     31  S         22.6060   20.5130   15.7520 S.3     3  PRO3       -0.0002
     32  OS1       23.8750   20.9440   15.3450 O.2     3  PRO3       -0.3452
     33  OS2       22.9770   19.2080   16.5050 O.2     3  PRO3       -0.3452
     34  OS3       21.7650   21.3400   16.5750 O.3     3  PRO3       -0.2682
     35  C         20.5070   17.6910    9.0040 C.2     3  PRO3        0.2594
     36  O         20.0270   16.9380    9.8730 O.2     3  PRO3       -0.2716
     37  N         20.6860   17.3780    7.7190 N.am    4  AG24       -0.2040
     38  CA        20.1850   16.1050    7.1600 C.3     4  AG24        0.1153
     39  CB        19.1140   16.2860    6.0920 C.3     4  AG24        0.0271
     40  CG        17.8100   16.8870    6.5690 C.3     4  AG24        0.0487
     41  CD        16.9070   17.1060    5.3550 C.3     4  AG24        0.2205
     42  NE        15.5430   17.3860    5.6720 N.pl3   4  AG24       -0.0865
     43  CZ        14.6770   17.5670    4.6780 C.cat   4  AG24        0.5346
     44  NH1       13.3940   17.8360    4.9570 N.pl3   4  AG24        0.1354
     45  NH2       15.0840   17.5040    3.4110 N.pl3   4  AG24        0.1354
@<TRIPOS>BOND
     1    45    43    1
     2    43    44    1
     3    43    42    2
     4    41    42    1
     5    41    40    1
     6    39    40    1
     7    39    38    1
     8    38    37    1
     9    37    35   am
    10    35    25    1
    11    35    36    2
    12    16    15    2
    13    25    24    1
    14    25    21    1
    15    24    23    1
    16    20    18    1
    17    15    21   am
    18    15    14    1
    19    21    22    1
    20    18    17    1
    21    23    22    1
    22    23    29    1
    23    14    17    1
    24    14    13    1
    25    17    19    1
    26    13    11   am
    27     3     2    1
    28     3     4    1
    29    22    26    1
    30     1    10    1
    31     2     7    2
    32    10    11    1
    33    10     9    1
    34     8     4    2
    35    29    28    1
    36    11    12    2
    37     4     5    1
    38    26    27    1
    39     7     9    1
    40     7     6    1
    41    28    27    1
    42     5     6    2
    43    27    30    1
    44    30    31    1
    45    32    31    2
    46    31    33    2
    47    31    34    1
