@<TRIPOS>MOLECULE
1aqb_RTL_A_1.pdb
 21 21 0 0 0
SMALL
GASTEIGER

@<TRIPOS>ATOM
      1  C1         0.5070    4.5850   -7.7090 C.3   185  RTL185      0.0183
      2  C2         0.7800    6.0200   -8.2080 C.3   185  RTL185      0.0044
      3  C3        -0.0860    7.0220   -7.4650 C.3   185  RTL185      0.0047
      4  C4        -0.6820    7.0490   -6.0690 C.3   185  RTL185      0.0217
      5  C5        -0.6030    5.5930   -5.6220 C.2   185  RTL185     -0.0479
      6  C6        -0.1460    4.5000   -6.3200 C.2   185  RTL185     -0.0310
      7  C7        -0.2880    3.1380   -5.8050 C.2   185  RTL185     -0.0095
      8  C8        -1.4670    2.5500   -5.5170 C.2   185  RTL185     -0.0268
      9  C9        -1.5310    1.1750   -5.0430 C.3   185  RTL185      0.0220
     10  C10       -2.7320    0.6970   -4.5920 C.3   185  RTL185      0.0043
     11  C11       -3.0710   -0.6640   -4.1290 C.3   185  RTL185      0.0003
     12  C12       -4.4190   -0.8460   -4.0400 C.3   185  RTL185      0.0001
     13  C13       -5.2570   -2.0000   -3.7340 C.3   185  RTL185      0.0026
     14  C14       -6.4850   -2.0940   -3.1470 C.3   185  RTL185      0.0355
     15  C15       -6.8950   -3.4030   -2.6120 C.3   185  RTL185      0.1821
     16  O1        -7.3160   -3.3270   -1.3150 O.3   185  RTL185     -0.2204
     17  C16        1.9440    4.0310   -7.6900 C.3   185  RTL185      0.0043
     18  C17       -0.2740    3.9230   -8.8470 C.3   185  RTL185      0.0043
     19  C18       -1.5160    5.3710   -4.4160 C.3   185  RTL185      0.0260
     20  C19       -0.2160    0.4850   -4.6850 C.3   185  RTL185      0.0047
     21  C20       -4.2090   -3.0370   -3.3310 C.3   185  RTL185      0.0001
@<TRIPOS>BOND
     1    18     1    1
     2     2     1    1
     3     2     3    1
     4     1    17    1
     5     1     6    1
     6     3     4    1
     7     6     7    1
     8     6     5    2
     9     4     5    1
    10     7     8    2
    11     5    19    1
    12     8     9    1
    13     9    20    1
    14     9    10    1
    15    10    11    1
    16    11    12    1
    17    12    13    1
    18    13    21    1
    19    13    14    1
    20    14    15    1
    21    15    16    1
