@<TRIPOS>MOLECULE
1aqe_HEM_A_1.pdb
 47 54 0 0 0
SMALL
GASTEIGER

@<TRIPOS>ATOM
      1  CHA       15.9530   42.0740   24.4130 C.2   119  HEM119      0.0000
      2  CHB       18.0850   39.7740   28.0710 C.2   119  HEM119      0.0000
      3  CHC       14.6800   36.3960   27.8350 C.2   119  HEM119      0.0000
      4  CHD       13.3590   38.1120   23.5460 C.2   119  HEM119      0.0000
      5  C1A       16.8760   41.7150   25.3770 C.2   119  HEM119      0.0000
      6  C2A       18.0170   42.5180   25.7710 C.2   119  HEM119      0.0000
      7  C3A       18.5870   41.8590   26.8140 C.2   119  HEM119      0.0000
      8  C4A       17.8350   40.6570   27.0380 C.2   119  HEM119      0.0000
      9  CMA       19.8190   42.2970   27.5910 C.3   119  HEM119      0.0000
     10  CAA       18.5530   43.7890   25.1230 C.3   119  HEM119      0.0000
     11  CBA       19.3990   43.5390   23.8920 C.3   119  HEM119      0.0000
     12  CGA       19.8230   44.8310   23.2230 C.2   119  HEM119      0.0000
     13  O1A       19.2460   45.1820   22.1740 O.co2 119  HEM119      0.0000
     14  O2A       20.7220   45.5140   23.7490 O.co2 119  HEM119      0.0000
     15  C1B       17.3570   38.6370   28.3200 C.ar  119  HEM119      0.0000
     16  C2B       17.6320   37.7240   29.4040 C.ar  119  HEM119      0.0000
     17  C3B       16.5940   36.8230   29.3850 C.ar  119  HEM119      0.0000
     18  C4B       15.7630   37.1410   28.2510 C.ar  119  HEM119      0.0000
     19  CMB       18.8610   37.6970   30.3000 C.3   119  HEM119      0.0000
     20  CAB       16.2980   35.6960   30.3580 C.3   119  HEM119      0.0000
     21  CBB       15.8940   36.1970   31.7490 C.3   119  HEM119      0.0000
     22  C1C       14.0130   36.5740   26.6190 C.2   119  HEM119      0.0000
     23  C2C       13.0980   35.6130   26.0580 C.2   119  HEM119      0.0000
     24  C3C       12.7700   36.0670   24.8150 C.2   119  HEM119      0.0000
     25  C4C       13.4960   37.2900   24.6240 C.2   119  HEM119      0.0000
     26  CMC       12.6360   34.3440   26.7570 C.3   119  HEM119      0.0000
     27  CAC       11.8260   35.4020   23.8170 C.3   119  HEM119      0.0000
     28  CBC       10.3520   35.3040   24.2180 C.3   119  HEM119      0.0000
     29  C1D       13.8300   39.4150   23.5050 C.ar  119  HEM119      0.0000
     30  C2D       13.4840   40.3780   22.4920 C.ar  119  HEM119      0.0000
     31  C3D       14.1840   41.5190   22.7420 C.ar  119  HEM119      0.0000
     32  C4D       14.9590   41.2420   23.9290 C.ar  119  HEM119      0.0000
     33  CMD       12.5200   40.1310   21.3480 C.3   119  HEM119      0.0000
     34  CAD       14.2240   42.7570   21.8600 C.3   119  HEM119      0.0000
     35  CBD       15.3510   42.4900   20.8770 C.3   119  HEM119      0.0000
     36  CGD       15.4770   43.5430   19.8050 C.2   119  HEM119      0.0000
     37  O1D       15.7540   43.1570   18.6540 O.co2 119  HEM119      0.0000
     38  O2D       15.3210   44.7460   20.0950 O.co2 119  HEM119      0.0000
     39  NA        16.7900   40.5480   26.1320 N.2   119  HEM119      0.0000
     40  NB        16.2280   38.2570   27.5870 N.ar  119  HEM119      0.0000
     41  NC        14.2470   37.6060   25.7360 N.2   119  HEM119      0.0000
     42  ND        14.7160   39.9570   24.4070 N.ar  119  HEM119      0.0000
     43 FE         15.4520   39.0950   25.9860 Fe    119  HEM119      0.0000
     44  HHB       18.7170   40.1090   28.9010 H     119  HEM119      0.0000
     45  HHC       14.1310   35.7910   28.5560 H     119  HEM119      0.0000
     46  HHD       13.2590   37.6100   22.5880 H     119  HEM119      0.0000
     47  HHA       15.8870   43.1390   24.1810 H     119  HEM119      0.0000
@<TRIPOS>BOND
     1    37    36   ar
     2    36    38   ar
     3    36    35    1
     4    35    34    1
     5    33    30    1
     6    34    31    1
     7    13    12   ar
     8    30    31   ar
     9    30    29   ar
    10    46     4    1
    11    31    32   ar
    12    12    14   ar
    13    12    11    1
    14    29     4    2
    15    29    42   ar
    16     4    25    1
    17    27    28    1
    18    27    24    1
    19    11    10    1
    20    32    42   ar
    21    32     1    2
    22    47     1    1
    23    42    43    1
    24     1     5    1
    25    25    24    1
    26    25    41    2
    27    24    23    2
    28    10     6    1
    29     5     6    1
    30     5    39    2
    31    41    43    1
    32    41    22    1
    33     6     7    2
    34    43    39    1
    35    43    40    1
    36    23    22    1
    37    23    26    1
    38    39     8    1
    39    22     3    2
    40     7     8    1
    41     7     9    1
    42     8     2    2
    43    40    18   ar
    44    40    15   ar
    45     3    18    1
    46     3    45    1
    47     2    15    1
    48     2    44    1
    49    18    17   ar
    50    15    16   ar
    51    17    16   ar
    52    17    20    1
    53    16    19    1
    54    20    21    1
