@<TRIPOS>MOLECULE
1aqf_PEQ_A_1.pdb
 10 9 0 0 0
SMALL
GASTEIGER

@<TRIPOS>ATOM
      1  C1       -13.8940  -19.5370   67.0250 C.2   532  PEQ532      0.3919
      2  O1       -15.0370  -20.0040   66.8150 O.co2 532  PEQ532     -0.2429
      3  O2'      -12.8270  -20.0590   66.6140 O.co2 532  PEQ532     -0.2429
      4  C2       -13.7710  -18.3100   67.9300 C.3   532  PEQ532      0.2285
      5  C3       -12.3030  -18.1740   68.2970 C.3   532  PEQ532      0.0450
      6  O2       -14.5390  -18.4770   69.1250 O.3   532  PEQ532     -0.2611
      7  P        -14.3780  -19.8600   69.9650 P.3   532  PEQ532      0.5330
      8  O1P      -12.8960  -20.0820   70.2190 O.3   532  PEQ532     -0.1145
      9  O2P      -15.1250  -19.5270   71.2450 O.3   532  PEQ532     -0.1145
     10  O3P      -14.9980  -20.9740   69.1710 O.2   532  PEQ532     -0.2224
@<TRIPOS>BOND
     1     3     1   ar
     2     2     1   ar
     3     1     4    1
     4     4     5    1
     5     4     6    1
     6     6     7    1
     7    10     7    2
     8     7     8    1
     9     7     9    1
