@<TRIPOS>MOLECULE
1aqi_SAH_A_1.pdb
 26 28 0 0 0
SMALL
GASTEIGER

@<TRIPOS>ATOM
      1  N         35.0980   37.2760   16.3730 N.3   500  SAH500     -0.1208
      2  CA        35.3680   38.1320   15.2250 C.3   500  SAH500      0.1952
      3  CB        36.5500   39.0800   15.5150 C.3   500  SAH500      0.0422
      4  CG        37.8990   38.4090   15.7750 C.3   500  SAH500      0.0597
      5  SD        39.2560   39.5610   16.1130 S.3   500  SAH500     -0.1375
      6  C         35.6260   37.3000   13.9700 C.2   500  SAH500      0.3819
      7  O         35.2830   36.0990   13.9790 O.co2 500  SAH500     -0.2441
      8  OXT       36.1650   37.8490   12.9900 O.co2 500  SAH500     -0.2441
      9  C5'       40.6340   39.3230   14.9780 C.3   500  SAH500      0.0899
     10  C4'       41.9160   40.0280   15.4140 C.3   500  SAH500      0.1630
     11  O4'       42.7480   39.1230   16.1830 O.3   500  SAH500     -0.3153
     12  C3'       42.7300   40.4690   14.2070 C.3   500  SAH500      0.2168
     13  O3'       43.2890   41.7710   14.4440 O.3   500  SAH500     -0.2175
     14  C2'       43.8370   39.4570   14.1000 C.3   500  SAH500      0.2569
     15  O2'       45.0400   40.0680   13.6340 O.3   500  SAH500     -0.2130
     16  C1'       44.0060   38.9220   15.5010 C.3   500  SAH500      0.3185
     17  N9        44.3670   37.5030   15.4740 N.pl3 500  SAH500     -0.1439
     18  C8        43.8860   36.5110   14.6920 C.3   500  SAH500      0.3377
     19  N7        44.3970   35.3390   14.8500 N.2   500  SAH500     -0.2095
     20  C5        45.3340   35.5600   15.8580 C.2   500  SAH500      0.2526
     21  C6        46.2170   34.7030   16.5250 C.2   500  SAH500      0.4393
     22  N6        46.3490   33.4060   16.2090 N.pl3 500  SAH500      0.2180
     23  N1        46.9830   35.2430   17.5000 N.2   500  SAH500      0.0021
     24  C2        46.8690   36.5460   17.7720 C.3   500  SAH500      0.5254
     25  N3        46.0790   37.4550   17.2110 N.2   500  SAH500     -0.0055
     26  C4        45.3240   36.8820   16.2490 C.2   500  SAH500      0.3518
@<TRIPOS>BOND
     1     8     6   ar
     2    15    14    1
     3     6     7   ar
     4     6     2    1
     5    14    12    1
     6    14    16    1
     7    12    13    1
     8    12    10    1
     9    18    19    1
    10    18    17    1
    11    19    20    2
    12     9    10    1
    13     9     5    1
    14     2     3    1
    15     2     1    1
    16    10    11    1
    17    17    16    1
    18    17    26    1
    19    16    11    1
    20     3     4    1
    21     4     5    1
    22    20    26    1
    23    20    21    1
    24    22    21    1
    25    26    25    2
    26    21    23    2
    27    25    24    1
    28    23    24    1
