@<TRIPOS>MOLECULE
1aqj_SFG_A_1.pdb
 27 29 0 0 0
SMALL
GASTEIGER

@<TRIPOS>ATOM
      1  N         35.0350   36.8700   16.4130 N.3   500  SFG500     -0.1208
      2  CA        35.5490   37.6800   15.3140 C.3   500  SFG500      0.1944
      3  C         35.3180   36.9490   13.9970 C.2   500  SFG500      0.3819
      4  O         35.5060   35.7160   13.9700 O.co2 500  SFG500     -0.2441
      5  OXT       34.9580   37.6160   13.0100 O.co2 500  SFG500     -0.2441
      6  CB        37.0500   37.9380   15.4770 C.3   500  SFG500      0.0321
      7  CG        37.4660   38.7330   16.7040 C.3   500  SFG500      0.0212
      8  CD        38.9810   38.7180   16.9120 C.3   500  SFG500      0.0944
      9  NE        39.3780   39.5750   18.0710 N.3   500  SFG500     -0.1328
     10  C5'       39.6110   39.2090   15.6140 C.3   500  SFG500      0.0514
     11  C4'       41.0290   39.7080   15.7650 C.3   500  SFG500      0.1537
     12  O4'       41.8610   38.7160   16.3940 O.3   500  SFG500     -0.3161
     13  C3'       41.6210   40.0390   14.4110 C.3   500  SFG500      0.2159
     14  O3'       41.9830   41.4180   14.3700 O.3   500  SFG500     -0.2175
     15  C2'       42.8460   39.1770   14.2770 C.3   500  SFG500      0.2569
     16  O2'       43.9530   39.9590   13.8160 O.3   500  SFG500     -0.2130
     17  C1'       43.1030   38.6250   15.6680 C.3   500  SFG500      0.3185
     18  N9        43.5990   37.2270   15.6110 N.pl3 500  SFG500     -0.1439
     19  C8        43.2180   36.2030   14.8020 C.3   500  SFG500      0.3377
     20  N7        43.8450   35.0770   14.9420 N.2   500  SFG500     -0.2095
     21  C5        44.7580   35.3670   15.9710 C.2   500  SFG500      0.2526
     22  C6        45.6230   34.5530   16.7290 C.2   500  SFG500      0.4393
     23  N6        45.8100   33.2600   16.4740 N.pl3 500  SFG500      0.2180
     24  N1        46.2510   35.1200   17.7820 N.2   500  SFG500      0.0021
     25  C2        46.0250   36.4040   18.0600 C.3   500  SFG500      0.5254
     26  N3        45.2360   37.2720   17.4350 N.2   500  SFG500     -0.0055
     27  C4        44.6170   36.6820   16.3840 C.2   500  SFG500      0.3518
@<TRIPOS>BOND
     1     5     3   ar
     2    16    15    1
     3     4     3   ar
     4     3     2    1
     5    15    13    1
     6    15    17    1
     7    14    13    1
     8    13    11    1
     9    19    20    1
    10    19    18    1
    11    20    21    2
    12     2     6    1
    13     2     1    1
    14     6     7    1
    15    18    17    1
    16    18    27    1
    17    10    11    1
    18    10     8    1
    19    17    12    1
    20    11    12    1
    21    21    27    1
    22    21    22    1
    23    27    26    2
    24    23    22    1
    25     7     8    1
    26    22    24    2
    27     8     9    1
    28    26    25    1
    29    24    25    1
