@<TRIPOS>MOLECULE
1aql_TCH_A_1.pdb
 35 38 0 0 0
SMALL
GASTEIGER

@<TRIPOS>ATOM
      1  C1        42.7920   44.1800   26.3980 C.3   601  TCH601      0.0026
      2  C2        42.0480   42.9240   26.7440 C.3   601  TCH601      0.0329
      3  C3        42.9430   41.7820   26.4540 C.3   601  TCH601      0.1520
      4  O3        42.3420   40.5270   26.1210 O.3   601  TCH601     -0.2232
      5  C4        44.0830   41.9110   27.4780 C.3   601  TCH601      0.0330
      6  C5        44.9230   43.1390   27.1090 C.3   601  TCH601      0.0050
      7  C6        46.2030   43.3180   27.8530 C.3   601  TCH601      0.0330
      8  C7        47.1110   44.3050   27.1510 C.3   601  TCH601      0.1519
      9  O7        47.6580   43.8730   25.9190 O.3   601  TCH601     -0.2232
     10  C8        46.4630   45.6960   26.9380 C.3   601  TCH601      0.0306
     11  C9        44.8820   45.5360   26.5750 C.3   601  TCH601      0.0050
     12  C10       44.0840   44.3730   27.1910 C.3   601  TCH601      0.0004
     13  C11       44.0490   46.4110   25.7310 C.3   601  TCH601      0.0330
     14  C12       45.1480   47.0980   24.8550 C.3   601  TCH601      0.1519
     15  O12       45.6080   46.5300   23.5850 O.3   601  TCH601     -0.2232
     16  C13       46.2860   47.8880   25.6010 C.3   601  TCH601      0.0282
     17  C14       47.2630   46.7650   26.0820 C.3   601  TCH601      0.0048
     18  C15       48.7700   47.1510   26.2350 C.3   601  TCH601      0.0002
     19  C16       48.8020   48.3660   25.3210 C.3   601  TCH601      0.0001
     20  C17       47.3830   48.6620   24.7290 C.3   601  TCH601      0.0024
     21  C18       45.8640   48.6700   26.9340 C.3   601  TCH601      0.0025
     22  C19       43.6740   44.7790   28.5850 C.3   601  TCH601      0.0000
     23  O1S       45.5030   57.1530   25.1520 O.3   601  TCH601     -0.3074
     24  C20       47.2600   50.1300   24.0750 C.3   601  TCH601      0.0006
     25  C21       47.6130   50.0530   22.6370 C.3   601  TCH601      0.0000
     26  C22       45.8700   50.8400   24.2390 C.3   601  TCH601      0.0096
     27  C23       45.7840   52.3000   24.8600 C.3   601  TCH601      0.0868
     28  C24       46.5060   53.3540   23.9920 C.2   601  TCH601      0.2414
     29  N24       46.3780   54.6910   24.3750 N.am  601  TCH601     -0.2037
     30  O24       47.6740   53.0570   23.5060 O.2   601  TCH601     -0.2733
     31  C25       47.5770   55.5300   24.6830 C.3   601  TCH601      0.1366
     32  C26       47.7700   56.9610   24.0410 C.3   601  TCH601      0.1286
     33  S26       46.1150   57.6320   23.9520 S.3   601  TCH601     -0.1942
     34  O2S       45.8960   59.1110   23.8130 O.3   601  TCH601     -0.3074
     35  O3S       45.4880   56.9570   22.8120 O.3   601  TCH601     -0.3074
@<TRIPOS>BOND
     1    25    24    1
     2    35    33    1
     3    30    28    2
     4    15    14    1
     5    34    33    1
     6    33    32    1
     7    33    23    1
     8    28    29   am
     9    28    27    1
    10    32    31    1
    11    24    26    1
    12    24    20    1
    13    26    27    1
    14    29    31    1
    15    20    19    1
    16    20    16    1
    17    14    16    1
    18    14    13    1
    19    19    18    1
    20    16    17    1
    21    16    21    1
    22    13    11    1
    23     9     8    1
    24    17    18    1
    25    17    10    1
    26     4     3    1
    27     1     2    1
    28     1    12    1
    29     3     2    1
    30     3     5    1
    31    11    10    1
    32    11    12    1
    33    10     8    1
    34     6    12    1
    35     6     5    1
    36     6     7    1
    37     8     7    1
    38    12    22    1
