@<TRIPOS>MOLECULE
1aqu_EST_A_1.pdb
 20 23 0 0 0
SMALL
GASTEIGER

@<TRIPOS>ATOM
      1  C1        11.2370   21.1780   55.9420 C.ar  304  EST304     -0.0013
      2  C2        11.7100   20.7040   57.1810 C.ar  304  EST304      0.0417
      3  C3        10.7880   20.3160   58.1740 C.ar  304  EST304      0.1954
      4  O3        11.2660   19.8510   59.3850 O.3   304  EST304     -0.2866
      5  C4         9.3830   20.3990   57.9380 C.ar  304  EST304      0.0375
      6  C5         8.8850   20.8810   56.6850 C.ar  304  EST304     -0.0230
      7  C6         7.3650   20.9750   56.4580 C.3   304  EST304      0.0261
      8  C7         6.9230   21.5370   55.0790 C.3   304  EST304      0.0050
      9  C8         7.9090   21.2180   53.9410 C.3   304  EST304      0.0044
     10  C9         9.3290   21.8020   54.2890 C.3   304  EST304      0.0220
     11  C10        9.8340   21.2790   55.6570 C.ar  304  EST304     -0.0263
     12  C11       10.2990   21.4870   53.1220 C.3   304  EST304      0.0044
     13  C12        9.8320   21.9980   51.7520 C.3   304  EST304      0.0028
     14  C13        8.4560   21.4270   51.3910 C.3   304  EST304      0.0282
     15  C14        7.4430   21.8080   52.5450 C.3   304  EST304      0.0028
     16  C15        6.0920   21.4860   51.9080 C.3   304  EST304      0.0027
     17  C16        6.2250   22.0620   50.4510 C.3   304  EST304      0.0329
     18  C17        7.7620   22.1430   50.1870 C.3   304  EST304      0.1519
     19  O17        8.1070   21.7190   48.8420 O.3   304  EST304     -0.2232
     20  C18        8.5350   19.8770   51.0940 C.3   304  EST304      0.0025
@<TRIPOS>BOND
     1    19    18    1
     2    18    17    1
     3    18    14    1
     4    17    16    1
     5    20    14    1
     6    14    13    1
     7    14    15    1
     8    13    12    1
     9    16    15    1
    10    15     9    1
    11    12    10    1
    12     9    10    1
    13     9     8    1
    14    10    11    1
    15     8     7    1
    16    11     1   ar
    17    11     6   ar
    18     1     2   ar
    19     7     6    1
    20     6     5   ar
    21     2     3   ar
    22     5     3   ar
    23     3     4    1
