@<TRIPOS>MOLECULE
1aqu_A3P_A_1.pdb
 27 29 0 0 0
SMALL
GASTEIGER

@<TRIPOS>ATOM
      1  P1        12.9960   29.8420   66.8070 P.3   301  A3P301      0.5327
      2  O1P       12.0250   29.9860   65.7010 O.2   301  A3P301     -0.2224
      3  O2P       14.1220   30.7630   66.6380 O.3   301  A3P301     -0.1145
      4  O3P       12.3360   30.0480   68.1070 O.3   301  A3P301     -0.1145
      5  P2        13.3660   22.7660   63.9250 P.3   301  A3P301      0.5327
      6  O4P       14.7440   22.4280   63.5260 O.3   301  A3P301     -0.1145
      7  O5P       12.7430   21.6510   64.6430 O.3   301  A3P301     -0.1145
      8  O6P       12.5410   23.1500   62.7420 O.2   301  A3P301     -0.2224
      9  O5'       13.4280   24.0010   64.9370 O.3   301  A3P301     -0.2675
     10  C5'       13.7970   25.3420   64.5770 C.3   301  A3P301      0.1859
     11  C4'       14.0420   26.1620   65.8690 C.3   301  A3P301      0.1796
     12  O4'       15.3130   25.7440   66.4680 O.3   301  A3P301     -0.3136
     13  C3'       14.1710   27.6750   65.6610 C.3   301  A3P301      0.1928
     14  O3'       13.5600   28.3450   66.8020 O.3   301  A3P301     -0.2673
     15  C2'       15.6920   27.8460   65.5570 C.3   301  A3P301      0.2543
     16  O2'       16.2060   29.1560   65.7590 O.3   301  A3P301     -0.2131
     17  C1'       16.1620   26.8740   66.6260 C.3   301  A3P301      0.3185
     18  N9        17.5860   26.4990   66.5080 N.pl3 301  A3P301     -0.1439
     19  C8        18.2540   25.9400   65.4350 C.3   301  A3P301      0.3377
     20  N7        19.5330   25.7140   65.6370 N.2   301  A3P301     -0.2095
     21  C5        19.7420   26.1540   66.9380 C.2   301  A3P301      0.2526
     22  C6        20.9010   26.1930   67.7820 C.2   301  A3P301      0.4393
     23  N6        22.1140   25.7620   67.4020 N.pl3 301  A3P301      0.2180
     24  N1        20.7530   26.7080   69.0470 N.2   301  A3P301      0.0021
     25  C2        19.5380   27.1490   69.4630 C.3   301  A3P301      0.5254
     26  N3        18.3720   27.1640   68.7680 N.2   301  A3P301     -0.0055
     27  C4        18.5420   26.6460   67.5030 C.2   301  A3P301      0.3518
@<TRIPOS>BOND
     1     8     5    2
     2     6     5    1
     3     5     7    1
     4     5     9    1
     5    10     9    1
     6    10    11    1
     7    19    20    1
     8    19    18    1
     9    15    13    1
    10    15    16    1
    11    15    17    1
    12    20    21    2
    13    13    11    1
    14    13    14    1
    15     2     1    2
    16    11    12    1
    17    12    17    1
    18    18    17    1
    19    18    27    1
    20     3     1    1
    21    14     1    1
    22     1     4    1
    23    21    27    1
    24    21    22    1
    25    23    22    1
    26    27    26    2
    27    22    24    2
    28    26    25    1
    29    24    25    1
