@<TRIPOS>MOLECULE
1aqv_MES_A_1.pdb
 12 12 0 0 0
SMALL
GASTEIGER

@<TRIPOS>ATOM
      1  O1         7.8660   19.0320   34.4060 O.3   2300  MES2300    -0.3508
      2  C2         7.7320   18.5150   33.0500 C.3   2300  MES2300     0.1595
      3  C3         6.7200   19.3560   32.2330 C.3   2300  MES2300     0.1047
      4  N4         7.0760   20.8170   32.2910 N.3   2300  MES2300    -0.2670
      5  C5         7.2670   21.3280   33.6950 C.3   2300  MES2300     0.1047
      6  C6         8.2660   20.4330   34.4690 C.3   2300  MES2300     0.1595
      7  C7         6.2520   21.6920   31.4070 C.3   2300  MES2300     0.0940
      8  C8         6.8010   21.6530   29.9760 C.3   2300  MES2300     0.1225
      9  S          5.8620   22.7370   28.9120 S.3   2300  MES2300    -0.1946
     10  O1S        4.3790   22.8800   29.4450 O.3   2300  MES2300    -0.3074
     11  O2S        5.8600   22.2030   27.4190 O.3   2300  MES2300    -0.3074
     12  O3S        6.5310   24.2710   28.8910 O.3   2300  MES2300    -0.3074
@<TRIPOS>BOND
     1    11     9    1
     2    12     9    1
     3     9    10    1
     4     9     8    1
     5     8     7    1
     6     7     4    1
     7     3     4    1
     8     3     2    1
     9     4     5    1
    10     2     1    1
    11     5     6    1
    12     1     6    1
