@<TRIPOS>MOLECULE
1aqv_0HG_A_1.pdb
 33 33 0 0 0
SMALL
GASTEIGER

@<TRIPOS>ATOM
      1  N         17.7080    0.8830   24.0960 N.4   2201  0HG2201     0.3888
      2  CA        17.4320    1.6350   25.3590 C.3   2201  0HG2201     0.0408
      3  C         16.4650    2.7760   25.0280 C.2   2201  0HG2201     0.3448
      4  O         15.6970    3.2150   25.9200 O.co2 2201  0HG2201    -0.2480
      5  CB        18.7300    2.2050   25.9240 C.3   2201  0HG2201    -0.0013
      6  CG        18.5570    2.8710   27.2730 C.3   2201  0HG2201     0.0835
      7  CD        19.8720    3.2670   27.8770 C.2   2201  0HG2201     0.2227
      8  OE1       20.9240    3.1970   27.2150 O.2   2201  0HG2201    -0.2751
      9  OXT       16.4490    3.1550   23.8330 O.co2 2201  0HG2201    -0.2480
     10  CA1       21.0250    4.1120   29.8630 C.3   2201  0HG2201     0.1594
     11  C1        20.9900    3.5660   31.2900 C.2   2201  0HG2201     0.2416
     12  O1        19.9220    3.4010   31.8690 O.2   2201  0HG2201    -0.2733
     13  N1        19.8260    3.6830   29.1400 N.am  2201  0HG2201    -0.2977
     14  CB1       20.9740    5.6770   30.0980 C.3   2201  0HG2201     0.0868
     15  SG        21.0190    6.6640   28.5710 S.3   2201  0HG2201    -0.1332
     16 BR         24.0710    9.9990   33.8260 Br    2201  0HG2201    -0.0490
     17  C11       23.0680    7.7880   29.7630 C.ar  2201  0HG2201    -0.0113
     18  C2        24.0990    7.3110   30.5800 C.ar  2201  0HG2201    -0.0029
     19  C3        24.4130    7.9560   31.7890 C.ar  2201  0HG2201     0.0064
     20  C4        23.7000    9.0910   32.2020 C.ar  2201  0HG2201     0.0345
     21  C5        22.6750    9.5630   31.3800 C.ar  2201  0HG2201     0.0064
     22  C6        22.3590    8.9230   30.1780 C.ar  2201  0HG2201    -0.0029
     23  C7        22.7280    7.1530   28.5510 C.3   2201  0HG2201     0.0838
     24  N2        22.1580    3.5050   31.9070 N.am  2201  0HG2201    -0.2935
     25  CA2       22.2300    3.0140   33.2640 C.3   2201  0HG2201     0.2051
     26  C8        22.6110    1.5550   33.3630 C.2   2201  0HG2201     0.3845
     27  O2        22.7820    0.8850   32.3140 O.co2 2201  0HG2201    -0.2437
     28 OXT1       22.7660    1.0920   34.5040 O.co2 2201  0HG2201    -0.2437
     29  H         18.4580    0.1880   24.2040 H     2201  0HG2201    -0.0885
     30  H2        17.9730    1.6060   23.3890 H     2201  0HG2201    -0.0885
     31  H3        16.7990    0.4880   23.7870 H     2201  0HG2201    -0.0885
     32  H1        18.9760    3.6870   29.6150 H     2201  0HG2201     0.1498
     33  H4        23.0020    3.7360   31.4760 H     2201  0HG2201     0.1500
@<TRIPOS>BOND
     1    30     1    1
     2    31     1    1
     3     9     3   ar
     4     1    29    1
     5     1     2    1
     6     3     2    1
     7     3     4   ar
     8     2     5    1
     9     5     6    1
    10     8     7    2
    11     6     7    1
    12     7    13   am
    13    23    15    1
    14    23    17    1
    15    15    14    1
    16    13    32    1
    17    13    10    1
    18    17    22   ar
    19    17    18   ar
    20    10    14    1
    21    10    11    1
    22    22    21   ar
    23    18    19   ar
    24    11    12    2
    25    11    24   am
    26    21    20   ar
    27    33    24    1
    28    19    20   ar
    29    24    25    1
    30    20    16    1
    31    27    26   ar
    32    25    26    1
    33    26    28   ar
