@<TRIPOS>MOLECULE
1aqw_MES_A_1.pdb
 12 12 0 0 0
SMALL
GASTEIGER

@<TRIPOS>ATOM
      1  O1        22.5980   -4.4470   -3.5370 O.3   2500  MES2500    -0.3508
      2  C2        21.7350   -4.7610   -2.4200 C.3   2500  MES2500     0.1595
      3  C3        22.2570   -5.9480   -1.6000 C.3   2500  MES2500     0.1047
      4  N4        23.7260   -5.8390   -1.2670 N.3   2500  MES2500    -0.2670
      5  C5        24.6110   -5.3830   -2.4200 C.3   2500  MES2500     0.1047
      6  C6        23.9660   -4.1390   -3.1110 C.3   2500  MES2500     0.1595
      7  C7        24.1430   -6.9880   -0.4670 C.3   2500  MES2500     0.0940
      8  C8        25.3700   -6.6780    0.3620 C.3   2500  MES2500     0.1225
      9  S         25.7340   -8.0810    1.3780 S.3   2500  MES2500    -0.1946
     10  O1S       27.1330   -8.6940    1.1080 O.3   2500  MES2500    -0.3074
     11  O2S       24.5650   -9.1800    1.2950 O.3   2500  MES2500    -0.3074
     12  O3S       25.7990   -7.5340    2.9240 O.3   2500  MES2500    -0.3074
@<TRIPOS>BOND
     1     1     6    1
     2     1     2    1
     3     6     5    1
     4     2     3    1
     5     5     4    1
     6     3     4    1
     7     4     7    1
     8     7     8    1
     9     8     9    1
    10    10     9    1
    11    11     9    1
    12     9    12    1
