@<TRIPOS>MOLECULE
1aqw_GSH_A_1.pdb
 20 19 0 0 0
SMALL
GASTEIGER

@<TRIPOS>ATOM
      1  N1         4.5340    3.6430    8.4100 N.3   2201  GSH2201    -0.1208
      2  CA1        5.3490    3.6730    7.1520 C.3   2201  GSH2201     0.1948
      3  C1         6.5210    2.7000    7.3180 C.2   2201  GSH2201     0.3819
      4  O11        7.0500    2.1900    6.3100 O.co2 2201  GSH2201    -0.2441
      5  O12        6.8780    2.4470    8.4830 O.co2 2201  GSH2201    -0.2441
      6  CB1        5.8980    5.0790    6.8970 C.3   2201  GSH2201     0.0402
      7  CG1        6.6310    5.2030    5.5800 C.3   2201  GSH2201     0.0889
      8  CD1        7.1310    6.6010    5.3080 C.2   2201  GSH2201     0.2418
      9  OE1        7.0780    7.4970    6.1650 O.2   2201  GSH2201    -0.2733
     10  N2         7.5940    6.7880    4.0790 N.am  2201  GSH2201    -0.1968
     11  CA2        8.1440    8.0530    3.6200 C.3   2201  GSH2201     0.1843
     12  C2         7.6480    8.2810    2.1930 C.2   2201  GSH2201     0.2627
     13  O2         7.4130    7.3210    1.4520 O.2   2201  GSH2201    -0.2714
     14  CB2        9.6900    7.9900    3.6220 C.3   2201  GSH2201     0.0997
     15  SG2       10.5110    7.6120    5.2340 S.3   2201  GSH2201    -0.0797
     16  N3         7.4890    9.5430    1.8160 N.am  2201  GSH2201    -0.1917
     17  CA3        7.0450    9.8520    0.4720 C.3   2201  GSH2201     0.2285
     18  C3         5.6550   10.4440    0.4170 C.2   2201  GSH2201     0.3865
     19  O31        5.3140   11.0210   -0.6340 O.co2 2201  GSH2201    -0.2437
     20  O32        4.9080   10.3380    1.4210 O.co2 2201  GSH2201    -0.2437
@<TRIPOS>BOND
     1    19    18   ar
     2    18    17    1
     3    18    20   ar
     4    17    16    1
     5    13    12    2
     6    16    12   am
     7    12    11    1
     8    11    14    1
     9    11    10    1
    10    14    15    1
    11    10     8   am
    12     8     7    1
    13     8     9    2
    14     7     6    1
    15     4     3   ar
    16     6     2    1
    17     2     3    1
    18     2     1    1
    19     3     5   ar
