@<TRIPOS>MOLECULE
1aqx_MES_A_1.pdb
 12 12 0 0 0
SMALL
GASTEIGER

@<TRIPOS>ATOM
      1  O1        22.0220   -5.2030   -2.8090 O.3   2500  MES2500    -0.3508
      2  C2        22.1050   -4.0050   -1.9750 C.3   2500  MES2500     0.1595
      3  C3        22.3610   -4.3790   -0.4820 C.3   2500  MES2500     0.1047
      4  N4        23.5310   -5.3500   -0.3360 N.3   2500  MES2500    -0.2670
      5  C5        23.5200   -6.5180   -1.3260 C.3   2500  MES2500     0.1047
      6  C6        23.2220   -6.0440   -2.7790 C.3   2500  MES2500     0.1595
      7  C7        23.8170   -5.7260    1.0900 C.3   2500  MES2500     0.0940
      8  C8        25.1740   -6.4370    1.2210 C.3   2500  MES2500     0.1225
      9  S         25.5340   -6.8820    2.9110 S.3   2500  MES2500    -0.1946
     10  O1S       25.7000   -8.4520    3.0400 O.3   2500  MES2500    -0.3074
     11  O2S       24.4230   -6.3660    3.9210 O.3   2500  MES2500    -0.3074
     12  O3S       26.9730   -6.1840    3.4030 O.3   2500  MES2500    -0.3074
@<TRIPOS>BOND
     1     1     6    1
     2     1     2    1
     3     6     5    1
     4     2     3    1
     5     5     4    1
     6     3     4    1
     7     4     7    1
     8     7     8    1
     9     8     9    1
    10     9    10    1
    11     9    12    1
    12     9    11    1
