@<TRIPOS>MOLECULE
1aqx_GTD_A_1.pdb
 35 35 0 0 0
SMALL
GASTEIGER

@<TRIPOS>ATOM
      1  N1         4.2230    3.3790    8.7450 N.3   2101  GTD2101    -0.1208
      2  CA1        4.8850    3.2680    7.4160 C.3   2101  GTD2101     0.1948
      3  C1         6.0810    2.3220    7.5330 C.2   2101  GTD2101     0.3819
      4  O11        6.5590    2.1270    8.6740 O.co2 2101  GTD2101    -0.2441
      5  O12        6.5170    1.7850    6.4930 O.co2 2101  GTD2101    -0.2441
      6  CB1        5.3370    4.6620    6.9540 C.3   2101  GTD2101     0.0402
      7  CG1        6.2070    4.7140    5.6950 C.3   2101  GTD2101     0.0889
      8  CD1        6.5610    6.1490    5.3250 C.2   2101  GTD2101     0.2418
      9  OE1        6.2520    7.0750    6.0790 O.2   2101  GTD2101    -0.2733
     10  N2         7.2110    6.3470    4.1780 N.am  2101  GTD2101    -0.1968
     11  CA2        7.5800    7.6950    3.7510 C.3   2101  GTD2101     0.1838
     12  C2         7.0680    8.0130    2.3420 C.2   2101  GTD2101     0.2626
     13  O2         6.7430    7.1160    1.5630 O.2   2101  GTD2101    -0.2714
     14  CB2        9.1390    7.8530    3.8170 C.3   2101  GTD2101     0.0933
     15  SG2        9.7920    8.3890    5.4540 S.3   2101  GTD2101    -0.1081
     16  N3         7.0460    9.2980    2.0040 N.am  2101  GTD2101    -0.1917
     17  CA3        6.5650    9.7200    0.7020 C.3   2101  GTD2101     0.2285
     18  C3         5.3440   10.6160    0.8290 C.2   2101  GTD2101     0.3865
     19  O31        4.9010   10.8550    1.9730 O.co2 2101  GTD2101    -0.2437
     20  O32        4.8230   11.0850   -0.2050 O.co2 2101  GTD2101    -0.2437
     21  C1'       10.6590    9.9820    5.4610 C.ar  2101  GTD2101     0.0703
     22  C2'        9.7580   10.9930    4.7430 C.ar  2101  GTD2101     0.1517
     23  N2'        8.5060   11.3710    5.3750 N.pl3 2101  GTD2101     0.0583
     24  O21        8.1790   10.8700    6.4590 O.2   2101  GTD2101    -0.1261
     25  O22        7.7510   12.1920    4.8390 O.2   2101  GTD2101    -0.1261
     26  C3'       10.1100   11.5750    3.5100 C.ar  2101  GTD2101     0.0487
     27  C4'       11.3270   11.2560    2.8820 C.ar  2101  GTD2101     0.1462
     28  N4'       11.6710   11.8490    1.6010 N.pl3 2101  GTD2101     0.0578
     29  O41       12.7460   11.5580    1.0580 O.2   2101  GTD2101    -0.1261
     30  O42       10.8980   12.6360    1.0350 O.2   2101  GTD2101    -0.1261
     31  C5'       12.2370   10.3690    3.4650 C.ar  2101  GTD2101     0.0487
     32  C6'       11.9610    9.7410    4.6880 C.ar  2101  GTD2101     0.1517
     33  N6'       12.9580    8.8500    5.2570 N.pl3 2101  GTD2101     0.0583
     34  O61       12.7320    8.2880    6.3420 O.2   2101  GTD2101    -0.1261
     35  O62       14.0280    8.6430    4.6570 O.2   2101  GTD2101    -0.1261
@<TRIPOS>BOND
     1    20    18   ar
     2    17    18    1
     3    17    16    1
     4    18    19   ar
     5    30    28    2
     6    29    28    2
     7    13    12    2
     8    28    27    1
     9    16    12   am
    10    12    11    1
    11    27    31   ar
    12    27    26   ar
    13    31    32   ar
    14    26    22   ar
    15    11    14    1
    16    11    10    1
    17    14    15    1
    18    10     8   am
    19    35    33    2
    20    32    33    1
    21    32    21   ar
    22    22    23    1
    23    22    21   ar
    24    25    23    2
    25    33    34    2
    26     8     7    1
    27     8     9    2
    28    23    24    2
    29    15    21    1
    30     7     6    1
    31     5     3   ar
    32     6     2    1
    33     2     3    1
    34     2     1    1
    35     3     4   ar
