@<TRIPOS>MOLECULE
1aqy_A3P_A_1.pdb
 27 29 0 0 0
SMALL
GASTEIGER

@<TRIPOS>ATOM
      1  P1        13.1410   30.2120   67.2950 P.3   301  A3P301      0.5327
      2  O1P       12.1640   30.3600   66.2040 O.2   301  A3P301     -0.2224
      3  O2P       14.2830   31.1160   67.0850 O.3   301  A3P301     -0.1145
      4  O3P       12.5040   30.4550   68.6070 O.3   301  A3P301     -0.1145
      5  P2        13.4950   23.0850   64.3840 P.3   301  A3P301      0.5327
      6  O4P       14.8770   22.7910   63.9610 O.3   301  A3P301     -0.1145
      7  O5P       12.8870   21.9440   65.0760 O.3   301  A3P301     -0.1145
      8  O6P       12.6540   23.4510   63.2210 O.2   301  A3P301     -0.2224
      9  O5'       13.5340   24.3220   65.4020 O.3   301  A3P301     -0.2675
     10  C5'       13.9530   25.6570   65.0540 C.3   301  A3P301      0.1859
     11  C4'       14.1540   26.4720   66.3580 C.3   301  A3P301      0.1796
     12  O4'       15.4140   26.0310   66.9840 O.3   301  A3P301     -0.3136
     13  C3'       14.3010   27.9870   66.1580 C.3   301  A3P301      0.1928
     14  O3'       13.6830   28.6870   67.2940 O.3   301  A3P301     -0.2673
     15  C2'       15.8280   28.1180   66.0540 C.3   301  A3P301      0.2543
     16  O2'       16.3680   29.4210   66.2000 O.3   301  A3P301     -0.2131
     17  C1'       16.2740   27.1530   67.1510 C.3   301  A3P301      0.3185
     18  N9        17.7000   26.7670   67.0620 N.pl3 301  A3P301     -0.1439
     19  C8        18.3820   26.1590   66.0190 C.3   301  A3P301      0.3377
     20  N7        19.6660   25.9480   66.2440 N.2   301  A3P301     -0.2095
     21  C5        19.8570   26.4470   67.5250 C.2   301  A3P301      0.2526
     22  C6        21.0130   26.5310   68.3690 C.2   301  A3P301      0.4393
     23  N6        22.2230   26.0950   68.0090 N.pl3 301  A3P301      0.2180
     24  N1        20.8610   27.0930   69.6080 N.2   301  A3P301      0.0021
     25  C2        19.6430   27.5460   70.0000 C.3   301  A3P301      0.5254
     26  N3        18.4780   27.5260   69.2980 N.2   301  A3P301     -0.0055
     27  C4        18.6530   26.9600   68.0590 C.2   301  A3P301      0.3518
@<TRIPOS>BOND
     1     8     5    2
     2     6     5    1
     3     5     7    1
     4     5     9    1
     5    10     9    1
     6    10    11    1
     7    19    20    1
     8    19    18    1
     9    15    13    1
    10    15    16    1
    11    15    17    1
    12    13    11    1
    13    13    14    1
    14     2     1    2
    15    20    21    2
    16    11    12    1
    17    12    17    1
    18    18    17    1
    19    18    27    1
    20     3     1    1
    21    14     1    1
    22     1     4    1
    23    21    27    1
    24    21    22    1
    25    23    22    1
    26    27    26    2
    27    22    24    2
    28    26    25    1
    29    24    25    1
