@<TRIPOS>MOLECULE
1ar6_III_0_1.pdb
 29 28 0 0 0
SMALL
GASTEIGER

@<TRIPOS>ATOM
      1  N          8.4520   50.5720   85.0630 N.3     6  GLY6       -0.1210
      2  CA         7.0380   50.3400   85.3810 C.3     6  GLY6        0.1956
      3  C          6.7510   49.5980   86.6990 C.2     6  GLY6        0.2613
      4  O          6.3020   50.1580   87.7160 O.2     6  GLY6       -0.2717
      5  N          7.0480   48.3010   86.6630 N.am    7  SER7       -0.1938
      6  CA         6.8340   47.3670   87.7670 C.3     7  SER7        0.2055
      7  C          7.7750   46.1820   87.8810 C.2     7  SER7        0.2644
      8  O          7.9840   45.4520   86.9130 O.2     7  SER7       -0.2714
      9  CB         5.4540   46.7080   87.7710 C.3     7  SER7        0.2130
     10  OG         4.4840   47.4180   88.5040 O.3     7  SER7       -0.2179
     11  N          8.3560   45.9400   89.0390 N.am    8  SER8       -0.1935
     12  CA         9.0710   44.6870   89.2890 C.3     8  SER8        0.2055
     13  C          8.2420   43.7820   90.1960 C.2     8  SER8        0.2644
     14  O          7.4990   44.2360   91.0430 O.2     8  SER8       -0.2714
     15  CB        10.4180   44.9370   89.9250 C.3     8  SER8        0.2130
     16  OG        11.2220   45.4370   88.8680 O.3     8  SER8       -0.2179
     17  N          8.2450   42.4760   89.9690 N.am    9  SER9       -0.1935
     18  CA         7.4460   41.5350   90.7510 C.3     9  SER9        0.2055
     19  C          8.2510   40.3930   91.3760 C.2     9  SER9        0.2643
     20  O          8.6350   39.4410   90.6980 O.2     9  SER9       -0.2714
     21  CB         6.3330   40.9440   89.8900 C.3     9  SER9        0.2130
     22  OG         5.2180   40.4530   90.6310 O.3     9  SER9       -0.2179
     23  N          8.6090   40.4990   92.6430 N.am   10  THR10      -0.1950
     24  CA         9.3210   39.4220   93.3550 C.3    10  THR10       0.1897
     25  C          8.4470   38.4600   94.1880 C.2    10  THR10       0.2313
     26  O          8.3670   38.4890   95.4370 O.2    10  THR10      -0.2863
     27  CB        10.4330   40.0140   94.3020 C.3    10  THR10       0.1794
     28  OG1        9.9790   41.2520   94.8250 O.3    10  THR10      -0.2208
     29  CG2       11.7200   40.2520   93.5400 C.3    10  THR10       0.0378
@<TRIPOS>BOND
     1     1     2    1
     2     2     3    1
     3     5     3   am
     4     5     6    1
     5     3     4    2
     6     8     7    2
     7     6     9    1
     8     6     7    1
     9     9    10    1
    10     7    11   am
    11    16    15    1
    12    11    12    1
    13    12    15    1
    14    12    13    1
    15    21    22    1
    16    21    18    1
    17    17    13   am
    18    17    18    1
    19    13    14    2
    20    20    19    2
    21    18    19    1
    22    19    23   am
    23    23    24    1
    24    24    25    1
    25    24    27    1
    26    29    27    1
    27    25    26    2
    28    27    28    1
