@<TRIPOS>MOLECULE
1ar7_III_0_1.pdb
 29 28 0 0 0
SMALL
GASTEIGER

@<TRIPOS>ATOM
      1  N          8.6340   50.2840   85.2850 N.3     6  GLY6       -0.1210
      2  CA         7.1660   50.1690   85.4450 C.3     6  GLY6        0.1956
      3  C          6.7130   49.4700   86.7620 C.2     6  GLY6        0.2613
      4  O          6.2650   50.0710   87.7470 O.2     6  GLY6       -0.2717
      5  N          6.9330   48.1590   86.7040 N.am    7  SER7       -0.1938
      6  CA         6.6920   47.2240   87.7830 C.3     7  SER7        0.2055
      7  C          7.7130   46.0850   87.7750 C.2     7  SER7        0.2644
      8  O          8.1780   45.6360   86.7370 O.2     7  SER7       -0.2714
      9  CB         5.3240   46.5250   87.7530 C.3     7  SER7        0.2130
     10  OG         4.2360   47.4310   87.7540 O.3     7  SER7       -0.2179
     11  N          8.0760   45.5900   88.9530 N.am    8  SER8       -0.1935
     12  CA         8.9220   44.4060   89.1140 C.3     8  SER8        0.2055
     13  C          8.1860   43.4630   90.0120 C.2     8  SER8        0.2644
     14  O          7.4930   43.8920   90.9010 O.2     8  SER8       -0.2714
     15  CB        10.2500   44.6650   89.7920 C.3     8  SER8        0.2130
     16  OG        11.1230   45.3160   88.8940 O.3     8  SER8       -0.2179
     17  N          8.2020   42.1630   89.7730 N.am    9  SER9       -0.1935
     18  CA         7.4940   41.1980   90.6010 C.3     9  SER9        0.2055
     19  C          8.4000   40.1380   91.2410 C.2     9  SER9        0.2643
     20  O          9.1790   39.4610   90.5810 O.2     9  SER9       -0.2714
     21  CB         6.4120   40.4990   89.8080 C.3     9  SER9        0.2130
     22  OG         5.3570   40.0500   90.6450 O.3     9  SER9       -0.2179
     23  N          8.3180   40.0620   92.5500 N.am   10  THR10      -0.1950
     24  CA         9.0400   39.1560   93.4480 C.3    10  THR10       0.1897
     25  C          8.0780   38.2500   94.2650 C.2    10  THR10       0.2313
     26  O          8.0080   38.2500   95.5190 O.2    10  THR10      -0.2863
     27  CB         9.9470   39.9630   94.4670 C.3    10  THR10       0.1794
     28  OG1        9.7470   41.3570   94.2860 O.3    10  THR10      -0.2208
     29  CG2       11.4000   39.6830   94.2230 C.3    10  THR10       0.0378
@<TRIPOS>BOND
     1     1     2    1
     2     2     3    1
     3     5     3   am
     4     5     6    1
     5     8     7    2
     6     3     4    2
     7     9    10    1
     8     9     6    1
     9     7     6    1
    10     7    11   am
    11    16    15    1
    12    11    12    1
    13    12    15    1
    14    12    13    1
    15    17    13   am
    16    17    18    1
    17    21    18    1
    18    21    22    1
    19    13    14    2
    20    20    19    2
    21    18    19    1
    22    19    23   am
    23    23    24    1
    24    24    25    1
    25    24    27    1
    26    29    27    1
    27    25    26    2
    28    28    27    1
