@<TRIPOS>MOLECULE
1ar8_III_0_1.pdb
 43 41 0 0 0
SMALL
GASTEIGER

@<TRIPOS>ATOM
      1  N          4.9220   51.3230   82.3140 N.3     3  ALA3       -0.1231
      2  CA         4.8670   50.7380   83.6600 C.3     3  ALA3        0.1694
      3  C          5.4260   49.3300   83.7620 C.2     3  ALA3        0.2592
      4  O          6.3290   49.1710   84.5520 O.2     3  ALA3       -0.2718
      5  CB         3.4430   50.6590   84.1900 C.3     3  ALA3        0.0304
      6  N          4.9570   48.3140   83.0170 N.am    4  ALA4       -0.1966
      7  CA         5.4770   46.9320   83.0290 C.3     4  ALA4        0.1728
      8  C          6.8420   46.6830   83.7050 C.2     4  ALA4        0.2616
      9  O          6.9080   46.1530   84.8170 O.2     4  ALA4       -0.2715
     10  CB         5.5610   46.4500   81.5800 C.3     4  ALA4        0.0334
     11  N          7.9160   47.1990   83.1050 N.am    5  ALA5       -0.1963
     12  CA         9.2390   47.1660   83.7360 C.3     5  ALA5        0.1728
     13  C          9.3870   48.0370   84.9960 C.2     5  ALA5        0.2612
     14  O         10.0250   47.6260   85.9650 O.2     5  ALA5       -0.2715
     15  CB        10.2900   47.6380   82.7470 C.3     5  ALA5        0.0334
     16  N          8.8150   49.2510   85.0010 N.am    6  ALA6       -0.2040
     17  CA         8.8600   50.1810   86.1330 C.3     6  ALA6        0.1153
     18  CB         7.9290   51.3650   85.8650 C.3     6  ALA6        0.0252
     19  N          7.3560   48.7310   87.4680 N.3     7  SER7       -0.1202
     20  CA         7.0400   47.8700   88.5930 C.3     7  SER7        0.2020
     21  C          7.7500   46.5260   88.6840 C.2     7  SER7        0.2619
     22  O          7.2500   45.5210   88.1790 O.2     7  SER7       -0.2717
     23  CB         5.5520   47.5200   88.6800 C.3     7  SER7        0.2103
     24  OG         4.6610   48.6220   88.7680 O.3     7  SER7       -0.2182
     25  N          8.9070   46.4240   89.3290 N.am    8  SER8       -0.1937
     26  CA         9.4570   45.0900   89.5690 C.3     8  SER8        0.2055
     27  C          8.7300   44.4180   90.7570 C.2     8  SER8        0.2644
     28  O          8.2480   45.0240   91.7060 O.2     8  SER8       -0.2714
     29  CB        10.9600   45.1240   89.8570 C.3     8  SER8        0.2130
     30  OG        11.3610   45.4310   91.1840 O.3     8  SER8       -0.2179
     31  N          8.5340   43.1180   90.6270 N.am    9  SER9       -0.1935
     32  CA         7.8410   42.2720   91.5790 C.3     9  SER9        0.2055
     33  C          8.6440   41.0770   92.1110 C.2     9  SER9        0.2643
     34  O          9.3540   40.4070   91.3580 O.2     9  SER9       -0.2714
     35  CB         6.5710   41.7310   90.9450 C.3     9  SER9        0.2130
     36  OG         6.1650   40.4310   91.3620 O.3     9  SER9       -0.2179
     37  N          8.5410   40.7770   93.3980 N.am   10  THR10      -0.1950
     38  CA         9.1900   39.6560   94.0700 C.3    10  THR10       0.1897
     39  C          8.3150   38.7410   94.9270 C.2    10  THR10       0.2313
     40  O          8.3360   38.7100   96.1740 O.2    10  THR10      -0.2863
     41  CB        10.3460   40.1460   94.9950 C.3    10  THR10       0.1794
     42  OG1       10.0460   41.4260   95.5380 O.3    10  THR10      -0.2208
     43  CG2       11.6410   40.1470   94.2070 C.3    10  THR10       0.0378
@<TRIPOS>BOND
     1    10     7    1
     2     1     2    1
     3    15    12    1
     4     6     7    1
     5     6     3   am
     6     7     8    1
     7    11     8   am
     8    11    12    1
     9     2     3    1
    10     2     5    1
    11     8     9    2
    12    12    13    1
    13     3     4    2
    14    13    16   am
    15    13    14    2
    16    16    17    1
    17    18    17    1
    18    19    20    1
    19    22    21    2
    20    20    23    1
    21    20    21    1
    22    23    24    1
    23    21    25   am
    24    25    26    1
    25    26    29    1
    26    26    27    1
    27    29    30    1
    28    31    27   am
    29    31    32    1
    30    27    28    2
    31    35    36    1
    32    35    32    1
    33    34    33    2
    34    32    33    1
    35    33    37   am
    36    37    38    1
    37    38    39    1
    38    38    41    1
    39    43    41    1
    40    39    40    2
    41    41    42    1
