@<TRIPOS>MOLECULE
1ar9_III_0_1.pdb
 29 28 0 0 0
SMALL
GASTEIGER

@<TRIPOS>ATOM
      1  N          8.6790   50.4560   85.1350 N.3     6  GLY6       -0.1210
      2  CA         7.2450   50.1960   85.3740 C.3     6  GLY6        0.1956
      3  C          6.9330   49.5350   86.7410 C.2     6  GLY6        0.2613
      4  O          6.6640   50.1870   87.7440 O.2     6  GLY6       -0.2717
      5  N          7.0210   48.2090   86.7170 N.am    7  SER7       -0.1938
      6  CA         6.8220   47.3600   87.8720 C.3     7  SER7        0.2055
      7  C          7.7090   46.1360   87.8840 C.2     7  SER7        0.2644
      8  O          7.7340   45.3560   86.9340 O.2     7  SER7       -0.2714
      9  CB         5.4190   46.7510   88.0160 C.3     7  SER7        0.2130
     10  OG         4.3950   47.7160   87.9830 O.3     7  SER7       -0.2179
     11  N          8.4800   45.9510   88.9350 N.am    8  SER8       -0.1935
     12  CA         9.1810   44.6870   89.1750 C.3     8  SER8        0.2055
     13  C          8.3150   43.8010   90.0590 C.2     8  SER8        0.2644
     14  O          7.4790   44.2600   90.8000 O.2     8  SER8       -0.2714
     15  CB        10.4980   44.8710   89.8820 C.3     8  SER8        0.2130
     16  OG        11.3660   45.4530   88.9380 O.3     8  SER8       -0.2179
     17  N          8.4790   42.4960   89.9750 N.am    9  SER9       -0.1935
     18  CA         7.6660   41.5660   90.7400 C.3     9  SER9        0.2055
     19  C          8.4520   40.4110   91.3360 C.2     9  SER9        0.2643
     20  O          9.0670   39.6200   90.6210 O.2     9  SER9       -0.2714
     21  CB         6.5470   40.9810   89.8670 C.3     9  SER9        0.2130
     22  OG         5.5640   40.2410   90.5820 O.3     9  SER9       -0.2179
     23  N          8.5060   40.3620   92.6470 N.am   10  THR10      -0.1950
     24  CA         9.1330   39.2910   93.4320 C.3    10  THR10       0.1897
     25  C          8.1390   38.4550   94.2810 C.2    10  THR10       0.2313
     26  O          8.1450   38.3940   95.5310 O.2    10  THR10      -0.2863
     27  CB        10.2420   39.8930   94.3780 C.3    10  THR10       0.1794
     28  OG1        9.9390   41.2550   94.6270 O.3    10  THR10      -0.2208
     29  CG2       11.6070   39.8050   93.7260 C.3    10  THR10       0.0378
@<TRIPOS>BOND
     1     1     2    1
     2     2     3    1
     3     5     3   am
     4     5     6    1
     5     3     4    2
     6     8     7    2
     7     6     7    1
     8     6     9    1
     9     7    11   am
    10    10     9    1
    11    11    12    1
    12    16    15    1
    13    12    15    1
    14    12    13    1
    15    21    22    1
    16    21    18    1
    17    17    13   am
    18    17    18    1
    19    13    14    2
    20    20    19    2
    21    18    19    1
    22    19    23   am
    23    23    24    1
    24    24    25    1
    25    24    27    1
    26    29    27    1
    27    25    26    2
    28    27    28    1
