@<TRIPOS>MOLECULE
1arc_TCK_A_1.pdb
 20 20 0 0 0
SMALL
GASTEIGER

@<TRIPOS>ATOM
      1  S         -2.3460   -5.4390    9.6940 S.O2  270  TCK270      0.0772
      2  O1S       -2.4640   -6.5140   10.6340 O.2   270  TCK270     -0.1516
      3  O2S       -1.4200   -5.3820    8.6140 O.2   270  TCK270     -0.1516
      4  C1        -2.2840   -4.0020   10.6630 C.ar  270  TCK270      0.1235
      5  C2        -1.7570   -2.8300   10.1760 C.ar  270  TCK270      0.0196
      6  C3        -1.8120   -1.6870   10.9280 C.ar  270  TCK270     -0.0029
      7  C4        -2.3370   -1.6960   12.2130 C.ar  270  TCK270     -0.0218
      8  C5        -2.9610   -2.8530   12.6510 C.ar  270  TCK270     -0.0029
      9  C6        -2.8040   -4.0300   11.9400 C.ar  270  TCK270      0.0196
     10  C7        -2.1660   -0.5710   13.1940 C.3   270  TCK270      0.0310
     11  N         -3.8470   -5.4880    9.0070 N.3   270  TCK270     -0.0718
     12  CA        -3.9160   -5.6120    7.5250 C.3   270  TCK270      0.1547
     13  C         -4.8600   -4.5400    6.9700 C.2   270  TCK270      0.1686
     14  O         -4.7190   -4.4180    5.7470 O.2   270  TCK270     -0.2945
     15  CB        -4.3570   -7.0100    7.0950 C.3   270  TCK270      0.0269
     16  CG        -3.1230   -7.9540    7.0350 C.3   270  TCK270      0.0035
     17  CD        -3.5380   -9.4200    6.8020 C.3   270  TCK270      0.0206
     18  CE        -2.2810  -10.3170    6.7010 C.3   270  TCK270      0.1093
     19  NZ        -2.6370  -11.7430    6.6850 N.3   270  TCK270     -0.1314
     20  CM        -5.1790   -3.4140    7.8840 C.3   270  TCK270      0.0738
@<TRIPOS>BOND
     1    14    13    2
     2    19    18    1
     3    18    17    1
     4    17    16    1
     5    13    12    1
     6    13    20    1
     7    16    15    1
     8    15    12    1
     9    12    11    1
    10     3     1    2
    11    11     1    1
    12     1     2    2
    13     1     4    1
    14     5     4   ar
    15     5     6   ar
    16     4     9   ar
    17     6     7   ar
    18     9     8   ar
    19     7     8   ar
    20     7    10    1
