@<TRIPOS>MOLECULE
1arg_PPD_A_1.pdb
 24 24 0 0 0
SMALL
GASTEIGER

@<TRIPOS>ATOM
      1  N1        -3.7550   56.6760   26.6670 N.ar  411  PPD411     -0.2452
      2  C2        -4.7390   57.5290   26.3440 C.ar  411  PPD411      0.0978
      3  C2A       -4.7480   58.9170   26.9500 C.3   411  PPD411      0.0555
      4  C3        -5.6880   57.0720   25.4380 C.ar  411  PPD411      0.2062
      5  O3        -6.6870   57.9130   25.1340 O.3   411  PPD411     -0.2856
      6  C4        -5.6290   55.8070   24.9340 C.ar  411  PPD411      0.0353
      7  C4A       -6.6160   55.3150   24.0470 C.3   411  PPD411      0.1186
      8  C5        -4.5830   54.9910   25.3230 C.ar  411  PPD411      0.0275
      9  C6        -3.6380   55.4220   26.1880 C.ar  411  PPD411      0.0965
     10  C5A       -4.6030   53.5460   24.7960 C.3   411  PPD411      0.1816
     11  O4P       -3.9820   53.4950   23.5350 O.3   411  PPD411     -0.2653
     12  P         -3.7910   52.1450   22.7270 P.3   411  PPD411      0.5329
     13  O1P       -2.6700   52.3760   21.8060 O.2   411  PPD411     -0.2224
     14  O2P       -5.1370   51.9550   22.0070 O.3   411  PPD411     -0.1145
     15  O3P       -3.5650   51.0510   23.6700 O.3   411  PPD411     -0.1145
     16  N         -7.8760   55.9630   24.4030 N.3   411  PPD411     -0.2029
     17  CA        -9.0390   55.8350   23.5290 C.3   411  PPD411      0.1874
     18  CB        -9.4150   54.4100   23.2420 C.3   411  PPD411      0.1429
     19  CG        -9.5960   53.5020   24.4450 C.2   411  PPD411      0.3669
     20  OD1       -9.4690   52.2550   24.2670 O.co2 411  PPD411     -0.2456
     21  OD2       -9.9190   53.9550   25.5900 O.co2 411  PPD411     -0.2456
     22  C        -10.1870   56.5490   24.0900 C.2   411  PPD411      0.3808
     23  O        -10.0540   57.2700   25.1140 O.co2 411  PPD411     -0.2441
     24  OXT      -11.2600   56.3980   23.4500 O.co2 411  PPD411     -0.2441
@<TRIPOS>BOND
     1    13    12    2
     2    14    12    1
     3    12    11    1
     4    12    15    1
     5    18    17    1
     6    18    19    1
     7    24    22   ar
     8    17    22    1
     9    17    16    1
    10    11    10    1
    11     7    16    1
    12     7     6    1
    13    22    23   ar
    14    20    19   ar
    15    19    21   ar
    16    10     8    1
    17     6     8   ar
    18     6     4   ar
    19     5     4    1
    20     8     9   ar
    21     4     2   ar
    22     9     1   ar
    23     2     1   ar
    24     2     3    1
