@<TRIPOS>MOLECULE
1arh_PPD_A_1.pdb
 24 24 0 0 0
SMALL
GASTEIGER

@<TRIPOS>ATOM
      1  N1        -5.1550   56.1870   26.6680 N.ar  411  PPD411     -0.2452
      2  C2        -6.2580   56.8650   26.2920 C.ar  411  PPD411      0.0978
      3  C2A       -6.4410   58.2740   26.7990 C.3   411  PPD411      0.0555
      4  C3        -7.1640   56.2020   25.4460 C.ar  411  PPD411      0.2062
      5  O3        -8.2520   56.9080   25.0710 O.3   411  PPD411     -0.2856
      6  C4        -6.9270   54.9140   25.0150 C.ar  411  PPD411      0.0353
      7  C4A       -7.8460   54.2200   24.1380 C.3   411  PPD411      0.1186
      8  C5        -5.7310   54.2980   25.4520 C.ar  411  PPD411      0.0275
      9  C6        -4.8620   54.9400   26.2720 C.ar  411  PPD411      0.0965
     10  C5A       -5.4420   52.8370   25.0160 C.3   411  PPD411      0.1816
     11  O4P       -5.1170   52.8080   23.6210 O.3   411  PPD411     -0.2653
     12  P         -4.8040   51.4760   22.7860 P.3   411  PPD411      0.5329
     13  O1P       -3.6580   51.7830   21.9000 O.2   411  PPD411     -0.2224
     14  O2P       -6.0700   51.1860   21.9320 O.3   411  PPD411     -0.1145
     15  O3P       -4.5970   50.3970   23.7690 O.3   411  PPD411     -0.1145
     16  N         -9.2570   54.5830   24.4680 N.3   411  PPD411     -0.2029
     17  CA       -10.3370   54.5370   23.4410 C.3   411  PPD411      0.1874
     18  CB       -10.6590   53.1200   23.0330 C.3   411  PPD411      0.1429
     19  CG       -10.7310   52.1470   24.1870 C.2   411  PPD411      0.3669
     20  OD1      -10.6920   52.5690   25.3760 O.co2 411  PPD411     -0.2456
     21  OD2      -10.8480   50.8970   23.9610 O.co2 411  PPD411     -0.2456
     22  C        -11.5810   55.2360   23.8940 C.2   411  PPD411      0.3808
     23  O        -11.5200   56.1290   24.7930 O.co2 411  PPD411     -0.2441
     24  OXT      -12.6570   54.8910   23.3280 O.co2 411  PPD411     -0.2441
@<TRIPOS>BOND
     1    13    12    2
     2    14    12    1
     3    12    11    1
     4    12    15    1
     5    18    17    1
     6    18    19    1
     7    24    22   ar
     8    17    22    1
     9    17    16    1
    10    11    10    1
    11    22    23   ar
    12    21    19   ar
    13     7    16    1
    14     7     6    1
    15    19    20   ar
    16     6     4   ar
    17     6     8   ar
    18    10     8    1
    19     5     4    1
    20     4     2   ar
    21     8     9   ar
    22     9     1   ar
    23     2     1   ar
    24     2     3    1
