@<TRIPOS>MOLECULE
1ari_PLP_A_1.pdb
 15 15 0 0 0
SMALL
GASTEIGER

@<TRIPOS>ATOM
      1  N1        -4.3180   56.5460   27.0430 N.ar  410  PLP410     -0.2452
      2  C2        -4.9490   57.5820   26.4350 C.ar  410  PLP410      0.0978
      3  C2A       -4.8860   58.9560   27.0630 C.3   410  PLP410      0.0555
      4  C3        -5.6510   57.3060   25.2370 C.ar  410  PLP410      0.2049
      5  O3        -6.2660   58.3420   24.6360 O.3   410  PLP410     -0.2857
      6  C4        -5.7020   56.0430   24.7170 C.ar  410  PLP410      0.0182
      7  C4A       -6.3680   55.7610   23.4660 C.3   410  PLP410      0.0342
      8  C5        -5.0240   55.0450   25.4250 C.ar  410  PLP410      0.0261
      9  C6        -4.3450   55.2960   26.5800 C.ar  410  PLP410      0.0965
     10  C5A       -5.0710   53.6230   24.8480 C.3   410  PLP410      0.1815
     11  O4P       -4.0710   53.5530   23.8460 O.3   410  PLP410     -0.2653
     12  P         -3.9800   52.2710   22.9930 P.3   410  PLP410      0.5329
     13  O1P       -2.8260   52.3500   22.0750 O.2   410  PLP410     -0.2224
     14  O2P       -3.7820   51.0900   23.9830 O.3   410  PLP410     -0.1145
     15  O3P       -5.3410   52.1850   22.4280 O.3   410  PLP410     -0.1145
@<TRIPOS>BOND
     1    13    12    2
     2    15    12    1
     3    12    11    1
     4    12    14    1
     5     7     6    1
     6    11    10    1
     7     5     4    1
     8     6     4   ar
     9     6     8   ar
    10    10     8    1
    11     4     2   ar
    12     8     9   ar
    13     2     1   ar
    14     2     3    1
    15     9     1   ar
