@<TRIPOS>MOLECULE
1arp_NAG_A_1.pdb
 14 14 0 0 0
SMALL
GASTEIGER

@<TRIPOS>ATOM
      1  C1        20.1230   19.8040   55.9200 C.3   348  NAG348      0.1665
      2  C2        20.7880   18.8560   56.8820 C.3   348  NAG348      0.1576
      3  C3        20.3930   17.4490   56.5430 C.3   348  NAG348      0.2069
      4  C4        18.8950   17.2990   56.5060 C.3   348  NAG348      0.2134
      5  C5        18.1850   18.4350   55.7670 C.3   348  NAG348      0.1809
      6  C6        16.7510   18.4260   56.2090 C.3   348  NAG348      0.2141
      7  C7        22.9460   19.6110   57.8050 C.2   348  NAG348      0.2420
      8  C8        24.4450   19.4560   57.7570 C.3   348  NAG348      0.0964
      9  N2        22.2430   18.9040   56.9120 N.am  348  NAG348     -0.2019
     10  O3        20.9050   16.6100   57.5480 O.3   348  NAG348     -0.2184
     11  O4        18.5720   16.0900   55.8200 O.3   348  NAG348     -0.2176
     12  O5        18.7320   19.7100   56.1240 O.3   348  NAG348     -0.3489
     13  O6        16.0420   19.3170   55.4080 O.3   348  NAG348     -0.2176
     14  O7        22.4230   20.4310   58.5630 O.2   348  NAG348     -0.2733
@<TRIPOS>BOND
     1    13     6    1
     2     5    12    1
     3     5     6    1
     4     5     4    1
     5    11     4    1
     6     1    12    1
     7     1     2    1
     8     4     3    1
     9     3     2    1
    10     3    10    1
    11     2     9    1
    12     9     7   am
    13     8     7    1
    14     7    14    2
