@<TRIPOS>MOLECULE
1arp_HEM_A_1.pdb
 43 50 0 0 0
SMALL
GASTEIGER

@<TRIPOS>ATOM
      1  CHA       18.7600   20.1950   29.0930 C.2   345  HEM345      0.0000
      2  CHB       15.4160   23.6300   28.8000 C.2   345  HEM345      0.0000
      3  CHC       18.6630   26.8650   30.3300 C.2   345  HEM345      0.0000
      4  CHD       21.6180   23.2860   31.4210 C.2   345  HEM345      0.0000
      5  C1A       17.5700   20.8600   28.8530 C.ar  345  HEM345      0.0000
      6  C2A       16.3730   20.2310   28.4400 C.ar  345  HEM345      0.0000
      7  C3A       15.4030   21.1700   28.4390 C.ar  345  HEM345      0.0000
      8  C4A       16.0200   22.3900   28.8220 C.ar  345  HEM345      0.0000
      9  CMA       13.9220   20.9970   28.1380 C.3   345  HEM345      0.0000
     10  CAA       16.2570   18.7440   28.1490 C.3   345  HEM345      0.0000
     11  CBA       15.8680   17.9330   29.3970 C.3   345  HEM345      0.0000
     12  CGA       15.5390   16.4920   29.1100 C.2   345  HEM345      0.0000
     13  O1A       16.3380   15.6280   29.4030 O.co2 345  HEM345      0.0000
     14  O2A       14.4840   16.1990   28.5730 O.co2 345  HEM345      0.0000
     15  C1B       16.0510   24.8540   29.0410 C.2   345  HEM345      0.0000
     16  C2B       15.4440   26.1780   28.8740 C.2   345  HEM345      0.0000
     17  C3B       16.3780   27.0990   29.2510 C.2   345  HEM345      0.0000
     18  C4B       17.5690   26.3280   29.6360 C.2   345  HEM345      0.0000
     19  CMB       14.0170   26.4730   28.4170 C.3   345  HEM345      0.0000
     20  CAB       16.1680   28.4710   29.4640 C.3   345  HEM345      0.0000
     21  CBB       16.4970   29.5000   28.5060 C.3   345  HEM345      0.0000
     22  C1C       19.6940   26.1650   30.8700 C.ar  345  HEM345      0.0000
     23  C2C       20.6670   26.7260   31.7760 C.ar  345  HEM345      0.0000
     24  C3C       21.4600   25.6890   32.1690 C.ar  345  HEM345      0.0000
     25  C4C       20.9840   24.5150   31.4480 C.ar  345  HEM345      0.0000
     26  CMC       20.7600   28.2050   32.1840 C.3   345  HEM345      0.0000
     27  CAC       22.4100   25.6280   33.1790 C.3   345  HEM345      0.0000
     28  CBC       23.4560   26.5610   33.5130 C.3   345  HEM345      0.0000
     29  C1D       21.1640   22.1680   30.7460 C.2   345  HEM345      0.0000
     30  C2D       21.8780   20.9390   30.6170 C.2   345  HEM345      0.0000
     31  C3D       21.0600   20.0820   29.9700 C.2   345  HEM345      0.0000
     32  C4D       19.8700   20.7770   29.6760 C.2   345  HEM345      0.0000
     33  CMD       23.2970   20.6790   31.0600 C.3   345  HEM345      0.0000
     34  CAD       21.3490   18.6530   29.5440 C.2   345  HEM345      0.0000
     35  CBD       20.9760   17.5880   30.5360 C.2   345  HEM345      0.0000
     36  CGD       21.1970   16.1570   30.1170 C.2   345  HEM345      0.0000
     37  O1D       20.7700   15.2780   30.8260 O.co2 345  HEM345      0.0000
     38  O2D       21.8010   15.8830   29.1120 O.co2 345  HEM345      0.0000
     39  NA        17.3570   22.1990   29.1040 N.ar  345  HEM345      0.0000
     40  NB        17.3670   24.9710   29.4610 N.2   345  HEM345      0.0000
     41  NC        19.8550   24.8020   30.7150 N.ar  345  HEM345      0.0000
     42  ND        19.9470   22.0910   30.1100 N.2   345  HEM345      0.0000
     43 FE         18.6520   23.5440   29.7840 Fe    345  HEM345      0.0000
@<TRIPOS>BOND
     1     9     7    1
     2    10     6    1
     3    10    11    1
     4    19    16    1
     5     7     6   ar
     6     7     8   ar
     7     6     5   ar
     8    21    20    1
     9    14    12   ar
    10     2     8    2
    11     2    15    1
    12     8    39   ar
    13     5     1    2
    14     5    39   ar
    15    16    15    1
    16    16    17    2
    17    15    40    2
    18     1    32    1
    19    39    43    1
    20    12    11    1
    21    12    13   ar
    22    38    36   ar
    23    17    20    1
    24    17    18    1
    25    40    18    1
    26    40    43    1
    27    34    31    1
    28    34    35    2
    29    18     3    2
    30    32    31    1
    31    32    42    2
    32    43    42    1
    33    43    41    1
    34    31    30    2
    35    42    29    1
    36    36    35    1
    37    36    37   ar
    38     3    22    1
    39    30    29    1
    40    30    33    1
    41    41    22   ar
    42    41    25   ar
    43    29     4    2
    44    22    23   ar
    45     4    25    1
    46    25    24   ar
    47    23    24   ar
    48    23    26    1
    49    24    27    1
    50    27    28    1
