@<TRIPOS>MOLECULE
1ars_PLP_A_1.pdb
 15 15 0 0 0
SMALL
GASTEIGER

@<TRIPOS>ATOM
      1  N1        26.6930    5.1210  -14.5350 N.ar  413  PLP413     -0.2452
      2  C2        26.2260    6.1690  -15.2630 C.ar  413  PLP413      0.0978
      3  C2A       26.9260    6.5400  -16.5750 C.3   413  PLP413      0.0555
      4  C3        25.1200    6.8360  -14.8470 C.ar  413  PLP413      0.2049
      5  O3        24.6850    7.9270  -15.5390 O.3   413  PLP413     -0.2857
      6  C4        24.4650    6.4280  -13.6930 C.ar  413  PLP413      0.0182
      7  C4A       23.1720    7.1620  -13.3020 C.3   413  PLP413      0.0342
      8  C5        24.9610    5.3200  -12.9770 C.ar  413  PLP413      0.0261
      9  C6        26.0770    4.7010  -13.4160 C.ar  413  PLP413      0.0965
     10  C5A       24.3050    4.7030  -11.7400 C.3   413  PLP413      0.1815
     11  O4P       23.3130    5.3750  -10.9940 O.3   413  PLP413     -0.2653
     12  P         22.6910    4.7420   -9.6800 P.3   413  PLP413      0.5329
     13  O1P       23.7630    4.4950   -8.7030 O.3   413  PLP413     -0.1145
     14  O2P       21.8680    3.5960  -10.1140 O.2   413  PLP413     -0.2224
     15  O3P       21.8190    5.9740   -9.1810 O.3   413  PLP413     -0.1145
@<TRIPOS>BOND
     1     3     2    1
     2     5     4    1
     3     2     4   ar
     4     2     1   ar
     5     4     6   ar
     6     1     9   ar
     7     6     7    1
     8     6     8   ar
     9     9     8   ar
    10     8    10    1
    11    10    11    1
    12    11    12    1
    13    14    12    2
    14    12    15    1
    15    12    13    1
