@<TRIPOS>MOLECULE
1art_0A0_A_1.pdb
 10 9 0 0 0
SMALL
GASTEIGER

@<TRIPOS>ATOM
      1  N         24.1720    8.1970  -14.1690 N.3   414  0A0414     -0.1223
      2  CA        23.4160    9.4250  -13.8330 C.3   414  0A0414      0.1805
      3  C         23.9540   10.6250  -14.6190 C.2   414  0A0414      0.3805
      4  O         23.5710   11.7470  -14.3280 O.co2 414  0A0414     -0.2441
      5  CB        23.3520    9.7010  -12.3330 C.3   414  0A0414      0.1425
      6  CG        24.6350    9.5990  -11.5360 C.2   414  0A0414      0.3669
      7  OD1       25.5680   10.3850  -11.7010 O.co2 414  0A0414     -0.2456
      8  OD2       24.6850    8.6800  -10.7150 O.co2 414  0A0414     -0.2456
      9  OXT       24.7200   10.4440  -15.5650 O.co2 414  0A0414     -0.2441
     10  CM        21.9740    9.2070  -14.2760 C.3   414  0A0414      0.0312
@<TRIPOS>BOND
     1     9     3   ar
     2     3     4   ar
     3     3     2    1
     4    10     2    1
     5     1     2    1
     6     2     5    1
     7     5     6    1
     8     7     6   ar
     9     6     8   ar
