@<TRIPOS>MOLECULE
1art_PLP_A_1.pdb
 15 15 0 0 0
SMALL
GASTEIGER

@<TRIPOS>ATOM
      1  N1        26.3850    3.7000  -14.7490 N.ar  413  PLP413     -0.2452
      2  C2        26.1850    4.7370  -15.6030 C.ar  413  PLP413      0.0978
      3  C2A       26.8980    4.7710  -16.9260 C.3   413  PLP413      0.0555
      4  C3        25.3630    5.7680  -15.2510 C.ar  413  PLP413      0.2049
      5  O3        25.1450    6.7870  -16.1150 O.3   413  PLP413     -0.2857
      6  C4        24.7590    5.7700  -14.0370 C.ar  413  PLP413      0.0182
      7  C4A       23.9320    6.9590  -13.6010 C.3   413  PLP413      0.0342
      8  C5        24.9650    4.7190  -13.1690 C.ar  413  PLP413      0.0261
      9  C6        25.7670    3.6730  -13.5340 C.ar  413  PLP413      0.0965
     10  C5A       24.3840    4.7770  -11.7590 C.3   413  PLP413      0.1815
     11  O4P       23.3530    3.8650  -11.6240 O.3   413  PLP413     -0.2653
     12  P         22.7330    3.7210  -10.2100 P.3   413  PLP413      0.5329
     13  O1P       23.7510    3.5820   -9.1670 O.3   413  PLP413     -0.1145
     14  O2P       21.9040    2.5250  -10.4410 O.2   413  PLP413     -0.2224
     15  O3P       21.8690    4.9850   -9.9100 O.3   413  PLP413     -0.1145
@<TRIPOS>BOND
     1     3     2    1
     2     5     4    1
     3     2     4   ar
     4     2     1   ar
     5     4     6   ar
     6     1     9   ar
     7     6     7    1
     8     6     8   ar
     9     9     8   ar
    10     8    10    1
    11    10    11    1
    12    11    12    1
    13    14    12    2
    14    12    15    1
    15    12    13    1
