@<TRIPOS>MOLECULE
1aru_HEM_A_1.pdb
 43 50 0 0 0
SMALL
GASTEIGER

@<TRIPOS>ATOM
      1  CHA       18.7370   20.2780   28.9950 C.2   345  HEM345      0.0000
      2  CHB       15.4080   23.7300   28.7830 C.2   345  HEM345      0.0000
      3  CHC       18.6270   26.9090   30.3090 C.2   345  HEM345      0.0000
      4  CHD       21.5900   23.3020   31.4040 C.2   345  HEM345      0.0000
      5  C1A       17.5480   20.9540   28.7650 C.ar  345  HEM345      0.0000
      6  C2A       16.3150   20.3160   28.4160 C.ar  345  HEM345      0.0000
      7  C3A       15.3500   21.2650   28.4320 C.ar  345  HEM345      0.0000
      8  C4A       16.0120   22.4870   28.8020 C.ar  345  HEM345      0.0000
      9  CMA       13.8800   21.1230   28.0960 C.3   345  HEM345      0.0000
     10  CAA       16.1610   18.8350   28.1370 C.3   345  HEM345      0.0000
     11  CBA       16.0010   18.0040   29.4130 C.3   345  HEM345      0.0000
     12  CGA       15.6030   16.5790   29.1120 C.2   345  HEM345      0.0000
     13  O1A       16.3260   15.6810   29.4960 O.co2 345  HEM345      0.0000
     14  O2A       14.5710   16.3270   28.4770 O.co2 345  HEM345      0.0000
     15  C1B       16.0430   24.9320   29.0010 C.2   345  HEM345      0.0000
     16  C2B       15.4210   26.2360   28.8290 C.2   345  HEM345      0.0000
     17  C3B       16.3250   27.1590   29.2250 C.2   345  HEM345      0.0000
     18  C4B       17.5330   26.3930   29.6060 C.2   345  HEM345      0.0000
     19  CMB       14.0240   26.5300   28.2860 C.3   345  HEM345      0.0000
     20  CAB       16.0100   28.5180   29.4030 C.3   345  HEM345      0.0000
     21  CBB       16.8730   29.6510   29.1870 C.3   345  HEM345      0.0000
     22  C1C       19.6460   26.1850   30.8770 C.ar  345  HEM345      0.0000
     23  C2C       20.6410   26.7460   31.7670 C.ar  345  HEM345      0.0000
     24  C3C       21.4280   25.7070   32.1740 C.ar  345  HEM345      0.0000
     25  C4C       20.9470   24.5380   31.4400 C.ar  345  HEM345      0.0000
     26  CMC       20.7250   28.2160   32.1600 C.3   345  HEM345      0.0000
     27  CAC       22.3300   25.6370   33.2330 C.3   345  HEM345      0.0000
     28  CBC       23.4310   26.5400   33.5170 C.3   345  HEM345      0.0000
     29  C1D       21.1420   22.1740   30.7160 C.2   345  HEM345      0.0000
     30  C2D       21.8740   20.9420   30.5770 C.2   345  HEM345      0.0000
     31  C3D       21.0500   20.1010   29.9220 C.2   345  HEM345      0.0000
     32  C4D       19.8510   20.8180   29.6130 C.2   345  HEM345      0.0000
     33  CMD       23.3180   20.6840   30.9600 C.3   345  HEM345      0.0000
     34  CAD       21.3200   18.6610   29.5370 C.3   345  HEM345      0.0000
     35  CBD       20.8650   17.5980   30.5160 C.3   345  HEM345      0.0000
     36  CGD       21.1570   16.1970   30.0520 C.2   345  HEM345      0.0000
     37  O1D       20.6790   15.2750   30.6750 O.co2 345  HEM345      0.0000
     38  O2D       21.8780   16.0020   29.0790 O.co2 345  HEM345      0.0000
     39  NA        17.3440   22.2770   29.0450 N.ar  345  HEM345      0.0000
     40  NB        17.3450   25.0340   29.4250 N.2   345  HEM345      0.0000
     41  NC        19.8170   24.8300   30.7210 N.ar  345  HEM345      0.0000
     42  ND        19.9250   22.1010   30.0820 N.2   345  HEM345      0.0000
     43 FE         18.6360   23.5540   29.7850 Fe    345  HEM345      0.0000
@<TRIPOS>BOND
     1     9     7    1
     2    10     6    1
     3    10    11    1
     4    19    16    1
     5     6     7   ar
     6     6     5   ar
     7     7     8   ar
     8    14    12   ar
     9     5     1    2
    10     5    39   ar
    11     2     8    2
    12     2    15    1
    13     8    39   ar
    14    16    15    1
    15    16    17    2
    16     1    32    1
    17    15    40    2
    18    39    43    1
    19    38    36   ar
    20    12    11    1
    21    12    13   ar
    22    21    20    1
    23    17    20    1
    24    17    18    1
    25    40    18    1
    26    40    43    1
    27    34    31    1
    28    34    35    1
    29    18     3    2
    30    32    31    1
    31    32    42    2
    32    43    42    1
    33    43    41    1
    34    31    30    2
    35    36    35    1
    36    36    37   ar
    37    42    29    1
    38     3    22    1
    39    30    29    1
    40    30    33    1
    41    29     4    2
    42    41    22   ar
    43    41    25   ar
    44    22    23   ar
    45     4    25    1
    46    25    24   ar
    47    23    26    1
    48    23    24   ar
    49    24    27    1
    50    27    28    1
