@<TRIPOS>MOLECULE
1arv_HEM_A_1.pdb
 43 50 0 0 0
SMALL
GASTEIGER

@<TRIPOS>ATOM
      1  CHA       18.7320   20.2790   28.9710 C.2   345  HEM345      0.0000
      2  CHB       15.3920   23.7280   28.7240 C.2   345  HEM345      0.0000
      3  CHC       18.6260   26.9040   30.2810 C.2   345  HEM345      0.0000
      4  CHD       21.5350   23.2870   31.4160 C.2   345  HEM345      0.0000
      5  C1A       17.5370   20.9560   28.7710 C.ar  345  HEM345      0.0000
      6  C2A       16.3000   20.3040   28.4370 C.ar  345  HEM345      0.0000
      7  C3A       15.3250   21.2480   28.4410 C.ar  345  HEM345      0.0000
      8  C4A       15.9930   22.4920   28.7810 C.ar  345  HEM345      0.0000
      9  CMA       13.8480   21.1140   28.0970 C.3   345  HEM345      0.0000
     10  CAA       16.1940   18.8180   28.1760 C.3   345  HEM345      0.0000
     11  CBA       16.0210   17.9870   29.4420 C.3   345  HEM345      0.0000
     12  CGA       15.6170   16.5550   29.1410 C.2   345  HEM345      0.0000
     13  O1A       16.3070   15.6440   29.5600 O.co2 345  HEM345      0.0000
     14  O2A       14.6130   16.3200   28.4640 O.co2 345  HEM345      0.0000
     15  C1B       16.0320   24.9150   28.9850 C.2   345  HEM345      0.0000
     16  C2B       15.4200   26.2210   28.8350 C.2   345  HEM345      0.0000
     17  C3B       16.3410   27.1300   29.2550 C.2   345  HEM345      0.0000
     18  C4B       17.5260   26.3680   29.6210 C.2   345  HEM345      0.0000
     19  CMB       14.0120   26.5270   28.3420 C.3   345  HEM345      0.0000
     20  CAB       16.1050   28.4840   29.5150 C.3   345  HEM345      0.0000
     21  CBB       16.3930   29.5640   28.6250 C.3   345  HEM345      0.0000
     22  C1C       19.6450   26.1760   30.8400 C.ar  345  HEM345      0.0000
     23  C2C       20.6130   26.7230   31.7550 C.ar  345  HEM345      0.0000
     24  C3C       21.3790   25.6840   32.1820 C.ar  345  HEM345      0.0000
     25  C4C       20.8880   24.5170   31.4600 C.ar  345  HEM345      0.0000
     26  CMC       20.7200   28.1920   32.1480 C.3   345  HEM345      0.0000
     27  CAC       22.3380   25.6400   33.1900 C.3   345  HEM345      0.0000
     28  CBC       23.4320   26.5630   33.4110 C.3   345  HEM345      0.0000
     29  C1D       21.1100   22.1640   30.7170 C.2   345  HEM345      0.0000
     30  C2D       21.8510   20.9280   30.5680 C.2   345  HEM345      0.0000
     31  C3D       21.0470   20.0810   29.8990 C.2   345  HEM345      0.0000
     32  C4D       19.8440   20.8120   29.5880 C.2   345  HEM345      0.0000
     33  CMD       23.2950   20.7080   30.9820 C.3   345  HEM345      0.0000
     34  CAD       21.3440   18.6490   29.4880 C.2   345  HEM345      0.0000
     35  CBD       20.8030   17.5800   30.4320 C.2   345  HEM345      0.0000
     36  CGD       21.1700   16.1540   30.0760 C.2   345  HEM345      0.0000
     37  O1D       20.7790   15.2360   30.7810 O.co2 345  HEM345      0.0000
     38  O2D       21.8650   15.9360   29.1000 O.co2 345  HEM345      0.0000
     39  NA        17.3320   22.2890   29.0380 N.ar  345  HEM345      0.0000
     40  NB        17.3290   25.0090   29.4460 N.2   345  HEM345      0.0000
     41  NC        19.7950   24.8210   30.7080 N.ar  345  HEM345      0.0000
     42  ND        19.9030   22.0970   30.0700 N.2   345  HEM345      0.0000
     43 FE         18.6220   23.5500   29.7810 Fe    345  HEM345      0.0000
@<TRIPOS>BOND
     1     9     7    1
     2    10     6    1
     3    10    11    1
     4    19    16    1
     5     6     7   ar
     6     6     5   ar
     7     7     8   ar
     8    14    12   ar
     9    21    20    1
    10     2     8    2
    11     2    15    1
    12     5     1    2
    13     5    39   ar
    14     8    39   ar
    15    16    15    1
    16    16    17    2
    17     1    32    1
    18    15    40    2
    19    39    43    1
    20    38    36   ar
    21    12    11    1
    22    12    13   ar
    23    17    20    1
    24    17    18    1
    25    40    18    1
    26    40    43    1
    27    34    31    1
    28    34    35    2
    29    32    31    1
    30    32    42    2
    31    18     3    2
    32    43    42    1
    33    43    41    1
    34    31    30    2
    35    42    29    1
    36    36    35    1
    37    36    37   ar
    38     3    22    1
    39    30    29    1
    40    30    33    1
    41    41    22   ar
    42    41    25   ar
    43    29     4    2
    44    22    23   ar
    45     4    25    1
    46    25    24   ar
    47    23    26    1
    48    23    24   ar
    49    24    27    1
    50    27    28    1
