@<TRIPOS>MOLECULE
1arw_HEM_A_1.pdb
 43 50 0 0 0
SMALL
GASTEIGER

@<TRIPOS>ATOM
      1  CHA       18.6810   20.2540   28.9690 C.2   345  HEM345      0.0000
      2  CHB       15.3740   23.7560   28.7120 C.2   345  HEM345      0.0000
      3  CHC       18.6370   26.9140   30.2600 C.2   345  HEM345      0.0000
      4  CHD       21.5170   23.2470   31.4310 C.2   345  HEM345      0.0000
      5  C1A       17.4870   20.9460   28.7980 C.ar  345  HEM345      0.0000
      6  C2A       16.2440   20.3300   28.4820 C.ar  345  HEM345      0.0000
      7  C3A       15.2920   21.2900   28.4480 C.ar  345  HEM345      0.0000
      8  C4A       15.9650   22.5150   28.7590 C.ar  345  HEM345      0.0000
      9  CMA       13.8300   21.1330   28.0370 C.3   345  HEM345      0.0000
     10  CAA       16.0840   18.8540   28.2080 C.3   345  HEM345      0.0000
     11  CBA       15.9120   18.0080   29.4380 C.3   345  HEM345      0.0000
     12  CGA       15.5390   16.5760   29.1160 C.2   345  HEM345      0.0000
     13  O1A       16.2710   15.6770   29.4960 O.co2 345  HEM345      0.0000
     14  O2A       14.5240   16.3320   28.4680 O.co2 345  HEM345      0.0000
     15  C1B       16.0350   24.9390   28.9610 C.2   345  HEM345      0.0000
     16  C2B       15.4180   26.2490   28.8730 C.2   345  HEM345      0.0000
     17  C3B       16.3550   27.1510   29.2810 C.2   345  HEM345      0.0000
     18  C4B       17.5520   26.3840   29.5970 C.2   345  HEM345      0.0000
     19  CMB       13.9860   26.5580   28.4240 C.3   345  HEM345      0.0000
     20  CAB       16.1650   28.5160   29.5420 C.3   345  HEM345      0.0000
     21  CBB       16.0650   29.5570   28.5540 C.3   345  HEM345      0.0000
     22  C1C       19.6510   26.1720   30.8170 C.ar  345  HEM345      0.0000
     23  C2C       20.6260   26.7180   31.7470 C.ar  345  HEM345      0.0000
     24  C3C       21.3800   25.6640   32.1860 C.ar  345  HEM345      0.0000
     25  C4C       20.8830   24.4940   31.4580 C.ar  345  HEM345      0.0000
     26  CMC       20.7410   28.1920   32.1610 C.3   345  HEM345      0.0000
     27  CAC       22.2980   25.6050   33.2320 C.3   345  HEM345      0.0000
     28  CBC       23.3500   26.5480   33.5230 C.3   345  HEM345      0.0000
     29  C1D       21.0910   22.1420   30.6850 C.2   345  HEM345      0.0000
     30  C2D       21.8210   20.9120   30.5400 C.2   345  HEM345      0.0000
     31  C3D       21.0060   20.0690   29.8850 C.2   345  HEM345      0.0000
     32  C4D       19.8190   20.7990   29.5450 C.2   345  HEM345      0.0000
     33  CMD       23.2940   20.7290   30.9110 C.3   345  HEM345      0.0000
     34  CAD       21.2960   18.6380   29.4850 C.3   345  HEM345      0.0000
     35  CBD       20.6680   17.5790   30.3600 C.3   345  HEM345      0.0000
     36  CGD       21.1100   16.1660   30.0240 C.2   345  HEM345      0.0000
     37  O1D       20.7380   15.2520   30.7530 O.co2 345  HEM345      0.0000
     38  O2D       21.8490   15.9630   29.0690 O.co2 345  HEM345      0.0000
     39  NA        17.2960   22.2940   29.0260 N.ar  345  HEM345      0.0000
     40  NB        17.3490   25.0230   29.3950 N.2   345  HEM345      0.0000
     41  NC        19.7840   24.8100   30.6830 N.ar  345  HEM345      0.0000
     42  ND        19.8920   22.0880   30.0170 N.2   345  HEM345      0.0000
     43 FE         18.5990   23.5370   29.7520 Fe    345  HEM345      0.0000
@<TRIPOS>BOND
     1     9     7    1
     2    10     6    1
     3    10    11    1
     4    19    16    1
     5     7     6   ar
     6     7     8   ar
     7    14    12   ar
     8     6     5   ar
     9    21    20    1
    10     2     8    2
    11     2    15    1
    12     8    39   ar
    13     5     1    2
    14     5    39   ar
    15    16    15    1
    16    16    17    2
    17    15    40    2
    18     1    32    1
    19    39    43    1
    20    38    36   ar
    21    12    11    1
    22    12    13   ar
    23    17    20    1
    24    17    18    1
    25    40    18    1
    26    40    43    1
    27    34    31    1
    28    34    35    1
    29    32    31    1
    30    32    42    2
    31    18     3    2
    32    43    42    1
    33    43    41    1
    34    31    30    2
    35    42    29    1
    36    36    35    1
    37    36    37   ar
    38     3    22    1
    39    30    29    1
    40    30    33    1
    41    41    22   ar
    42    41    25   ar
    43    29     4    2
    44    22    23   ar
    45     4    25    1
    46    25    24   ar
    47    23    26    1
    48    23    24   ar
    49    24    27    1
    50    27    28    1
