@<TRIPOS>MOLECULE
1arx_HEM_A_1.pdb
 43 50 0 0 0
SMALL
GASTEIGER

@<TRIPOS>ATOM
      1  CHA       18.6650   20.1800   29.0630 C.2   345  HEM345      0.0000
      2  CHB       15.4380   23.6660   28.6870 C.2   345  HEM345      0.0000
      3  CHC       18.5840   26.7800   30.4980 C.2   345  HEM345      0.0000
      4  CHD       21.5610   23.1490   31.4160 C.2   345  HEM345      0.0000
      5  C1A       17.5150   20.8610   28.7970 C.ar  345  HEM345      0.0000
      6  C2A       16.3000   20.2380   28.3560 C.ar  345  HEM345      0.0000
      7  C3A       15.3940   21.2220   28.2290 C.ar  345  HEM345      0.0000
      8  C4A       16.0410   22.4350   28.6430 C.ar  345  HEM345      0.0000
      9  CMA       13.9960   21.1050   27.6770 C.3   345  HEM345      0.0000
     10  CAA       16.1040   18.7510   28.1590 C.3   345  HEM345      0.0000
     11  CBA       15.7410   17.9680   29.4300 C.3   345  HEM345      0.0000
     12  CGA       15.4590   16.4890   29.1420 C.2   345  HEM345      0.0000
     13  O1A       16.2540   15.6210   29.4780 O.co2 345  HEM345      0.0000
     14  O2A       14.4480   16.1650   28.5390 O.co2 345  HEM345      0.0000
     15  C1B       16.0590   24.8260   29.0590 C.2   345  HEM345      0.0000
     16  C2B       15.4590   26.1310   28.9120 C.2   345  HEM345      0.0000
     17  C3B       16.3500   27.0550   29.3510 C.2   345  HEM345      0.0000
     18  C4B       17.5180   26.2790   29.7730 C.2   345  HEM345      0.0000
     19  CMB       14.0970   26.4460   28.3160 C.3   345  HEM345      0.0000
     20  CAB       16.1360   28.4300   29.2170 C.3   345  HEM345      0.0000
     21  CBB       16.6600   29.4760   30.0560 C.3   345  HEM345      0.0000
     22  C1C       19.6030   26.0340   31.0160 C.ar  345  HEM345      0.0000
     23  C2C       20.5720   26.5410   31.9530 C.ar  345  HEM345      0.0000
     24  C3C       21.3770   25.4760   32.3050 C.ar  345  HEM345      0.0000
     25  C4C       20.9020   24.3530   31.5270 C.ar  345  HEM345      0.0000
     26  CMC       20.6740   27.9960   32.3870 C.3   345  HEM345      0.0000
     27  CAC       22.3840   25.4070   33.2580 C.3   345  HEM345      0.0000
     28  CBC       23.4180   26.3940   33.4730 C.3   345  HEM345      0.0000
     29  C1D       21.1200   22.0750   30.6420 C.2   345  HEM345      0.0000
     30  C2D       21.8060   20.8030   30.5330 C.2   345  HEM345      0.0000
     31  C3D       20.9550   19.9520   29.9400 C.2   345  HEM345      0.0000
     32  C4D       19.7890   20.7120   29.6210 C.2   345  HEM345      0.0000
     33  CMD       23.2630   20.5620   30.8600 C.3   345  HEM345      0.0000
     34  CAD       21.2300   18.5140   29.5600 C.3   345  HEM345      0.0000
     35  CBD       20.7680   17.4290   30.5270 C.3   345  HEM345      0.0000
     36  CGD       21.0700   16.0010   30.0670 C.2   345  HEM345      0.0000
     37  O1D       20.6520   15.0730   30.7280 O.co2 345  HEM345      0.0000
     38  O2D       21.7050   15.7720   29.0450 O.co2 345  HEM345      0.0000
     39  NA        17.3480   22.2080   28.9920 N.ar  345  HEM345      0.0000
     40  NB        17.3510   24.9230   29.5120 N.2   345  HEM345      0.0000
     41  NC        19.7850   24.6830   30.7770 N.ar  345  HEM345      0.0000
     42  ND        19.9140   22.0290   29.9970 N.2   345  HEM345      0.0000
     43 FE         18.6730   23.4850   29.6740 Fe    345  HEM345      0.0000
@<TRIPOS>BOND
     1     9     7    1
     2    10     6    1
     3    10    11    1
     4     7     6   ar
     5     7     8   ar
     6    19    16    1
     7     6     5   ar
     8    14    12   ar
     9     8     2    2
    10     8    39   ar
    11     2    15    1
    12     5    39   ar
    13     5     1    2
    14    16    15    1
    15    16    17    2
    16    39    43    1
    17    38    36   ar
    18    15    40    2
    19     1    32    1
    20    12    11    1
    21    12    13   ar
    22    20    17    1
    23    20    21    1
    24    17    18    1
    25    40    43    1
    26    40    18    1
    27    34    31    1
    28    34    35    1
    29    32    31    1
    30    32    42    2
    31    43    42    1
    32    43    41    1
    33    18     3    2
    34    31    30    2
    35    42    29    1
    36    36    35    1
    37    36    37   ar
    38     3    22    1
    39    30    29    1
    40    30    33    1
    41    29     4    2
    42    41    22   ar
    43    41    25   ar
    44    22    23   ar
    45     4    25    1
    46    25    24   ar
    47    23    24   ar
    48    23    26    1
    49    24    27    1
    50    27    28    1
