@<TRIPOS>MOLECULE
1ary_HEM_A_1.pdb
 43 50 0 0 0
SMALL
GASTEIGER

@<TRIPOS>ATOM
      1  CHA       18.7080   20.1340   28.9900 C.2   345  HEM345      0.0000
      2  CHB       15.4580   23.6350   28.5550 C.2   345  HEM345      0.0000
      3  CHC       18.5330   26.7080   30.5580 C.2   345  HEM345      0.0000
      4  CHD       21.5410   23.1270   31.4130 C.2   345  HEM345      0.0000
      5  C1A       17.5380   20.8150   28.6840 C.ar  345  HEM345      0.0000
      6  C2A       16.3230   20.2010   28.2240 C.ar  345  HEM345      0.0000
      7  C3A       15.4090   21.1840   28.1070 C.ar  345  HEM345      0.0000
      8  C4A       16.0480   22.3990   28.5310 C.ar  345  HEM345      0.0000
      9  CMA       13.9910   21.0280   27.6210 C.3   345  HEM345      0.0000
     10  CAA       16.1100   18.7120   28.0130 C.3   345  HEM345      0.0000
     11  CBA       15.8260   17.9820   29.3150 C.3   345  HEM345      0.0000
     12  CGA       15.5130   16.5100   29.0900 C.2   345  HEM345      0.0000
     13  O1A       16.3390   15.6420   29.3840 O.co2 345  HEM345      0.0000
     14  O2A       14.4320   16.1970   28.6000 O.co2 345  HEM345      0.0000
     15  C1B       16.0650   24.8120   28.9540 C.2   345  HEM345      0.0000
     16  C2B       15.4510   26.1380   28.8850 C.2   345  HEM345      0.0000
     17  C3B       16.3370   27.0270   29.4310 C.2   345  HEM345      0.0000
     18  C4B       17.4890   26.2190   29.8220 C.2   345  HEM345      0.0000
     19  CMB       14.0620   26.4520   28.3430 C.3   345  HEM345      0.0000
     20  CAB       16.1770   28.3990   29.6870 C.3   345  HEM345      0.0000
     21  CBB       16.0520   29.4540   28.6970 C.3   345  HEM345      0.0000
     22  C1C       19.5830   25.9750   31.0100 C.ar  345  HEM345      0.0000
     23  C2C       20.5520   26.5020   31.9200 C.ar  345  HEM345      0.0000
     24  C3C       21.3610   25.4570   32.2660 C.ar  345  HEM345      0.0000
     25  C4C       20.8960   24.3300   31.4860 C.ar  345  HEM345      0.0000
     26  CMC       20.6320   27.9650   32.3330 C.3   345  HEM345      0.0000
     27  CAC       22.3630   25.3860   33.2410 C.3   345  HEM345      0.0000
     28  CBC       23.3750   26.3850   33.5680 C.3   345  HEM345      0.0000
     29  C1D       21.1140   22.0410   30.6870 C.2   345  HEM345      0.0000
     30  C2D       21.8430   20.7920   30.5750 C.2   345  HEM345      0.0000
     31  C3D       21.0250   19.9400   29.9440 C.2   345  HEM345      0.0000
     32  C4D       19.8270   20.6730   29.6150 C.2   345  HEM345      0.0000
     33  CMD       23.2950   20.5450   30.9430 C.3   345  HEM345      0.0000
     34  CAD       21.3440   18.5130   29.5700 C.3   345  HEM345      0.0000
     35  CBD       20.8090   17.4400   30.5030 C.3   345  HEM345      0.0000
     36  CGD       21.1550   16.0200   30.0610 C.2   345  HEM345      0.0000
     37  O1D       20.7700   15.0860   30.7450 O.co2 345  HEM345      0.0000
     38  O2D       21.8150   15.8210   29.0490 O.co2 345  HEM345      0.0000
     39  NA        17.3530   22.1630   28.8950 N.ar  345  HEM345      0.0000
     40  NB        17.3430   24.8810   29.4760 N.2   345  HEM345      0.0000
     41  NC        19.7840   24.6350   30.7500 N.ar  345  HEM345      0.0000
     42  ND        19.9270   21.9830   30.0240 N.2   345  HEM345      0.0000
     43 FE         18.6760   23.4330   29.6320 Fe    345  HEM345      0.0000
@<TRIPOS>BOND
     1     9     7    1
     2    10     6    1
     3    10    11    1
     4     7     6   ar
     5     7     8   ar
     6     6     5   ar
     7    19    16    1
     8     8     2    2
     9     8    39   ar
    10     2    15    1
    11    14    12   ar
    12     5    39   ar
    13     5     1    2
    14    21    20    1
    15    16    15    1
    16    16    17    2
    17    39    43    1
    18    15    40    2
    19     1    32    1
    20    38    36   ar
    21    12    11    1
    22    12    13   ar
    23    17    20    1
    24    17    18    1
    25    40    43    1
    26    40    18    1
    27    34    31    1
    28    34    35    1
    29    32    31    1
    30    32    42    2
    31    43    42    1
    32    43    41    1
    33    18     3    2
    34    31    30    2
    35    42    29    1
    36    36    35    1
    37    36    37   ar
    38     3    22    1
    39    30    29    1
    40    30    33    1
    41    29     4    2
    42    41    22   ar
    43    41    25   ar
    44    22    23   ar
    45     4    25    1
    46    25    24   ar
    47    23    24   ar
    48    23    26    1
    49    24    27    1
    50    27    28    1
