@<TRIPOS>MOLECULE
1arz_PDC_B_1.pdb
 12 12 0 0 0
SMALL
GASTEIGER

@<TRIPOS>ATOM
      1  N1        46.3500   52.8600   18.6780 N.2   275  PDC275     -0.3925
      2  C2        46.7990   52.7460   20.0160 C.2   275  PDC275      0.2102
      3  C3        46.7410   51.5270   20.6980 C.2   275  PDC275      0.0347
      4  C4        46.2350   50.3770   20.0480 C.2   275  PDC275     -0.0156
      5  C5        45.7810   50.4630   18.7190 C.3   275  PDC275      0.0920
      6  C6        45.8410   51.6990   18.0440 C.2   275  PDC275      0.1927
      7  C7        47.2940   53.8430   20.5990 C.2   275  PDC275      0.4168
      8  O1        47.6530   53.8130   21.9070 O.co2 275  PDC275     -0.2377
      9  O2        47.3960   54.9680   19.8810 O.co2 275  PDC275     -0.2377
     10  C8        45.4000   51.8180   16.7730 C.2   275  PDC275      0.4130
     11  O3        45.0420   50.6870   16.0890 O.co2 275  PDC275     -0.2380
     12  O4        45.3730   53.0550   16.1850 O.co2 275  PDC275     -0.2380
@<TRIPOS>BOND
     1    11    10   ar
     2    12    10   ar
     3    10     6    1
     4     6     1    2
     5     6     5    1
     6     1     2    2
     7     5     4    1
     8     9     7   ar
     9     2     7    1
    10     2     3    1
    11     4     3    2
    12     7     8   ar
