@<TRIPOS>MOLECULE
1arz_NAD_B_1.pdb
 44 48 0 0 0
SMALL
GASTEIGER

@<TRIPOS>ATOM
      1  PA        38.1870   53.5210   12.7680 P.3   274  NAD274      0.2189
      2  O1A       37.5970   52.2700   12.1900 O.3   274  NAD274     -0.4371
      3  O2A       39.3710   54.0840   12.0980 O.2   274  NAD274     -0.5170
      4  O5B       37.1120   54.6890   12.9760 O.3   274  NAD274     -0.3112
      5  C5B       36.2280   54.5430   14.2220 C.3   274  NAD274      0.1813
      6  C4B       34.7190   54.3750   14.1020 C.3   274  NAD274      0.1821
      7  O4B       33.9910   55.3480   14.9340 O.3   274  NAD274     -0.3135
      8  C3B       34.1500   54.5440   12.7040 C.3   274  NAD274      0.2184
      9  O3B       32.9100   53.8460   12.6970 O.3   274  NAD274     -0.2174
     10  C2B       33.8870   56.0710   12.7210 C.3   274  NAD274      0.2570
     11  O2B       32.8570   56.2940   11.7840 O.3   274  NAD274     -0.2130
     12  C1B       33.2790   56.2450   14.0800 C.3   274  NAD274      0.3186
     13  N9A       33.3220   57.6880   14.5800 N.pl3 274  NAD274     -0.1439
     14  C8A       34.2510   58.4430   13.9490 C.3   274  NAD274      0.3377
     15  N7A       34.2540   59.7590   14.3170 N.2   274  NAD274     -0.2095
     16  C5A       33.2970   59.7850   15.2410 C.2   274  NAD274      0.2526
     17  C6A       32.8730   60.9030   15.9610 C.2   274  NAD274      0.4393
     18  N6A       33.3890   62.1270   15.7970 N.pl3 274  NAD274      0.2180
     19  N1A       31.8750   60.7620   16.8820 N.2   274  NAD274      0.0021
     20  C2A       31.3710   59.4870   17.0240 C.3   274  NAD274      0.5254
     21  N3A       31.7510   58.3690   16.3410 N.2   274  NAD274     -0.0055
     22  C4A       32.7530   58.5720   15.4340 C.2   274  NAD274      0.3518
     23  O3        38.5290   53.2300   14.3140 O.3   274  NAD274     -0.2703
     24  PN        39.8660   52.7870   15.0450 P.3   274  NAD274      0.2189
     25  O1N       40.8380   52.4130   13.9860 O.2   274  NAD274     -0.5170
     26  O2N       39.5420   51.7550   16.0520 O.3   274  NAD274     -0.4371
     27  O5D       40.2510   54.1690   15.7730 O.3   274  NAD274     -0.3112
     28  C5D       40.0670   54.0600   17.2340 C.3   274  NAD274      0.1813
     29  C4D       40.6470   55.0460   18.1650 C.3   274  NAD274      0.1799
     30  O4D       40.9240   54.3990   19.4280 O.3   274  NAD274     -0.3327
     31  C3D       41.9310   55.6660   17.7300 C.3   274  NAD274      0.2158
     32  O3D       42.1300   56.9910   18.2480 O.3   274  NAD274     -0.2175
     33  C2D       42.9230   54.5720   18.2810 C.3   274  NAD274      0.2309
     34  O2D       44.2330   55.0870   18.4110 O.3   274  NAD274     -0.2158
     35  C1D       42.3280   54.2540   19.6590 C.3   274  NAD274      0.2263
     36  N1N       42.5000   52.8080   20.1460 N.pl3 274  NAD274     -0.2787
     37  C2N       42.8510   52.5580   21.4980 C.3   274  NAD274      0.1244
     38  C3N       42.9680   51.2340   22.0120 C.2   274  NAD274      0.0544
     39  C7N       43.2340   51.0040   23.4120 C.2   274  NAD274      0.2818
     40  O7N       43.2750   49.8390   23.8940 O.2   274  NAD274     -0.2670
     41  N7N       43.4250   52.1170   24.1380 N.am  274  NAD274     -0.0839
     42  C4N       42.7380   50.1270   21.1060 C.2   274  NAD274      0.0033
     43  C5N       42.3980   50.3780   19.7340 C.2   274  NAD274      0.0157
     44  C6N       42.2740   51.7230   19.2540 C.2   274  NAD274      0.0633
@<TRIPOS>BOND
     1    11    10    1
     2     3     1    2
     3     2     1    1
     4     9     8    1
     5     8    10    1
     6     8     6    1
     7    10    12    1
     8     1     4    1
     9     1    23    1
    10     4     5    1
    11    14    15    1
    12    14    13    1
    13    25    24    2
    14    12    13    1
    15    12     7    1
    16     6     5    1
    17     6     7    1
    18    23    24    1
    19    15    16    2
    20    13    22    1
    21    24    27    1
    22    24    26    1
    23    16    22    1
    24    16    17    1
    25    22    21    2
    26    27    28    1
    27    18    17    1
    28    17    19    2
    29    21    20    1
    30    19    20    1
    31    28    29    1
    32    31    29    1
    33    31    32    1
    34    31    33    1
    35    29    30    1
    36    33    34    1
    37    33    35    1
    38    44    43    2
    39    44    36    1
    40    30    35    1
    41    35    36    1
    42    43    42    1
    43    36    37    1
    44    42    38    2
    45    37    38    1
    46    38    39    1
    47    39    40    2
    48    39    41   am
