@<TRIPOS>MOLECULE
1as0_GSP_A_1.pdb
 32 34 0 0 0
SMALL
GASTEIGER

@<TRIPOS>ATOM
      1  PG        36.4890  -31.7390   12.2770 P.3   355  GSP355      0.4340
      2  O3B       36.9850  -30.9320   10.9350 O.3   355  GSP355     -0.2405
      3  S1G       38.1430  -32.2490   12.9880 S.3   355  GSP355      0.0416
      4  O2G       35.6090  -30.7400   12.8970 O.3   355  GSP355     -0.1305
      5  O3G       35.9400  -33.0800   11.9230 O.2   355  GSP355     -0.2423
      6  PB        35.9440  -30.0880    9.9160 P.3   355  GSP355      0.2262
      7  O1B       35.5490  -31.1680    9.0000 O.2   355  GSP355     -0.5168
      8  O2B       34.8740  -29.1850   10.3990 O.3   355  GSP355     -0.4369
      9  PA        36.9520  -27.5080    9.4680 P.3   355  GSP355      0.2189
     10  O1A       35.7080  -26.8350    8.9870 O.2   355  GSP355     -0.5170
     11  O2A       37.4450  -27.3640   10.8670 O.3   355  GSP355     -0.4371
     12  O3A       36.9060  -29.0370    9.1640 O.3   355  GSP355     -0.2701
     13  O5'       38.1960  -27.0230    8.5080 O.3   355  GSP355     -0.3112
     14  C5'       39.5770  -27.4500    8.7620 C.3   355  GSP355      0.1813
     15  C4'       40.4620  -26.3620    8.2160 C.3   355  GSP355      0.1799
     16  O4'       40.2700  -26.2930    6.7600 O.3   355  GSP355     -0.3326
     17  C3'       39.9640  -24.9550    8.7320 C.3   355  GSP355      0.2158
     18  O3'       41.1430  -24.1490    8.9650 O.3   355  GSP355     -0.2175
     19  C2'       39.1950  -24.3310    7.4780 C.3   355  GSP355      0.2310
     20  O2'       39.3370  -22.8980    7.4060 O.3   355  GSP355     -0.2158
     21  C1'       39.9630  -24.9730    6.2800 C.3   355  GSP355      0.2293
     22  N9        39.0990  -25.2290    5.0920 N.pl3 355  GSP355     -0.2354
     23  C8        37.8850  -25.8620    4.9320 C.3   355  GSP355      0.2246
     24  N7        37.4360  -25.9240    3.7120 N.2   355  GSP355     -0.2322
     25  C5        38.4370  -25.2590    2.9900 C.2   355  GSP355      0.2182
     26  C6        38.4850  -25.0280    1.5810 C.1   355  GSP355      0.2372
     27  O6        37.6070  -25.4110    0.8090 O.2   355  GSP355     -0.2069
     28  N1        39.6580  -24.3630    1.2670 N.2   355  GSP355     -0.2485
     29  C2        40.6780  -23.9980    2.1410 C.1   355  GSP355      0.2531
     30  N2        41.7520  -23.3780    1.6770 N.pl3 355  GSP355     -0.0226
     31  N3        40.6340  -24.2490    3.4670 N.2   355  GSP355     -0.3074
     32  C4        39.4730  -24.8780    3.8180 C.2   355  GSP355      0.2300
@<TRIPOS>BOND
     1    27    26    2
     2    28    26    2
     3    28    29    2
     4    26    25    1
     5    30    29    1
     6    29    31    2
     7    25    24    2
     8    25    32    1
     9    31    32    2
    10    24    23    1
    11    32    22    1
    12    23    22    1
    13    22    21    1
    14    21    16    1
    15    21    19    1
    16    16    15    1
    17    20    19    1
    18    19    17    1
    19    15    17    1
    20    15    14    1
    21    13    14    1
    22    13     9    1
    23    17    18    1
    24    10     9    2
    25     7     6    2
    26    12     9    1
    27    12     6    1
    28     9    11    1
    29     6     8    1
    30     6     2    1
    31     2     1    1
    32     5     1    2
    33     1     4    1
    34     1     3    1
