@<TRIPOS>MOLECULE
1as2_GDP_A_1.pdb
 28 30 0 0 0
SMALL
GASTEIGER

@<TRIPOS>ATOM
      1  PB        68.6560   -9.0630   53.6780 P.3   355  GDP355      0.5373
      2  O1B       67.4060   -9.4380   52.9340 O.2   355  GDP355     -0.2221
      3  O2B       68.9080   -7.6260   53.5870 O.3   355  GDP355     -0.1143
      4  O3B       68.8230   -9.7550   55.0190 O.3   355  GDP355     -0.1143
      5  O3A       69.7780   -9.6890   52.7310 O.3   355  GDP355     -0.2261
      6  PA        71.1900   -9.2060   52.3240 P.3   355  GDP355      0.2231
      7  O1A       70.9820   -8.4180   51.1100 O.2   355  GDP355     -0.5169
      8  O2A       72.0010   -8.7640   53.4920 O.3   355  GDP355     -0.4370
      9  O5'       71.8490  -10.5520   51.7970 O.3   355  GDP355     -0.3111
     10  C5'       72.4630  -11.4680   52.7280 C.3   355  GDP355      0.1813
     11  C4'       73.6040  -12.2130   52.0800 C.3   355  GDP355      0.1799
     12  O4'       73.1230  -12.5120   50.7290 O.3   355  GDP355     -0.3326
     13  C3'       74.6830  -11.2250   51.8410 C.3   355  GDP355      0.2158
     14  O3'       75.8660  -11.9520   52.0040 O.3   355  GDP355     -0.2175
     15  C2'       74.4680  -10.9080   50.3840 C.3   355  GDP355      0.2310
     16  O2'       75.5860  -10.4310   49.6760 O.3   355  GDP355     -0.2158
     17  C1'       74.0590  -12.1750   49.7430 C.3   355  GDP355      0.2293
     18  N9        73.5140  -12.0020   48.4260 N.pl3 355  GDP355     -0.2354
     19  C8        72.3700  -11.4380   48.0940 C.3   355  GDP355      0.2246
     20  N7        71.8260  -11.7560   46.9620 N.2   355  GDP355     -0.2322
     21  C5        72.7530  -12.6200   46.4500 C.2   355  GDP355      0.2182
     22  C6        72.6990  -13.3200   45.2720 C.1   355  GDP355      0.2372
     23  O6        71.8100  -13.2570   44.4240 O.2   355  GDP355     -0.2069
     24  N1        73.7820  -14.1420   45.1190 N.2   355  GDP355     -0.2485
     25  C2        74.8110  -14.2880   45.9930 C.1   355  GDP355      0.2531
     26  N2        75.7250  -15.1840   45.5590 N.pl3 355  GDP355     -0.0226
     27  N3        74.8730  -13.6030   47.1530 N.2   355  GDP355     -0.3074
     28  C4        73.8060  -12.7710   47.3080 C.2   355  GDP355      0.2300
@<TRIPOS>BOND
     1    23    22    2
     2    24    22    2
     3    24    25    2
     4    22    21    1
     5    26    25    1
     6    25    27    2
     7    21    20    2
     8    21    28    1
     9    20    19    1
    10    27    28    2
    11    28    18    1
    12    19    18    1
    13    18    17    1
    14    16    15    1
    15    17    15    1
    16    17    12    1
    17    15    13    1
    18    12    11    1
    19     7     6    2
    20     9     6    1
    21     9    10    1
    22    13    14    1
    23    13    11    1
    24    11    10    1
    25     6     5    1
    26     6     8    1
    27     5     1    1
    28     2     1    2
    29     3     1    1
    30     1     4    1
