@<TRIPOS>MOLECULE
1as3_GDP_A_1.pdb
 28 30 0 0 0
SMALL
GASTEIGER

@<TRIPOS>ATOM
      1  PB        38.1990   21.7820   35.9950 P.3   355  GDP355      0.5373
      2  O1B       38.5530   21.3470   37.3670 O.3   355  GDP355     -0.1143
      3  O2B       37.2850   20.8390   35.2620 O.2   355  GDP355     -0.2221
      4  O3B       37.7550   23.1500   35.8350 O.3   355  GDP355     -0.1143
      5  O3A       39.6150   21.6760   35.1560 O.3   355  GDP355     -0.2261
      6  PA        40.6190   22.8390   34.6190 P.3   355  GDP355      0.2231
      7  O1A       41.1410   23.6860   35.6750 O.3   355  GDP355     -0.4370
      8  O2A       40.0060   23.4870   33.4310 O.2   355  GDP355     -0.5169
      9  O5'       41.7130   21.7940   34.1580 O.3   355  GDP355     -0.3111
     10  C5'       42.7120   21.4100   35.0980 C.3   355  GDP355      0.1813
     11  C4'       44.0900   21.4300   34.4520 C.3   355  GDP355      0.1799
     12  O4'       44.0280   20.6290   33.2570 O.3   355  GDP355     -0.3326
     13  C3'       44.6210   22.8460   34.0000 C.3   355  GDP355      0.2158
     14  O3'       46.0360   22.8060   34.2390 O.3   355  GDP355     -0.2175
     15  C2'       44.3080   22.8820   32.5130 C.3   355  GDP355      0.2310
     16  O2'       45.1290   23.7920   31.8310 O.3   355  GDP355     -0.2158
     17  C1'       44.5510   21.4090   32.1520 C.3   355  GDP355      0.2293
     18  N9        43.8330   21.1090   30.9280 N.pl3 355  GDP355     -0.2354
     19  C8        42.4810   21.2080   30.6780 C.3   355  GDP355      0.2246
     20  N7        42.1300   20.6250   29.5590 N.2   355  GDP355     -0.2322
     21  C5        43.3380   20.0820   29.0250 C.2   355  GDP355      0.2182
     22  C6        43.6050   19.3410   27.8120 C.1   355  GDP355      0.2372
     23  O6        42.8560   18.9330   26.9190 O.2   355  GDP355     -0.2069
     24  N1        44.9550   19.0880   27.6640 N.2   355  GDP355     -0.2485
     25  C2        45.9510   19.4790   28.5240 C.1   355  GDP355      0.2531
     26  N2        47.1930   19.1270   28.2290 N.pl3 355  GDP355     -0.0226
     27  N3        45.7130   20.1220   29.6410 N.2   355  GDP355     -0.3074
     28  C4        44.3900   20.4140   29.8290 C.2   355  GDP355      0.2300
@<TRIPOS>BOND
     1    23    22    2
     2    24    22    2
     3    24    25    2
     4    22    21    1
     5    26    25    1
     6    25    27    2
     7    21    20    2
     8    21    28    1
     9    20    19    1
    10    27    28    2
    11    28    18    1
    12    19    18    1
    13    18    17    1
    14    16    15    1
    15    17    15    1
    16    17    12    1
    17    15    13    1
    18    12    11    1
    19     8     6    2
    20    13    14    1
    21    13    11    1
    22     9     6    1
    23     9    10    1
    24    11    10    1
    25     6     5    1
    26     6     7    1
    27     5     1    1
    28     3     1    2
    29     4     1    1
    30     1     2    1
