@<TRIPOS>MOLECULE
1asa_PLP_A_1.pdb
 15 15 0 0 0
SMALL
GASTEIGER

@<TRIPOS>ATOM
      1  N1      -130.7660    3.8990   63.6110 N.ar  409  PLP409     -0.2452
      2  C2      -131.2840    4.5730   62.5540 C.ar  409  PLP409      0.0978
      3  C2A     -130.5630    4.5440   61.2370 C.3   409  PLP409      0.0555
      4  C3      -132.4580    5.2910   62.7060 C.ar  409  PLP409      0.2049
      5  O3      -132.9650    6.0090   61.6860 O.3   409  PLP409     -0.2857
      6  C4      -133.1130    5.3070   63.9030 C.ar  409  PLP409      0.0182
      7  C4A     -134.3950    6.0610   64.0160 C.3   409  PLP409      0.0342
      8  C5      -132.5290    4.5760   64.9810 C.ar  409  PLP409      0.0261
      9  C6      -131.3870    3.8970   64.7930 C.ar  409  PLP409      0.0965
     10  C5A     -133.1440    4.4810   66.3300 C.3   409  PLP409      0.1815
     11  O4P     -134.1280    3.5020   66.5970 O.3   409  PLP409     -0.2653
     12  P       -134.8610    3.4750   67.9360 P.3   409  PLP409      0.5329
     13  O1P     -133.8590    3.3950   69.0100 O.3   409  PLP409     -0.1145
     14  O2P     -135.6780    4.6960   67.9280 O.3   409  PLP409     -0.1145
     15  O3P     -135.6040    2.2420   67.7080 O.2   409  PLP409     -0.2224
@<TRIPOS>BOND
     1     3     2    1
     2     5     4    1
     3     2     4   ar
     4     2     1   ar
     5     4     6   ar
     6     1     9   ar
     7     6     7    1
     8     6     8   ar
     9     9     8   ar
    10     8    10    1
    11    10    11    1
    12    11    12    1
    13    15    12    2
    14    14    12    1
    15    12    13    1
