@<TRIPOS>MOLECULE
1asb_PLP_A_1.pdb
 15 15 0 0 0
SMALL
GASTEIGER

@<TRIPOS>ATOM
      1  N1      -132.1530    4.4200   65.1420 N.ar  409  PLP409     -0.2452
      2  C2      -132.8220    5.0450   64.1410 C.ar  409  PLP409      0.0978
      3  C2A     -132.2170    5.1980   62.7760 C.3   409  PLP409      0.0555
      4  C3      -134.0790    5.5750   64.3800 C.ar  409  PLP409      0.2049
      5  O3      -134.7410    6.2440   63.4170 O.3   409  PLP409     -0.2857
      6  C4      -134.6630    5.4520   65.6070 C.ar  409  PLP409      0.0182
      7  C4A     -136.0330    6.0020   65.8150 C.3   409  PLP409      0.0342
      8  C5      -133.9190    4.7800   66.6240 C.ar  409  PLP409      0.0261
      9  C6      -132.7010    4.2850   66.3520 C.ar  409  PLP409      0.0965
     10  C5A     -134.5380    4.6650   67.9550 C.3   409  PLP409      0.1815
     11  O4P     -135.5450    3.6930   68.1510 O.3   409  PLP409     -0.2653
     12  P       -136.2330    3.5430   69.5050 P.3   409  PLP409      0.5329
     13  O1P     -135.2090    3.2240   70.5110 O.3   409  PLP409     -0.1145
     14  O2P     -136.9310    4.8210   69.7010 O.3   409  PLP409     -0.1145
     15  O3P     -137.0970    2.4260   69.1440 O.2   409  PLP409     -0.2224
@<TRIPOS>BOND
     1     3     2    1
     2     5     4    1
     3     2     4   ar
     4     2     1   ar
     5     4     6   ar
     6     1     9   ar
     7     6     7    1
     8     6     8   ar
     9     9     8   ar
    10     8    10    1
    11    10    11    1
    12    11    12    1
    13    15    12    2
    14    12    14    1
    15    12    13    1
