@<TRIPOS>MOLECULE
1asc_NPL_A_1.pdb
 17 17 0 0 0
SMALL
GASTEIGER

@<TRIPOS>ATOM
      1  N1       130.8350   38.6110   25.4720 N.pl3 409  NPL409     -0.3001
      2  C1       130.2920   39.9090   25.4500 C.3   409  NPL409      0.1125
      3  C2       130.5830   37.7290   24.4440 C.3   409  NPL409      0.1348
      4  C2A      129.7200   38.0530   23.3560 C.3   409  NPL409      0.0299
      5  C3       131.1130   36.4780   24.4970 C.2   409  NPL409      0.1881
      6  O3       130.7850   35.6240   23.4890 O.2   409  NPL409     -0.2899
      7  C4       131.9640   36.1200   25.5420 C.2   409  NPL409      0.0328
      8  C4A      132.6680   34.6740   25.5830 C.3   409  NPL409      0.1383
      9  N4       133.0650   33.9840   26.7440 N.3   409  NPL409     -0.1261
     10  C5       132.2630   37.0750   26.5270 C.2   409  NPL409      0.0226
     11  C5A      133.1480   36.7220   27.6760 C.3   409  NPL409      0.1813
     12  O4P      133.1460   37.6940   28.6530 O.3   409  NPL409     -0.2653
     13  P        134.5140   38.0020   29.3310 P.3   409  NPL409      0.5329
     14  O1P      133.9830   38.9700   30.2640 O.3   409  NPL409     -0.1145
     15  O2P      135.4270   38.4870   28.3220 O.2   409  NPL409     -0.2224
     16  O3P      134.9750   36.7720   29.9110 O.3   409  NPL409     -0.1145
     17  C6       131.6850   38.2830   26.4920 C.2   409  NPL409      0.0596
@<TRIPOS>BOND
     1     4     3    1
     2     6     5    1
     3     3     5    1
     4     3     1    1
     5     5     7    2
     6     2     1    1
     7     1    17    1
     8     7     8    1
     9     7    10    1
    10     8     9    1
    11    17    10    2
    12    10    11    1
    13    11    12    1
    14    15    13    2
    15    12    13    1
    16    13    16    1
    17    13    14    1
