@<TRIPOS>MOLECULE
1asd_MPL_A_1.pdb
 16 16 0 0 0
SMALL
GASTEIGER

@<TRIPOS>ATOM
      1  P       -135.2390    3.7660   68.3120 P.3   409  MPL409      0.5329
      2  O1P     -134.1640    3.5810   69.3350 O.3   409  MPL409     -0.1145
      3  O2P     -136.1030    4.9650   68.4360 O.3   409  MPL409     -0.1145
      4  O3P     -135.9160    2.5130   67.9360 O.2   409  MPL409     -0.2224
      5  O4P     -134.4080    4.0270   67.0390 O.3   409  MPL409     -0.2656
      6  C5A     -134.3970    5.2820   66.4310 C.3   409  MPL409      0.1774
      7  C5      -133.6470    5.1060   65.1910 C.2   409  MPL409      0.0045
      8  N1      -131.7310    4.1620   64.1580 N.pl3 409  MPL409     -0.3029
      9  C1      -130.6470    3.3450   64.3070 C.3   409  MPL409      0.1123
     10  C6      -132.5280    4.3190   65.2330 C.3   409  MPL409      0.1155
     11  C2      -132.0610    4.7860   62.9610 C.2   409  MPL409      0.0645
     12  C2A     -131.1660    4.6540   61.7450 C.3   409  MPL409      0.0505
     13  C3      -133.2170    5.5780   62.8910 C.2   409  MPL409      0.2003
     14  O3      -133.5230    6.2630   61.7120 O.2   409  MPL409     -0.2860
     15  C4      -134.0310    5.7030   64.0230 C.2   409  MPL409      0.0140
     16  C4A     -135.2690    6.5990   63.9300 C.3   409  MPL409      0.0339
@<TRIPOS>BOND
     1    14    13    1
     2    12    11    1
     3    13    11    2
     4    13    15    1
     5    11     8    1
     6    16    15    1
     7    15     7    2
     8     8     9    1
     9     8    10    1
    10     7    10    1
    11     7     6    1
    12     6     5    1
    13     5     1    1
    14     4     1    2
    15     1     3    1
    16     1     2    1
