@<TRIPOS>MOLECULE
1ase_NOP_A_1.pdb
 16 16 0 0 0
SMALL
GASTEIGER

@<TRIPOS>ATOM
      1  N1      -130.7110    4.0400   63.5860 N.ar  409  NOP409     -0.1582
      2  O1      -129.6360    3.5270   63.4900 O.co2 409  NOP409     -0.6190
      3  C2      -131.3390    4.6810   62.5690 C.ar  409  NOP409      0.2526
      4  C2A     -130.6950    4.7200   61.2130 C.3   409  NOP409      0.1128
      5  C3      -132.5540    5.3050   62.7960 C.ar  409  NOP409      0.2512
      6  O3      -133.1720    5.9910   61.8160 O.3   409  NOP409     -0.2809
      7  C4      -133.1390    5.2600   64.0280 C.ar  409  NOP409      0.0271
      8  C4A     -134.4660    5.9120   64.2240 C.3   409  NOP409      0.0345
      9  C5      -132.4390    4.5670   65.0620 C.ar  409  NOP409      0.0782
     10  C6      -131.2610    3.9800   64.8010 C.ar  409  NOP409      0.2992
     11  C5A     -132.9090    4.5100   66.4700 C.3   409  NOP409      0.1861
     12  O4P     -133.9460    3.5870   66.7350 O.3   409  NOP409     -0.2651
     13  P       -134.7940    3.7060   67.9990 P.3   409  NOP409      0.5329
     14  O1P     -133.9500    3.3690   69.1550 O.3   409  NOP409     -0.1145
     15  O2P     -135.2990    5.0850   67.9690 O.3   409  NOP409     -0.1145
     16  O3P     -135.7780    2.6890   67.6500 O.2   409  NOP409     -0.2224
@<TRIPOS>UNITY_ATOM_ATTR
1 1
charge 1
2 1
charge -1
@<TRIPOS>BOND
     1     4     3    1
     2     6     5    1
     3     3     5   ar
     4     3     1   ar
     5     5     7   ar
     6     2     1    1
     7     1    10   ar
     8     7     8    1
     9     7     9   ar
    10    10     9   ar
    11     9    11    1
    12    11    12    1
    13    12    13    1
    14    16    13    2
    15    15    13    1
    16    13    14    1
