@<TRIPOS>MOLECULE
1asf_PLP_A_1.pdb
 15 15 0 0 0
SMALL
GASTEIGER

@<TRIPOS>ATOM
      1  N1       130.0150   38.5710   25.3590 N.ar  411  PLP411     -0.2452
      2  C2       130.5550   37.5960   24.5690 C.ar  411  PLP411      0.0978
      3  C2A      129.9230   37.2670   23.3110 C.3   411  PLP411      0.0555
      4  C3       131.6820   36.9610   24.9770 C.ar  411  PLP411      0.2049
      5  O3       132.2660   36.0480   24.2360 O.3   411  PLP411     -0.2857
      6  C4       132.2470   37.3390   26.1840 C.ar  411  PLP411      0.0182
      7  C4A      133.5220   36.6880   26.6110 C.3   411  PLP411      0.0342
      8  C5       131.5930   38.3000   26.9870 C.ar  411  PLP411      0.0261
      9  C6       130.4750   38.9090   26.5600 C.ar  411  PLP411      0.0965
     10  C5A      132.1920   38.7550   28.3440 C.3   411  PLP411      0.1815
     11  O4P      132.8950   38.2460   29.1140 O.3   411  PLP411     -0.2653
     12  P        133.8280   38.9060   30.2170 P.3   411  PLP411      0.5329
     13  O1P      134.5590   37.6960   30.7170 O.3   411  PLP411     -0.1145
     14  O2P      132.8980   39.5480   31.1570 O.3   411  PLP411     -0.1145
     15  O3P      134.7020   39.8480   29.4710 O.2   411  PLP411     -0.2224
@<TRIPOS>BOND
     1     3     2    1
     2     5     4    1
     3     2     4   ar
     4     2     1   ar
     5     4     6   ar
     6     1     9   ar
     7     6     7    1
     8     6     8   ar
     9     9     8   ar
    10     8    10    1
    11    10    11    1
    12    11    12    1
    13    15    12    2
    14    12    13    1
    15    12    14    1
