@<TRIPOS>MOLECULE
1asg_PLP_A_1.pdb
 15 15 0 0 0
SMALL
GASTEIGER

@<TRIPOS>ATOM
      1  N1      -130.4150    3.9990   63.9480 N.ar  409  PLP409     -0.2452
      2  C2      -131.0750    4.6990   62.9780 C.ar  409  PLP409      0.0978
      3  C2A     -130.4240    5.0190   61.7310 C.3   409  PLP409      0.0555
      4  C3      -132.3500    5.1020   63.2030 C.ar  409  PLP409      0.2049
      5  O3      -133.0130    5.8160   62.3220 O.3   409  PLP409     -0.2857
      6  C4      -132.9310    4.7910   64.4220 C.ar  409  PLP409      0.0182
      7  C4A     -134.3130    5.2840   64.7010 C.3   409  PLP409      0.0342
      8  C5      -132.2190    3.9960   65.3480 C.ar  409  PLP409      0.0261
      9  C6      -130.9590    3.6070   65.0970 C.ar  409  PLP409      0.0965
     10  C5A     -132.8310    3.6260   66.7260 C.3   409  PLP409      0.1815
     11  O4P     -134.1200    3.4390   66.7440 O.3   409  PLP409     -0.2653
     12  P       -134.8790    3.5530   68.1350 P.3   409  PLP409      0.5329
     13  O1P     -135.8330    2.4030   68.0210 O.2   409  PLP409     -0.2224
     14  O2P     -133.8220    3.4330   69.1480 O.3   409  PLP409     -0.1145
     15  O3P     -135.5530    4.8770   68.0990 O.3   409  PLP409     -0.1145
@<TRIPOS>BOND
     1     3     2    1
     2     5     4    1
     3     2     4   ar
     4     2     1   ar
     5     4     6   ar
     6     1     9   ar
     7     6     7    1
     8     6     8   ar
     9     9     8   ar
    10     8    10    1
    11    10    11    1
    12    11    12    1
    13    13    12    2
    14    15    12    1
    15    12    14    1
