@<TRIPOS>MOLECULE
1ash_HEM_A_1.pdb
 43 50 0 0 0
SMALL
GASTEIGER

@<TRIPOS>ATOM
      1 FE         20.0120  -20.7800    3.0330 Fe    301  HEM301      0.0000
      2  CHA       19.2480  -23.8030    4.1930 C.2   301  HEM301      0.0000
      3  CHB       17.2260  -19.4590    4.5140 C.2   301  HEM301      0.0000
      4  CHC       20.9000  -17.6390    2.0890 C.2   301  HEM301      0.0000
      5  CHD       22.6570  -22.0770    1.2850 C.2   301  HEM301      0.0000
      6  NA        18.5990  -21.4660    4.1650 N.2   301  HEM301      0.0000
      7  C1A       18.4480  -22.7480    4.5980 C.2   301  HEM301      0.0000
      8  C2A       17.2440  -22.8840    5.3620 C.2   301  HEM301      0.0000
      9  C3A       16.6450  -21.6740    5.4230 C.2   301  HEM301      0.0000
     10  C4A       17.4930  -20.8010    4.6620 C.2   301  HEM301      0.0000
     11  CMA       15.3550  -21.2590    6.1460 C.3   301  HEM301      0.0000
     12  CAA       16.6920  -24.1920    5.8600 C.3   301  HEM301      0.0000
     13  CBA       17.2130  -24.5950    7.2140 C.3   301  HEM301      0.0000
     14  CGA       16.4240  -25.7670    7.7670 C.2   301  HEM301      0.0000
     15  O1A       16.3570  -26.8260    7.1250 O.co2 301  HEM301      0.0000
     16  O2A       15.8480  -25.5880    8.8360 O.co2 301  HEM301      0.0000
     17  NB        19.2290  -18.9440    3.2800 N.ar  301  HEM301      0.0000
     18  C1B       18.0500  -18.5590    3.9130 C.ar  301  HEM301      0.0000
     19  C2B       17.8450  -17.0770    3.8940 C.ar  301  HEM301      0.0000
     20  C3B       18.9040  -16.5920    3.2580 C.ar  301  HEM301      0.0000
     21  C4B       19.7500  -17.7360    2.8450 C.ar  301  HEM301      0.0000
     22  CMB       16.6950  -16.1740    4.3510 C.3   301  HEM301      0.0000
     23  CAB       19.0220  -15.2510    3.0000 C.3   301  HEM301      0.0000
     24  CBB       20.1670  -14.4810    3.3880 C.3   301  HEM301      0.0000
     25  NC        21.5140  -20.0100    2.0040 N.2   301  HEM301      0.0000
     26  C1C       21.7260  -18.6710    1.6850 C.2   301  HEM301      0.0000
     27  C2C       22.8400  -18.4990    0.7510 C.2   301  HEM301      0.0000
     28  C3C       23.3140  -19.7600    0.5370 C.2   301  HEM301      0.0000
     29  C4C       22.5110  -20.6870    1.3100 C.2   301  HEM301      0.0000
     30  CMC       23.3500  -17.1870    0.1450 C.3   301  HEM301      0.0000
     31  CAC       24.4370  -20.1170   -0.1720 C.3   301  HEM301      0.0000
     32  CBC       24.3790  -20.4400   -1.5600 C.3   301  HEM301      0.0000
     33  ND        20.7640  -22.5590    2.7340 N.ar  301  HEM301      0.0000
     34  C1D       21.8440  -22.9440    1.9470 C.ar  301  HEM301      0.0000
     35  C2D       22.0460  -24.3800    1.9840 C.ar  301  HEM301      0.0000
     36  C3D       21.1240  -24.8520    2.8600 C.ar  301  HEM301      0.0000
     37  C4D       20.3140  -23.7280    3.2950 C.ar  301  HEM301      0.0000
     38  CMD       22.9960  -25.2240    1.1490 C.3   301  HEM301      0.0000
     39  CAD       20.9990  -26.2840    3.3300 C.3   301  HEM301      0.0000
     40  CBD       20.0950  -27.0760    2.4110 C.3   301  HEM301      0.0000
     41  CGD       19.8050  -28.5010    2.8970 C.2   301  HEM301      0.0000
     42  O1D       20.3610  -29.4210    2.3020 O.co2 301  HEM301      0.0000
     43  O2D       19.0250  -28.7080    3.8350 O.co2 301  HEM301      0.0000
@<TRIPOS>BOND
     1    32    31    1
     2    31    28    1
     3    30    27    1
     4    28    27    2
     5    28    29    1
     6    27    26    1
     7    38    35    1
     8     5    29    1
     9     5    34    2
    10    29    25    2
    11    26    25    1
    12    26     4    2
    13    34    35   ar
    14    34    33   ar
    15    35    36   ar
    16    25     1    1
    17     4    21    1
    18    42    41   ar
    19    40    41    1
    20    40    39    1
    21    33     1    1
    22    33    37   ar
    23    21    20   ar
    24    21    17   ar
    25    36    37   ar
    26    36    39    1
    27    41    43   ar
    28    23    20    1
    29    23    24    1
    30     1    17    1
    31     1     6    1
    32    20    19   ar
    33    17    18   ar
    34    37     2    2
    35    19    18   ar
    36    19    22    1
    37    18     3    1
    38     6     7    2
    39     6    10    1
    40     2     7    1
    41     3    10    2
    42     7     8    1
    43    10     9    1
    44     8     9    2
    45     8    12    1
    46     9    11    1
    47    12    13    1
    48    15    14   ar
    49    13    14    1
    50    14    16   ar
