@<TRIPOS>MOLECULE
1asj_III_0_1.pdb
 29 28 0 0 0
SMALL
GASTEIGER

@<TRIPOS>ATOM
      1  N          8.4450   50.7360   85.4050 N.3     6  GLY6       -0.1210
      2  CA         7.0070   50.4530   85.5050 C.3     6  GLY6        0.1956
      3  C          6.6070   49.6530   86.7540 C.2     6  GLY6        0.2613
      4  O          6.0890   50.1870   87.7450 O.2     6  GLY6       -0.2717
      5  N          6.9180   48.3580   86.6640 N.am    7  SER7       -0.1938
      6  CA         6.7570   47.3980   87.7570 C.3     7  SER7        0.2055
      7  C          7.7870   46.2720   87.7410 C.2     7  SER7        0.2644
      8  O          8.1450   45.7290   86.7080 O.2     7  SER7       -0.2714
      9  CB         5.4010   46.6920   87.7540 C.3     7  SER7        0.2130
     10  OG         4.3440   47.6300   87.7690 O.3     7  SER7       -0.2179
     11  N          8.3200   45.9040   88.8940 N.am    8  SER8       -0.1935
     12  CA         9.1240   44.6830   89.0750 C.3     8  SER8        0.2055
     13  C          8.3360   43.7830   90.0110 C.2     8  SER8        0.2644
     14  O          7.7850   44.2620   90.9730 O.2     8  SER8       -0.2714
     15  CB        10.4720   44.9340   89.7280 C.3     8  SER8        0.2130
     16  OG        11.3750   45.2290   88.6730 O.3     8  SER8       -0.2179
     17  N          8.1860   42.5010   89.7550 N.am    9  SER9       -0.1935
     18  CA         7.4030   41.6260   90.6270 C.3     9  SER9        0.2055
     19  C          8.1400   40.4190   91.2160 C.2     9  SER9        0.2643
     20  O          8.5320   39.4930   90.5060 O.2     9  SER9       -0.2714
     21  CB         6.1620   41.0920   89.9110 C.3     9  SER9        0.2130
     22  OG         5.3380   40.3490   90.8140 O.3     9  SER9       -0.2179
     23  N          8.4170   40.4890   92.5080 N.am   10  THR10      -0.1950
     24  CA         9.0400   39.4380   93.3270 C.3    10  THR10       0.1897
     25  C          8.0660   38.6490   94.2390 C.2    10  THR10       0.2313
     26  O          8.1850   38.5250   95.4760 O.2    10  THR10      -0.2863
     27  CB        10.1690   40.0980   94.1810 C.3    10  THR10       0.1794
     28  OG1        9.6540   41.3190   94.6700 O.3    10  THR10      -0.2208
     29  CG2       11.4090   40.4240   93.3750 C.3    10  THR10       0.0378
@<TRIPOS>BOND
     1     1     2    1
     2     2     3    1
     3     5     3   am
     4     5     6    1
     5     8     7    2
     6     3     4    2
     7     7     6    1
     8     7    11   am
     9     9     6    1
    10     9    10    1
    11    16    15    1
    12    11    12    1
    13    12    15    1
    14    12    13    1
    15    17    13   am
    16    17    18    1
    17    21    18    1
    18    21    22    1
    19    13    14    2
    20    20    19    2
    21    18    19    1
    22    19    23   am
    23    23    24    1
    24    24    27    1
    25    24    25    1
    26    29    27    1
    27    27    28    1
    28    25    26    2
