@<TRIPOS>MOLECULE
1asl_PLA_A_1.pdb
 25 25 0 0 0
SMALL
GASTEIGER

@<TRIPOS>ATOM
      1  N1        -3.9470   56.8490   26.6010 N.ar  410  PLA410     -0.2452
      2  C2        -5.0670   57.5590   26.2920 C.ar  410  PLA410      0.0978
      3  C2A       -5.2550   58.8880   26.9810 C.3   410  PLA410      0.0555
      4  C3        -5.9200   56.9510   25.3500 C.ar  410  PLA410      0.2062
      5  O3        -7.0490   57.5980   25.0930 O.3   410  PLA410     -0.2856
      6  C4        -5.6530   55.7450   24.7910 C.ar  410  PLA410      0.0353
      7  C4A       -6.6760   55.1650   23.9610 C.3   410  PLA410      0.1185
      8  C5        -4.4470   55.1020   25.1970 C.ar  410  PLA410      0.0275
      9  C6        -3.5750   55.6920   26.0720 C.ar  410  PLA410      0.0965
     10  C5A       -4.0410   53.7290   24.6910 C.3   410  PLA410      0.1816
     11  O4P       -4.3610   53.3970   23.3990 O.3   410  PLA410     -0.2653
     12  P         -3.7230   52.1250   22.7440 P.3   410  PLA410      0.5329
     13  O1P       -4.8590   51.7230   21.9090 O.2   410  PLA410     -0.2224
     14  O2P       -3.4370   50.8220   23.6470 O.3   410  PLA410     -0.1145
     15  O3P       -2.3650   52.5810   22.2820 O.3   410  PLA410     -0.1145
     16  N         -7.9900   55.4980   24.4110 N.3   410  PLA410     -0.2046
     17  CA        -9.1840   55.6870   23.5580 C.3   410  PLA410      0.1636
     18  CB1       -9.7420   54.3320   23.2560 C.3   410  PLA410      0.1409
     19  CB2       -8.8170   56.2410   22.2030 C.3   410  PLA410      0.0295
     20  CG        -9.8860   53.4760   24.5160 C.2   410  PLA410      0.3668
     21  OD1      -10.7190   53.8100   25.3940 O.co2 410  PLA410     -0.2456
     22  OD2       -9.1770   52.4490   24.6170 O.co2 410  PLA410     -0.2456
     23  C        -10.2630   56.6010   24.1830 C.2   410  PLA410      0.3790
     24  O        -11.4380   56.5650   23.7340 O.co2 410  PLA410     -0.2442
     25  OXT       -9.9210   57.4750   25.0110 O.co2 410  PLA410     -0.2442
@<TRIPOS>BOND
     1    13    12    2
     2    19    17    1
     3    15    12    1
     4    12    11    1
     5    12    14    1
     6    18    17    1
     7    18    20    1
     8    11    10    1
     9    17    23    1
    10    17    16    1
    11    24    23   ar
    12     7    16    1
    13     7     6    1
    14    23    25   ar
    15    20    22   ar
    16    20    21   ar
    17    10     8    1
    18     6     8   ar
    19     6     4   ar
    20     5     4    1
    21     8     9   ar
    22     4     2   ar
    23     9     1   ar
    24     2     1   ar
    25     2     3    1
