@<TRIPOS>MOLECULE
1asm_PLP_A_1.pdb
 15 15 0 0 0
SMALL
GASTEIGER

@<TRIPOS>ATOM
      1  N1        -3.7630   56.9490   26.7510 N.ar  410  PLP410     -0.2452
      2  C2        -4.3600   57.9660   26.0610 C.ar  410  PLP410      0.0978
      3  C2A       -4.2970   59.3980   26.6040 C.3   410  PLP410      0.0555
      4  C3        -4.9870   57.6950   24.8720 C.ar  410  PLP410      0.2049
      5  O3        -5.5800   58.6940   24.1830 O.3   410  PLP410     -0.2857
      6  C4        -5.0130   56.3770   24.3970 C.ar  410  PLP410      0.0182
      7  C4A       -5.6950   56.0580   23.0960 C.3   410  PLP410      0.0342
      8  C5        -4.4170   55.3550   25.1290 C.ar  410  PLP410      0.0261
      9  C6        -3.7670   55.6520   26.2880 C.ar  410  PLP410      0.0965
     10  C5A       -4.5360   53.8860   24.5130 C.3   410  PLP410      0.1815
     11  O4P       -3.7600   53.6190   23.2430 O.3   410  PLP410     -0.2653
     12  P         -3.9720   52.1710   22.6780 P.3   410  PLP410      0.5329
     13  O1P       -5.2570   52.1420   21.9360 O.3   410  PLP410     -0.1145
     14  O2P       -2.7830   52.0150   21.8690 O.2   410  PLP410     -0.2224
     15  O3P       -3.9670   51.0480   23.7290 O.3   410  PLP410     -0.1145
@<TRIPOS>BOND
     1    14    12    2
     2    13    12    1
     3    12    11    1
     4    12    15    1
     5     7     6    1
     6    11    10    1
     7     5     4    1
     8     6     4   ar
     9     6     8   ar
    10    10     8    1
    11     4     2   ar
    12     8     9   ar
    13     2     3    1
    14     2     1   ar
    15     9     1   ar
