@<TRIPOS>MOLECULE
1asn_PLP_A_1.pdb
 15 15 0 0 0
SMALL
GASTEIGER

@<TRIPOS>ATOM
      1  N1        -4.6780   56.2820   27.0170 N.ar  411  PLP411     -0.2452
      2  C2        -5.6250   57.1220   26.4960 C.ar  411  PLP411      0.0978
      3  C2A       -5.9760   58.3930   27.1890 C.3   411  PLP411      0.0555
      4  C3        -6.2520   56.7980   25.3380 C.ar  411  PLP411      0.2049
      5  O3        -7.2060   57.6410   24.8430 O.3   411  PLP411     -0.2857
      6  C4        -5.9280   55.6230   24.6810 C.ar  411  PLP411      0.0182
      7  C4A       -6.6450   55.2540   23.4340 C.3   411  PLP411      0.0342
      8  C5        -4.9840   54.7730   25.2050 C.ar  411  PLP411      0.0261
      9  C6        -4.3510   55.1100   26.3730 C.ar  411  PLP411      0.0965
     10  C5A       -4.6510   53.4480   24.4810 C.3   411  PLP411      0.1815
     11  O4P       -4.3070   53.3460   23.1670 O.3   411  PLP411     -0.2653
     12  P         -4.5450   51.8340   22.7550 P.3   411  PLP411      0.5329
     13  O1P       -4.3300   50.8950   23.8750 O.3   411  PLP411     -0.1145
     14  O2P       -5.9640   51.7190   22.1240 O.3   411  PLP411     -0.1145
     15  O3P       -3.5110   51.4810   21.5980 O.2   411  PLP411     -0.2224
@<TRIPOS>BOND
     1    15    12    2
     2    14    12    1
     3    12    11    1
     4    12    13    1
     5    11    10    1
     6     7     6    1
     7    10     8    1
     8     6     8   ar
     9     6     4   ar
    10     5     4    1
    11     8     9   ar
    12     4     2   ar
    13     9     1   ar
    14     2     1   ar
    15     2     3    1
