@<TRIPOS>MOLECULE
1asu_EPE_A_1.pdb
 15 15 0 0 0
SMALL
GASTEIGER

@<TRIPOS>ATOM
      1  N1        62.4910   48.0040   52.3020 N.3   252  EPE252     -0.2689
      2  C2        63.9470   47.9010   52.6000 C.3   252  EPE252      0.0897
      3  C3        64.8540   48.1050   51.3890 C.3   252  EPE252      0.0897
      4  N4        64.4120   47.4740   50.1160 N.3   252  EPE252     -0.2681
      5  C5        62.9610   47.7370   49.8360 C.3   252  EPE252      0.0897
      6  C6        62.0830   47.3450   51.0280 C.3   252  EPE252      0.0897
      7  C7        65.2480   47.8050   48.9220 C.3   252  EPE252      0.1081
      8  C8        66.7050   47.4500   49.2080 C.3   252  EPE252      0.1993
      9  O8        67.0260   46.1120   49.4290 O.3   252  EPE252     -0.2189
     10  C9        61.6530   47.5300   53.4460 C.3   252  EPE252      0.0939
     11  C10       61.5450   48.6730   54.4560 C.3   252  EPE252      0.1225
     12  S         60.3590   48.2860   55.7730 S.3   252  EPE252     -0.1946
     13  O1S       60.4250   49.4190   56.6890 O.3   252  EPE252     -0.3074
     14  O2S       60.4730   46.9340   56.2370 O.3   252  EPE252     -0.3074
     15  O3S       58.8810   48.4970   55.0330 O.3   252  EPE252     -0.3074
@<TRIPOS>BOND
     1     7     8    1
     2     7     4    1
     3     8     9    1
     4     5     4    1
     5     5     6    1
     6     4     3    1
     7     6     1    1
     8     3     2    1
     9     1     2    1
    10     1    10    1
    11    10    11    1
    12    11    12    1
    13    15    12    1
    14    12    14    1
    15    12    13    1
