@<TRIPOS>MOLECULE
1asw_EPE_A_1.pdb
 15 15 0 0 0
SMALL
GASTEIGER

@<TRIPOS>ATOM
      1  N1        61.4890   47.2450   51.6640 N.3   252  EPE252     -0.2689
      2  C2        61.0810   46.4620   50.4510 C.3   252  EPE252      0.0897
      3  C3        61.9600   46.9340   49.2550 C.3   252  EPE252      0.0897
      4  N4        63.3920   46.5170   49.5380 N.3   252  EPE252     -0.2681
      5  C5        63.8880   46.9410   50.8600 C.3   252  EPE252      0.0897
      6  C6        62.8850   46.8630   52.0000 C.3   252  EPE252      0.0897
      7  C7        64.2980   46.9390   48.4350 C.3   252  EPE252      0.1081
      8  C8        65.7890   46.6690   48.6460 C.3   252  EPE252      0.1993
      9  O8        66.1970   45.3860   49.0230 O.3   252  EPE252     -0.2189
     10  C9        60.6740   46.9410   52.8510 C.3   252  EPE252      0.0939
     11  C10       60.7920   47.9470   53.9810 C.3   252  EPE252      0.1225
     12  S         59.5240   47.6070   55.2270 S.3   252  EPE252     -0.1946
     13  O1S       59.5540   48.6350   56.2390 O.3   252  EPE252     -0.3074
     14  O2S       59.6530   46.2530   55.7620 O.3   252  EPE252     -0.3074
     15  O3S       58.2510   47.8010   54.5200 O.3   252  EPE252     -0.3074
@<TRIPOS>BOND
     1     7     8    1
     2     7     4    1
     3     8     9    1
     4     3     4    1
     5     3     2    1
     6     4     5    1
     7     2     1    1
     8     5     6    1
     9     1     6    1
    10     1    10    1
    11    10    11    1
    12    11    12    1
    13    15    12    1
    14    12    14    1
    15    12    13    1
