@<TRIPOS>MOLECULE
1at3_DFP_A_1.pdb
 10 9 0 0 0
SMALL
GASTEIGER

@<TRIPOS>ATOM
      1  C1        30.2260   17.1130    9.7520 C.3   300  DFP300      0.1236
      2  C2        30.6790   16.0360   10.7410 C.3   300  DFP300      0.0325
      3  C3        29.4050   18.1970   10.4620 C.3   300  DFP300      0.0325
      4  C1'       31.7690   15.9000    5.4680 C.3   300  DFP300      0.1236
      5  C2'       30.6140   14.9890    5.0350 C.3   300  DFP300      0.0325
      6  C3'       33.1060   15.2010    5.2850 C.3   300  DFP300      0.0325
      7  P         31.6950   17.7620    7.4610 P.3   300  DFP300      0.3659
      8  O1P       31.3720   17.6870    9.0550 O.3   300  DFP300     -0.2993
      9  O2P       31.6160   16.2850    6.8320 O.3   300  DFP300     -0.2993
     10  O3P       33.0310   18.3590    7.2600 O.3   300  DFP300     -0.1446
@<TRIPOS>BOND
     1     5     4    1
     2     6     4    1
     3     4     9    1
     4     9     7    1
     5    10     7    1
     6     7     8    1
     7     8     1    1
     8     1     3    1
     9     1     2    1
