@<TRIPOS>MOLECULE
1at9_RET_A_1.pdb
 20 20 0 0 0
SMALL
GASTEIGER

@<TRIPOS>ATOM
      1  C1        14.9070   10.0190   -3.1900 C.3   249  RET249      0.0037
      2  C2        14.3890   10.9440   -4.3080 C.3   249  RET249      0.0003
      3  C3        14.8120   12.4040   -4.1810 C.3   249  RET249      0.0000
      4  C4        14.4800   12.9860   -2.8200 C.3   249  RET249      0.0003
      5  C5        14.9180   12.0830   -1.6740 C.3   249  RET249      0.0040
      6  C6        14.9990   10.7310   -1.7920 C.3   249  RET249      0.0217
      7  C7        14.9770    9.8420   -0.6170 C.2   249  RET249     -0.0310
      8  C8        16.0160    9.3130    0.0650 C.2   249  RET249     -0.0307
      9  C9        15.9850    8.1820    0.9850 C.3   249  RET249      0.0260
     10  C10       16.4970    7.0160    0.5500 C.3   249  RET249      0.0300
     11  C11       17.1340    5.9640    1.3310 C.2   249  RET249     -0.0304
     12  C12       16.5930    4.7980    1.7240 C.2   249  RET249     -0.0310
     13  C13       17.2380    3.7020    2.4340 C.3   249  RET249      0.0217
     14  C14       17.1020    2.4740    1.9150 C.3   249  RET249      0.0043
     15  C15       18.1660    1.6010    1.4630 C.3   249  RET249      0.0003
     16  C16       13.9590    8.8350   -3.1350 C.3   249  RET249      0.0003
     17  C17       16.2800    9.5110   -3.5910 C.3   249  RET249      0.0003
     18  C18       15.1740   12.8880   -0.4110 C.3   249  RET249      0.0003
     19  C19       15.0300    8.2700    2.1620 C.3   249  RET249      0.0050
     20  C20       17.6150    3.9210    3.8830 C.3   249  RET249      0.0047
@<TRIPOS>BOND
     1     2     3    1
     2     2     1    1
     3     3     4    1
     4    17     1    1
     5     1    16    1
     6     1     6    1
     7     4     5    1
     8     6     5    1
     9     6     7    1
    10     5    18    1
    11     7     8    2
    12     8     9    1
    13    10     9    1
    14    10    11    1
    15     9    19    1
    16    11    12    2
    17    15    14    1
    18    12    13    1
    19    14    13    1
    20    13    20    1
