@<TRIPOS>MOLECULE
1ati_III_C_1.pdb
 45 44 0 0 0
SMALL
GASTEIGER

@<TRIPOS>ATOM
      1  N         51.0040    7.4110   35.3020 N.3    91  UNK91      -0.1231
      2  CA        52.3040    7.3690   35.9830 C.3    91  UNK91       0.1694
      3  C         52.5560    8.7530   36.6260 C.2    91  UNK91       0.2592
      4  O         53.4220    8.8820   37.4990 O.2    91  UNK91      -0.2718
      5  CB        53.4150    7.0270   35.0040 C.3    91  UNK91       0.0304
      6  N         51.7820    9.7650   36.1880 N.am   92  UNK92      -0.1966
      7  CA        51.8400   11.1600   36.6820 C.3    92  UNK92       0.1728
      8  C         50.5000   11.7990   37.1970 C.2    92  UNK92       0.2616
      9  O         50.1880   11.6780   38.3820 O.2    92  UNK92      -0.2715
     10  CB        52.4880   12.0580   35.6330 C.3    92  UNK92       0.0334
     11  N         49.7050   12.4320   36.3160 N.am   93  UNK93      -0.1963
     12  CA        48.4420   13.1310   36.6990 C.3    93  UNK93       0.1728
     13  C         47.0850   12.4230   36.5460 C.2    93  UNK93       0.2616
     14  O         46.9850   11.2280   36.7720 O.2    93  UNK93      -0.2715
     15  CB        48.3790   14.5120   36.0050 C.3    93  UNK93       0.0334
     16  N         46.0450   13.1930   36.2010 N.am   94  UNK94      -0.1963
     17  CA        44.6810   12.6850   36.0030 C.3    94  UNK94       0.1728
     18  C         44.0970   13.2160   34.6550 C.2    94  UNK94       0.2616
     19  O         44.8360   13.8290   33.8620 O.2    94  UNK94      -0.2715
     20  CB        43.7970   13.0920   37.1980 C.3    94  UNK94       0.0334
     21  N         42.8210   12.9050   34.3640 N.am   95  UNK95      -0.1963
     22  CA        42.0900   13.3430   33.1370 C.3    95  UNK95       0.1728
     23  C         40.6870   12.6800   33.0810 C.2    95  UNK95       0.2616
     24  O         40.4070   11.8000   33.8860 O.2    95  UNK95      -0.2715
     25  CB        42.9030   13.0050   31.8460 C.3    95  UNK95       0.0334
     26  N         39.7680   13.1750   32.2450 N.am   96  UNK96      -0.1963
     27  CA        38.4370   12.5420   32.1100 C.3    96  UNK96       0.1728
     28  C         38.6030   11.5500   30.9650 C.2    96  UNK96       0.2616
     29  O         39.5430   11.6930   30.1610 O.2    96  UNK96      -0.2715
     30  CB        37.3410   13.5610   31.7720 C.3    96  UNK96       0.0334
     31  N         37.7030   10.5720   30.8650 N.am   97  UNK97      -0.1963
     32  CA        37.7950    9.5420   29.8280 C.3    97  UNK97       0.1728
     33  C         37.5300   10.1270   28.4290 C.2    97  UNK97       0.2616
     34  O         36.4150    9.9870   27.9050 O.2    97  UNK97      -0.2715
     35  CB        36.8280    8.4200   30.1550 C.3    97  UNK97       0.0334
     36  N         38.5510   10.8110   27.8600 N.am   98  UNK98      -0.1963
     37  CA        38.4800   11.5130   26.5640 C.3    98  UNK98       0.1728
     38  C         37.0550   12.0980   26.5660 C.2    98  UNK98       0.2616
     39  O         36.3720   12.1260   25.5600 O.2    98  UNK98      -0.2715
     40  CB        38.7430   10.5380   25.3690 C.3    98  UNK98       0.0334
     41  N         36.6380   12.4790   27.7850 N.am   99  UNK99      -0.1977
     42  CA        35.3390   13.0420   28.2100 C.3    99  UNK99       0.1597
     43  C         34.0130   12.3330   27.8530 C.2    99  UNK99       0.2287
     44  O         34.0040   11.2360   27.2930 O.2    99  UNK99      -0.2864
     45  CB        35.2700   14.5750   27.9090 C.3    99  UNK99       0.0319
@<TRIPOS>BOND
     1    40    37    1
     2    39    38    2
     3    37    38    1
     4    37    36    1
     5    38    41   am
     6    44    43    2
     7    41    42    1
     8    43    42    1
     9    36    33   am
    10    34    33    2
    11    45    42    1
    12    33    32    1
    13    32    35    1
    14    32    31    1
    15    29    28    2
    16    31    28   am
    17    28    27    1
    18    30    27    1
    19    25    22    1
    20    27    26    1
    21    26    23   am
    22    23    22    1
    23    23    24    2
    24    22    21    1
    25    19    18    2
    26    21    18   am
    27    18    17    1
    28     5     2    1
    29     1     2    1
    30    10     7    1
    31     2     3    1
    32    17    16    1
    33    17    20    1
    34    15    12    1
    35     6     3   am
    36     6     7    1
    37    16    13   am
    38    11    12    1
    39    11     8   am
    40    13    12    1
    41    13    14    2
    42     3     4    2
    43     7     8    1
    44     8     9    2
