@<TRIPOS>MOLECULE
1atj_HEM_A_1.pdb
 43 50 0 0 0
SMALL
GASTEIGER

@<TRIPOS>ATOM
      1 FE        -12.8340   66.4810   35.4830 Fe    350  HEM350      0.0000
      2  CHA       -9.3130   66.9670   35.2070 C.2   350  HEM350      0.0000
      3  CHB      -13.4340   69.6050   34.3580 C.2   350  HEM350      0.0000
      4  CHC      -16.2630   65.8810   35.4930 C.2   350  HEM350      0.0000
      5  CHD      -12.2610   63.2590   36.2400 C.2   350  HEM350      0.0000
      6  NA       -11.6670   67.8900   34.8590 N.ar  350  HEM350      0.0000
      7  C1A      -10.1980   67.9400   34.7960 C.ar  350  HEM350      0.0000
      8  C2A       -9.7300   69.2090   34.3790 C.ar  350  HEM350      0.0000
      9  C3A      -10.8760   69.9170   34.1140 C.ar  350  HEM350      0.0000
     10  C4A      -12.0760   69.1220   34.4450 C.ar  350  HEM350      0.0000
     11  CMA      -10.9900   71.3130   33.5210 C.3   350  HEM350      0.0000
     12  CAA       -8.2870   69.6390   34.2370 C.3   350  HEM350      0.0000
     13  CBA       -7.8740   69.7380   32.7850 C.3   350  HEM350      0.0000
     14  CGA       -6.4520   70.2170   32.6070 C.2   350  HEM350      0.0000
     15  O1A       -5.8680   69.9030   31.5670 O.co2 350  HEM350      0.0000
     16  O2A       -5.8960   70.9210   33.4680 O.co2 350  HEM350      0.0000
     17  NB       -14.4960   67.5560   35.0430 N.2   350  HEM350      0.0000
     18  C1B      -14.5670   68.8700   34.6170 C.2   350  HEM350      0.0000
     19  C2B      -15.9070   69.3380   34.5500 C.2   350  HEM350      0.0000
     20  C3B      -16.7430   68.3080   34.9500 C.2   350  HEM350      0.0000
     21  C4B      -15.8470   67.1760   35.1990 C.2   350  HEM350      0.0000
     22  CMB      -16.3530   70.7460   34.1860 C.3   350  HEM350      0.0000
     23  CAB      -18.1510   68.3740   35.1150 C.3   350  HEM350      0.0000
     24  CBB      -18.9470   67.7430   36.1630 C.3   350  HEM350      0.0000
     25  NC       -14.0350   64.9400   35.7290 N.ar  350  HEM350      0.0000
     26  C1C      -15.4230   64.8350   35.6680 C.ar  350  HEM350      0.0000
     27  C2C      -15.8610   63.4530   35.7530 C.ar  350  HEM350      0.0000
     28  C3C      -14.7300   62.6840   35.9410 C.ar  350  HEM350      0.0000
     29  C4C      -13.6140   63.6210   35.9610 C.ar  350  HEM350      0.0000
     30  CMC      -17.3290   62.9860   35.7900 C.3   350  HEM350      0.0000
     31  CAC      -14.5610   61.2910   36.0730 C.3   350  HEM350      0.0000
     32  CBC      -15.3580   60.3060   36.8280 C.3   350  HEM350      0.0000
     33  ND       -11.1590   65.4110   35.7540 N.2   350  HEM350      0.0000
     34  C1D      -11.1140   64.0970   36.1870 C.2   350  HEM350      0.0000
     35  C2D       -9.7590   63.6910   36.5760 C.2   350  HEM350      0.0000
     36  C3D       -8.9690   64.7390   36.2240 C.2   350  HEM350      0.0000
     37  C4D       -9.8070   65.7840   35.7070 C.2   350  HEM350      0.0000
     38  CMD       -9.3990   62.4160   37.3360 C.3   350  HEM350      0.0000
     39  CAD       -7.4600   64.8690   36.3240 C.3   350  HEM350      0.0000
     40  CBD       -6.8640   64.2640   35.0760 C.3   350  HEM350      0.0000
     41  CGD       -5.3440   64.2920   35.0460 C.2   350  HEM350      0.0000
     42  O1D       -4.7900   63.9590   33.9980 O.co2 350  HEM350      0.0000
     43  O2D       -4.6890   64.6480   36.0420 O.co2 350  HEM350      0.0000
@<TRIPOS>BOND
     1    15    14   ar
     2    14    13    1
     3    14    16   ar
     4    13    12    1
     5    11     9    1
     6    42    41   ar
     7     9     8   ar
     8     9    10   ar
     9    22    19    1
    10    12     8    1
    11     3    10    2
    12     3    18    1
    13     8     7   ar
    14    10     6   ar
    15    19    18    1
    16    19    20    2
    17    18    17    2
    18     7     6   ar
    19     7     2    2
    20     6     1    1
    21    20    23    1
    22    20    21    1
    23    17    21    1
    24    17     1    1
    25    41    40    1
    26    41    43   ar
    27    40    39    1
    28    23    24    1
    29    21     4    2
    30     2    37    1
    31     1    25    1
    32     1    33    1
    33     4    26    1
    34    26    25   ar
    35    26    27   ar
    36    37    33    2
    37    37    36    1
    38    25    29   ar
    39    27    30    1
    40    27    28   ar
    41    33    34    1
    42    28    29   ar
    43    28    31    1
    44    29     5    1
    45    31    32    1
    46    34     5    2
    47    34    35    1
    48    36    39    1
    49    36    35    2
    50    35    38    1
