@<TRIPOS>MOLECULE
1atk_E64_A_1.pdb
 25 24 0 0 0
SMALL
GASTEIGER

@<TRIPOS>ATOM
      1  C1       -22.2350  -18.1460   58.5990 C.2   216  E64216      0.3680
      2  O1       -23.0140  -17.6180   57.7870 O.co2 216  E64216     -0.2455
      3  O2       -21.6700  -17.5120   59.5020 O.co2 216  E64216     -0.2455
      4  C2       -21.9980  -19.6440   58.5000 C.3   216  E64216      0.1564
      5  C3       -20.4820  -19.9230   58.6210 C.3   216  E64216      0.2403
      6  O3       -19.8430  -19.6480   57.3710 O.3   216  E64216     -0.2126
      7  C4       -20.2680  -21.3980   58.8940 C.2   216  E64216      0.2728
      8  O4       -19.8550  -21.8000   59.9840 O.2   216  E64216     -0.2706
      9  N1       -20.5920  -22.2020   57.8920 N.am  216  E64216     -0.1956
     10  C6       -20.4920  -23.6500   57.9750 C.3   216  E64216      0.1728
     11  C7       -21.6130  -24.2710   57.1390 C.3   216  E64216      0.0311
     12  C8       -22.1700  -25.6590   57.4330 C.3   216  E64216      0.0022
     13  C9       -21.8380  -26.5860   56.2700 C.3   216  E64216      0.0001
     14  C10      -21.6940  -26.2250   58.7790 C.3   216  E64216      0.0001
     15  C11      -19.1410  -24.1520   57.4780 C.2   216  E64216      0.2612
     16  O5       -18.6660  -23.7320   56.4260 O.2   216  E64216     -0.2715
     17  N2       -18.5430  -25.0750   58.2300 N.am  216  E64216     -0.2040
     18  C12      -17.2620  -25.7060   57.9170 C.3   216  E64216      0.1153
     19  C13      -16.1190  -24.7140   57.7510 C.3   216  E64216      0.0271
     20  C14      -14.7780  -25.4280   57.8630 C.3   216  E64216      0.0487
     21  C15      -13.9990  -24.9590   59.1010 C.3   216  E64216      0.2205
     22  N3       -13.1860  -26.0240   59.7010 N.pl3 216  E64216     -0.0865
     23  C16      -13.3730  -26.5230   60.9240 C.cat 216  E64216      0.5346
     24  N4       -13.0650  -25.7850   61.9780 N.pl3 216  E64216      0.1354
     25  N5       -13.5740  -27.8280   61.0860 N.pl3 216  E64216      0.1354
@<TRIPOS>BOND
     1    13    12    1
     2    16    15    2
     3    11    12    1
     4    11    10    1
     5     6     5    1
     6    12    14    1
     7    15    10    1
     8    15    17   am
     9    19    20    1
    10    19    18    1
    11     2     1   ar
    12    20    21    1
    13     9    10    1
    14     9     7   am
    15    18    17    1
    16     4     1    1
    17     4     5    1
    18     1     3   ar
    19     5     7    1
    20     7     8    2
    21    21    22    1
    22    22    23    2
    23    23    25    1
    24    23    24    1
