@<TRIPOS>MOLECULE
1atl_0QI_A_1.pdb
 23 23 0 0 0
SMALL
GASTEIGER

@<TRIPOS>ATOM
      1  C1         2.1320   23.7440    0.5680 C.2   301  0QI301      0.2422
      2  O1         1.3330   24.4110   -0.1070 O.2   301  0QI301     -0.2733
      3  C2         2.2330   22.2130    0.4330 C.3   301  0QI301      0.0898
      4  CH         0.8610   21.5510    0.2790 C.3   301  0QI301      0.0778
      5  S         -0.1070   21.4440    1.8150 S.3   301  0QI301     -0.0816
      6  C3         3.0820   21.8570   -0.7940 C.3   301  0QI301      0.0100
      7  C4         4.3910   22.6360   -1.0190 C.3   301  0QI301      0.0005
      8  CM         4.9790   22.2740   -2.3840 C.3   301  0QI301      0.0000
      9  C5         5.4060   22.3680    0.1000 C.3   301  0QI301      0.0000
     10  N          2.9960   24.2880    1.4160 N.am  301  0QI301     -0.1952
     11  CA         3.0760   25.7180    1.6560 C.3   301  0QI301      0.2020
     12  C          4.2870   26.0300    2.5510 C.2   301  0QI301      0.3845
     13  O          4.7820   27.1690    2.5610 O.co2 301  0QI301     -0.2437
     14  CB         1.7530   26.2330    2.2490 C.3   301  0QI301      0.0596
     15  CG         1.2290   25.4990    3.4710 C.ar  301  0QI301     -0.0197
     16  CD1        1.8870   24.3840    3.9840 C.ar  301  0QI301     -0.0011
     17  CD2        0.0860   25.9470    4.1280 C.ar  301  0QI301     -0.0011
     18  CE1        1.4300   23.7410    5.1130 C.ar  301  0QI301      0.0366
     19  CE2       -0.3820   25.3120    5.2640 C.ar  301  0QI301      0.0366
     20  CZ         0.2960   24.2040    5.7530 C.ar  301  0QI301      0.1387
     21  OH        -0.1470   23.5450    6.8820 O.3   301  0QI301     -0.4714
     22  OXT        4.7930   25.0850    3.1840 O.co2 301  0QI301     -0.2437
     23  C6         0.3660   23.3430    8.2010 C.3   301  0QI301      0.2525
@<TRIPOS>BOND
     1     8     7    1
     2     7     6    1
     3     7     9    1
     4     6     3    1
     5     2     1    2
     6     4     3    1
     7     4     5    1
     8     3     1    1
     9     1    10   am
    10    10    11    1
    11    11    14    1
    12    11    12    1
    13    14    15    1
    14    12    13   ar
    15    12    22   ar
    16    15    16   ar
    17    15    17   ar
    18    16    18   ar
    19    17    19   ar
    20    18    20   ar
    21    19    20   ar
    22    20    21    1
    23    21    23    1
