@<TRIPOS>MOLECULE
1atn_ATP_A_1.pdb
 31 33 0 0 0
SMALL
GASTEIGER

@<TRIPOS>ATOM
      1  PG        94.7860   57.0320   71.6550 P.3   375  ATP375      0.5373
      2  O1G       93.8880   57.2030   72.8130 O.3   375  ATP375     -0.1143
      3  O2G       94.0870   56.9370   70.3310 O.2   375  ATP375     -0.2221
      4  O3G       95.9360   57.9490   71.6670 O.3   375  ATP375     -0.1143
      5  PB        95.4200   54.2380   70.8750 P.3   375  ATP375      0.2277
      6  O1B       95.4080   54.6720   69.4550 O.2   375  ATP375     -0.5168
      7  O2B       96.5500   53.3850   71.2570 O.3   375  ATP375     -0.4368
      8  O3B       95.4340   55.5660   71.8040 O.3   375  ATP375     -0.2258
      9  PA        93.2520   52.4260   70.3710 P.3   375  ATP375      0.2189
     10  O1A       92.1170   53.0680   69.6840 O.3   375  ATP375     -0.4371
     11  O2A       94.2340   51.7070   69.5590 O.2   375  ATP375     -0.5170
     12  O3A       94.0400   53.5120   71.2170 O.3   375  ATP375     -0.2700
     13  O5'       92.5780   51.3700   71.3960 O.3   375  ATP375     -0.3112
     14  C5'       93.2520   50.7110   72.4920 C.3   375  ATP375      0.1813
     15  C4'       92.4600   50.9260   73.7550 C.3   375  ATP375      0.1821
     16  O4'       91.1440   50.5640   73.3600 O.3   375  ATP375     -0.3135
     17  C3'       92.7220   50.1040   75.0400 C.3   375  ATP375      0.2184
     18  O3'       92.0870   50.5870   76.2240 O.3   375  ATP375     -0.2174
     19  C2'       91.9590   48.8500   74.6680 C.3   375  ATP375      0.2570
     20  O2'       91.5270   48.0310   75.7440 O.3   375  ATP375     -0.2130
     21  C1'       90.6790   49.4660   74.1540 C.3   375  ATP375      0.3186
     22  N9        89.9180   48.4450   73.3480 N.pl3 375  ATP375     -0.1439
     23  C8        90.3980   47.6200   72.3380 C.3   375  ATP375      0.3377
     24  N7        89.5100   46.7480   71.9150 N.2   375  ATP375     -0.2095
     25  C5        88.4130   46.9160   72.7810 C.2   375  ATP375      0.2526
     26  C6        87.1700   46.2130   72.8630 C.2   375  ATP375      0.4393
     27  N6        86.8560   45.1010   72.1890 N.pl3 375  ATP375      0.2180
     28  N1        86.2530   46.7640   73.7220 N.2   375  ATP375      0.0021
     29  C2        86.6120   47.9190   74.3990 C.3   375  ATP375      0.5254
     30  N3        87.8000   48.4960   74.5610 N.2   375  ATP375     -0.0055
     31  C4        88.6260   48.0040   73.6090 C.2   375  ATP375      0.3518
@<TRIPOS>BOND
     1     6     5    2
     2    11     9    2
     3    10     9    1
     4     3     1    2
     5     9    12    1
     6     9    13    1
     7     5    12    1
     8     5     7    1
     9     5     8    1
    10    13    14    1
    11     1     4    1
    12     1     8    1
    13     1     2    1
    14    24    23    1
    15    24    25    2
    16    27    26    1
    17    23    22    1
    18    14    15    1
    19    25    26    1
    20    25    31    1
    21    26    28    2
    22    22    31    1
    23    22    21    1
    24    16    15    1
    25    16    21    1
    26    31    30    2
    27    28    29    1
    28    15    17    1
    29    21    19    1
    30    29    30    1
    31    19    17    1
    32    19    20    1
    33    17    18    1
