@<TRIPOS>MOLECULE
1atp_ATP_E_1.pdb
 31 33 0 0 0
SMALL
GASTEIGER

@<TRIPOS>ATOM
      1  PG        16.2230    8.1510   -1.0150 P.3   355  ATP355      0.5373
      2  O1G       17.5500    8.5360   -0.5150 O.3   355  ATP355     -0.1143
      3  O2G       15.7480    6.8350   -0.4270 O.3   355  ATP355     -0.1143
      4  O3G       16.2550    8.0140   -2.4380 O.2   355  ATP355     -0.2221
      5  PB        14.4710   10.5200   -1.4900 P.3   355  ATP355      0.2277
      6  O1B       13.9290    9.9200   -2.7000 O.2   355  ATP355     -0.5168
      7  O2B       15.3180   11.7370   -1.6370 O.3   355  ATP355     -0.4368
      8  O3B       15.1960    9.3630   -0.6810 O.3   355  ATP355     -0.2258
      9  PA        11.9680    9.8680   -0.2600 P.3   355  ATP355      0.2189
     10  O1A       11.1000    9.8800   -1.4300 O.2   355  ATP355     -0.5170
     11  O2A       12.4260    8.5140    0.1440 O.3   355  ATP355     -0.4371
     12  O3A       13.2420   10.7950   -0.5670 O.3   355  ATP355     -0.2700
     13  O5'       11.3330   10.5910    1.0110 O.3   355  ATP355     -0.3112
     14  C5'       12.0920   10.3730    2.2270 C.3   355  ATP355      0.1813
     15  C4'       11.2380    9.9220    3.4060 C.3   355  ATP355      0.1821
     16  O4'       10.0030   10.6810    3.3860 O.3   355  ATP355     -0.3135
     17  C3'       10.7220    8.4980    3.3950 C.3   355  ATP355      0.2184
     18  O3'       11.7050    7.5330    3.7170 O.3   355  ATP355     -0.2174
     19  C2'        9.5600    8.6060    4.4010 C.3   355  ATP355      0.2570
     20  O2'        9.9420    8.5620    5.7640 O.3   355  ATP355     -0.2130
     21  C1'        8.9880    9.9570    4.0850 C.3   355  ATP355      0.3186
     22  N9         7.7780    9.9240    3.2360 N.pl3 355  ATP355     -0.1439
     23  C8         7.8840    9.9060    1.8790 C.3   355  ATP355      0.3377
     24  N7         6.7310    9.9040    1.2480 N.2   355  ATP355     -0.2095
     25  C5         5.7960    9.9770    2.2530 C.2   355  ATP355      0.2526
     26  C6         4.3730   10.0390    2.2440 C.2   355  ATP355      0.4393
     27  N6         3.6160   10.0010    1.1280 N.pl3 355  ATP355      0.2180
     28  N1         3.7560   10.0340    3.4450 N.2   355  ATP355      0.0021
     29  C2         4.4990   10.0760    4.5820 C.3   355  ATP355      0.5254
     30  N3         5.8250   10.0530    4.7050 N.2   355  ATP355     -0.0055
     31  C4         6.4250    9.8730    3.4960 C.2   355  ATP355      0.3518
@<TRIPOS>BOND
     1     6     5    2
     2     4     1    2
     3     7     5    1
     4     5     8    1
     5     5    12    1
     6    10     9    2
     7     1     8    1
     8     1     2    1
     9     1     3    1
    10    12     9    1
    11     9    11    1
    12     9    13    1
    13    13    14    1
    14    27    26    1
    15    24    23    1
    16    24    25    2
    17    23    22    1
    18    14    15    1
    19    26    25    1
    20    26    28    2
    21    25    31    1
    22    22    31    1
    23    22    21    1
    24    16    15    1
    25    16    21    1
    26    17    15    1
    27    17    18    1
    28    17    19    1
    29    28    29    1
    30    31    30    2
    31    21    19    1
    32    19    20    1
    33    29    30    1
