@<TRIPOS>MOLECULE
1atr_ADP_A_1.pdb
 27 29 0 0 0
SMALL
GASTEIGER

@<TRIPOS>ATOM
      1  PB        17.6640   29.5160   16.4650 P.3   486  ADP486      0.5373
      2  O1B       17.3040   29.9120   17.8520 O.3   486  ADP486     -0.1143
      3  O2B       18.7360   28.5200   16.4050 O.3   486  ADP486     -0.1143
      4  O3B       16.4940   29.1230   15.6610 O.2   486  ADP486     -0.2221
      5  PA        19.5220   31.4600   15.1380 P.3   486  ADP486      0.2231
      6  O1A       20.5160   30.3580   15.2030 O.3   486  ADP486     -0.4370
      7  O2A       19.3000   32.1620   13.8450 O.2   486  ADP486     -0.5169
      8  O3A       18.1510   30.9090   15.8280 O.3   486  ADP486     -0.2261
      9  O5'       19.7630   32.5300   16.2290 O.3   486  ADP486     -0.3111
     10  C5'       18.9980   33.6940   16.2380 C.3   486  ADP486      0.1813
     11  C4'       19.3640   34.5520   17.4210 C.3   486  ADP486      0.1821
     12  O4'       20.5810   35.1190   16.9730 O.3   486  ADP486     -0.3135
     13  C3'       18.4780   35.7970   17.7970 C.3   486  ADP486      0.2184
     14  O3'       18.6370   35.9420   19.1990 O.3   486  ADP486     -0.2174
     15  C2'       19.1400   36.9210   17.0330 C.3   486  ADP486      0.2570
     16  O2'       18.9060   38.1850   17.6830 O.3   486  ADP486     -0.2130
     17  C1'       20.5930   36.4980   17.2240 C.3   486  ADP486      0.3186
     18  N9        21.4930   37.1880   16.2800 N.pl3 486  ADP486     -0.1439
     19  C8        21.5360   37.3100   14.9100 C.3   486  ADP486      0.3377
     20  N7        22.4270   38.1730   14.4750 N.2   486  ADP486     -0.2095
     21  C5        23.0070   38.6320   15.6660 C.2   486  ADP486      0.2526
     22  C6        24.0140   39.5520   15.8950 C.2   486  ADP486      0.4393
     23  N6        24.5300   40.1990   14.8540 N.pl3 486  ADP486      0.2180
     24  N1        24.3810   39.7860   17.1730 N.2   486  ADP486      0.0021
     25  C2        23.7640   39.1250   18.1310 C.3   486  ADP486      0.5254
     26  N3        22.7920   38.2290   18.0420 N.2   486  ADP486     -0.0055
     27  C4        22.4540   38.0330   16.7390 C.2   486  ADP486      0.3518
@<TRIPOS>BOND
     1     7     5    2
     2    20    19    1
     3    20    21    2
     4    23    22    1
     5    19    18    1
     6     5     6    1
     7     5     8    1
     8     5     9    1
     9     4     1    2
    10    21    22    1
    11    21    27    1
    12     8     1    1
    13    22    24    2
    14     9    10    1
    15    10    11    1
    16    18    27    1
    17    18    17    1
    18     3     1    1
    19     1     2    1
    20    27    26    2
    21    12    17    1
    22    12    11    1
    23    15    17    1
    24    15    16    1
    25    15    13    1
    26    24    25    1
    27    11    13    1
    28    13    14    1
    29    26    25    1
