@<TRIPOS>MOLECULE
1ats_ADP_A_1.pdb
 27 29 0 0 0
SMALL
GASTEIGER

@<TRIPOS>ATOM
      1  PB        18.0620   29.1600   15.9680 P.3   486  ADP486      0.5373
      2  O1B       18.4870   29.0450   17.3860 O.3   486  ADP486     -0.1143
      3  O2B       18.6260   28.2670   14.9040 O.2   486  ADP486     -0.2221
      4  O3B       16.6150   29.2850   15.8390 O.3   486  ADP486     -0.1143
      5  PA        19.8610   31.2980   14.7830 P.3   486  ADP486      0.2231
      6  O1A       21.0580   30.4290   14.8810 O.3   486  ADP486     -0.4370
      7  O2A       19.5210   31.8900   13.4640 O.2   486  ADP486     -0.5169
      8  O3A       18.5660   30.6430   15.5660 O.3   486  ADP486     -0.2261
      9  O5'       20.0090   32.4180   15.8570 O.3   486  ADP486     -0.3111
     10  C5'       19.0700   33.4530   15.9810 C.3   486  ADP486      0.1813
     11  C4'       19.5710   34.4620   16.9880 C.3   486  ADP486      0.1821
     12  O4'       20.6700   35.0440   16.3440 O.3   486  ADP486     -0.3135
     13  C3'       18.5950   35.6380   17.3480 C.3   486  ADP486      0.2184
     14  O3'       18.6850   35.8830   18.7790 O.3   486  ADP486     -0.2174
     15  C2'       19.1770   36.7900   16.5460 C.3   486  ADP486      0.2570
     16  O2'       19.0340   38.0430   17.2000 O.3   486  ADP486     -0.2130
     17  C1'       20.6150   36.4160   16.6280 C.3   486  ADP486      0.3186
     18  N9        21.4080   37.1800   15.6740 N.pl3 486  ADP486     -0.1439
     19  C8        21.3560   37.2310   14.2990 C.3   486  ADP486      0.3377
     20  N7        22.2270   38.0390   13.7770 N.2   486  ADP486     -0.2095
     21  C5        22.9010   38.5560   14.8910 C.2   486  ADP486      0.2526
     22  C6        23.9520   39.4820   15.0370 C.2   486  ADP486      0.4393
     23  N6        24.4870   40.1330   13.9980 N.pl3 486  ADP486      0.2180
     24  N1        24.3730   39.7430   16.2850 N.2   486  ADP486      0.0021
     25  C2        23.8180   39.1630   17.3190 C.3   486  ADP486      0.5254
     26  N3        22.8230   38.2940   17.3120 N.2   486  ADP486     -0.0055
     27  C4        22.4080   38.0330   16.0450 C.2   486  ADP486      0.3518
@<TRIPOS>BOND
     1     7     5    2
     2    20    19    1
     3    20    21    2
     4    23    22    1
     5    19    18    1
     6     5     6    1
     7     5     8    1
     8     5     9    1
     9    21    22    1
    10    21    27    1
    11     3     1    2
    12    22    24    2
    13     8     1    1
    14    18    27    1
    15    18    17    1
    16     4     1    1
    17     9    10    1
    18     1     2    1
    19    10    11    1
    20    27    26    2
    21    24    25    1
    22    12    17    1
    23    12    11    1
    24    15    17    1
    25    15    16    1
    26    15    13    1
    27    11    13    1
    28    26    25    1
    29    13    14    1
