@<TRIPOS>MOLECULE
1au0_SDK_A_1.pdb
 42 43 0 0 0
SMALL
GASTEIGER

@<TRIPOS>ATOM
      1  C1         0.1300   37.0370   62.7980 C.ar  300  SDK300     -0.0000
      2  C2         0.1770   38.1890   63.5960 C.ar  300  SDK300     -0.0002
      3  C3         1.3730   38.8940   63.7360 C.ar  300  SDK300     -0.0007
      4  C4         2.5250   38.4630   63.0900 C.ar  300  SDK300      0.0213
      5  C5         2.4630   37.3170   62.2950 C.ar  300  SDK300     -0.0007
      6  C6         1.2740   36.6030   62.1480 C.ar  300  SDK300     -0.0002
      7  C7         3.8290   39.1950   63.2760 C.3   300  SDK300      0.2368
      8  O8         4.4150   39.0790   64.5860 O.3   300  SDK300     -0.4285
      9  C9         5.7520   38.6560   64.6190 C.2   300  SDK300      0.4218
     10  O10        6.6190   39.2640   63.9820 O.2   300  SDK300     -0.2245
     11  C11        7.3000   36.9030   65.4950 C.3   300  SDK300      0.1761
     12  C12        8.2250   37.1880   64.3040 C.3   300  SDK300      0.0312
     13  C13        8.2630   36.1550   63.1750 C.3   300  SDK300      0.0022
     14  C14        9.5650   36.3100   62.4070 C.3   300  SDK300      0.0001
     15  C15        8.1000   34.7130   63.6930 C.3   300  SDK300      0.0001
     16  C16        8.1020   36.9950   66.7950 C.2   300  SDK300      0.2614
     17  O17        8.4740   35.9560   67.3540 O.2   300  SDK300     -0.2715
     18  N18        8.4100   38.1960   67.2870 N.am  300  SDK300     -0.2012
     19  C19        9.2040   38.3940   68.5110 C.3   300  SDK300      0.1498
     20  N20        5.9860   37.5620   65.3510 N.am  300  SDK300     -0.1611
     21  C21        8.4860   39.1680   69.5950 C.3   300  SDK300      0.1951
     22  O22        7.6040   39.8630   69.0990 O.3   300  SDK300     -0.2193
     23  C23       18.5740   35.2160   73.8060 C.ar  300  SDK300     -0.0000
     24  C24       17.2110   35.3850   73.5800 C.ar  300  SDK300     -0.0002
     25  C25       16.7800   36.3930   72.7340 C.ar  300  SDK300     -0.0007
     26  C26       17.6880   37.2480   72.1000 C.ar  300  SDK300      0.0213
     27  C27       19.0470   37.0740   72.3350 C.ar  300  SDK300     -0.0007
     28  C28       19.4980   36.0650   73.1820 C.ar  300  SDK300     -0.0002
     29  C29       17.2100   38.3240   71.1590 C.3   300  SDK300      0.2368
     30  O30       16.1370   38.0570   70.2410 O.3   300  SDK300     -0.4285
     31  C31       14.8290   37.7800   70.7060 C.2   300  SDK300      0.4218
     32  O32       14.3690   36.6360   70.7060 O.2   300  SDK300     -0.2245
     33  C33       12.7400   38.5980   71.6500 C.3   300  SDK300      0.1761
     34  C34       12.6760   38.7120   73.1710 C.3   300  SDK300      0.0312
     35  C35       12.8410   37.4320   73.9700 C.3   300  SDK300      0.0022
     36  C36       12.5570   36.2090   73.0970 C.3   300  SDK300      0.0001
     37  C37       14.2560   37.4030   74.4850 C.3   300  SDK300      0.0001
     38  C38       11.7710   39.5920   71.0350 C.2   300  SDK300      0.2614
     39  O39       12.1680   40.6910   70.6630 O.2   300  SDK300     -0.2715
     40  N40       10.5020   39.2030   70.9360 N.am  300  SDK300     -0.2012
     41  C41        9.4300   40.0210   70.3680 C.3   300  SDK300      0.1498
     42  N42       14.1070   38.8040   71.1590 N.am  300  SDK300     -0.1611
@<TRIPOS>BOND
     1     6     5   ar
     2     6     1   ar
     3     5     4   ar
     4    14    13    1
     5     1     2   ar
     6     4     7    1
     7     4     3   ar
     8    13    15    1
     9    13    12    1
    10     7     8    1
    11     2     3   ar
    12    10     9    2
    13    12    11    1
    14     8     9    1
    15     9    20   am
    16    20    11    1
    17    11    16    1
    18    16    18   am
    19    16    17    2
    20    18    19    1
    21    19    21    1
    22    22    21    1
    23    21    41    1
    24    30    31    1
    25    30    29    1
    26    41    40    1
    27    39    38    2
    28    32    31    2
    29    31    42   am
    30    40    38   am
    31    38    33    1
    32    42    33    1
    33    29    26    1
    34    33    34    1
    35    26    27   ar
    36    26    25   ar
    37    27    28   ar
    38    25    24   ar
    39    36    35    1
    40    34    35    1
    41    28    23   ar
    42    24    23   ar
    43    35    37    1
