@<TRIPOS>MOLECULE
1au1_BGC_A_1.pdb
 12 12 0 0 0
SMALL
GASTEIGER

@<TRIPOS>ATOM
      1  C2        14.7250   -5.1780   19.1750 C.3   167  BGC167      0.2105
      2  C3        15.2690   -5.6160   17.7790 C.3   167  BGC167      0.1761
      3  C4        15.1000   -4.3660   16.8550 C.3   167  BGC167      0.2107
      4  C5        16.0150   -3.2580   17.3180 C.3   167  BGC167      0.1808
      5  C6        15.1670   -2.0020   17.2520 C.3   167  BGC167      0.2141
      6  C1        15.5660   -3.9190   19.5890 C.3   167  BGC167      0.1776
      7  O2        14.9180   -6.1310   20.2160 O.3   167  BGC167     -0.2177
      8  O3        14.4790   -6.6530   17.2050 O.3   167  BGC167     -0.3793
      9  O4        15.2290   -4.7260   15.4760 O.3   167  BGC167     -0.2177
     10  O5        16.5140   -3.4360   18.6200 O.3   167  BGC167     -0.3481
     11  O6        15.8020   -0.9160   16.6390 O.3   167  BGC167     -0.2176
     12  HC        14.4470   -6.3310   16.2980 H     167  BGC167      0.2105
@<TRIPOS>BOND
     1     9     3    1
     2    12     8    1
     3    11     5    1
     4     3     4    1
     5     3     2    1
     6     8     2    1
     7     5     4    1
     8     4    10    1
     9     2     1    1
    10    10     6    1
    11     1     6    1
    12     1     7    1
