@<TRIPOS>MOLECULE
1au1_G6D_A_1.pdb
 13 13 0 0 0
SMALL
GASTEIGER

@<TRIPOS>ATOM
      1  C1        15.9070   -0.8890   15.1940 C.3   169  G6D169      0.1738
      2  O2        16.6280    1.3860   15.5910 O.3   169  G6D169     -0.3794
      3  C2        16.2980    0.4930   14.5220 C.3   169  G6D169      0.1692
      4  C3A       15.0220    1.1600   13.9850 C.3   169  G6D169      0.1688
      5  O3A       15.3760    2.0050   12.8920 O.3   169  G6D169     -0.3794
      6  C4A       13.8530    0.2790   13.5160 C.3   169  G6D169      0.1666
      7  O4A       12.7820    1.1440   13.7230 O.3   169  G6D169     -0.3795
      8  C5A       13.6820   -0.9410   14.3930 C.3   169  G6D169      0.1446
      9  O5        14.9250   -1.5890   14.4560 O.3   169  G6D169     -0.3510
     10  C6A       12.6430   -1.9230   13.8450 C.3   169  G6D169      0.0347
     11  HO2       16.6440    2.2400   15.1870 H     169  G6D169      0.2105
     12 HOA3       14.5750    2.0280   12.3770 H     169  G6D169      0.2105
     13 HOA4       12.5880    1.0810   14.6510 H     169  G6D169      0.2105
@<TRIPOS>BOND
     1    12     5    1
     2     5     4    1
     3     6     7    1
     4     6     4    1
     5     6     8    1
     6     7    13    1
     7    10     8    1
     8     4     3    1
     9     8     9    1
    10     9     1    1
    11     3     1    1
    12     3     2    1
    13    11     2    1
