@<TRIPOS>MOLECULE
1au2_POS_A_1.pdb
 38 40 0 0 0
SMALL
GASTEIGER

@<TRIPOS>ATOM
      1  C1         3.2680   39.4450   63.9150 C.ar  300  POS300      0.1453
      2  C2         3.0200   38.6560   62.7970 C.ar  300  POS300      0.0375
      3  C3         1.7520   38.1850   62.5520 C.ar  300  POS300      0.0031
      4  C4         0.7360   38.4880   63.3900 C.ar  300  POS300      0.0002
      5  C5         0.9530   39.2620   64.4790 C.ar  300  POS300      0.0031
      6  C6         2.1820   39.7320   64.7470 C.ar  300  POS300      0.0375
      7  O7         4.6460   39.9500   64.2870 O.3   300  POS300     -0.4535
      8  C8         5.6050   39.0650   64.6990 C.ar  300  POS300      0.1454
      9  C9         5.5930   38.7770   66.0560 C.ar  300  POS300      0.0389
     10  C10        6.5610   37.8690   66.7090 C.ar  300  POS300      0.0231
     11  C11        7.5660   37.2330   65.9310 C.ar  300  POS300      0.1238
     12  C12        7.5920   37.5030   64.5500 C.ar  300  POS300      0.0231
     13  C13        6.5980   38.4320   63.8920 C.ar  300  POS300      0.0389
     14  S14        8.7260   36.1520   66.6980 S.O2  300  POS300      0.0769
     15  O15        8.1080   34.8230   66.9790 O.2   300  POS300     -0.1516
     16  O16        9.9290   36.0860   65.8280 O.2   300  POS300     -0.1516
     17  N17        9.2680   36.8500   68.1670 N.3   300  POS300     -0.0750
     18  C18        9.4800   38.3070   68.3640 C.3   300  POS300      0.1500
     19  C19        8.9590   39.2330   69.4960 C.3   300  POS300      0.1928
     20  O20        8.2830   39.9960   68.5450 O.3   300  POS300     -0.2196
     21  C21       10.1500   40.1030   70.1250 C.3   300  POS300      0.1495
     22  N22       10.8640   39.0530   70.8690 N.am  300  POS300     -0.2012
     23  C23       11.8470   39.2820   71.7330 C.2   300  POS300      0.2613
     24  O24       12.2700   40.4480   72.0140 O.2   300  POS300     -0.2715
     25  C25       12.4010   38.0250   72.3840 C.3   300  POS300      0.1730
     26  C26       11.7520   37.8550   73.7800 C.3   300  POS300      0.0311
     27  C27       12.4260   37.9740   75.1570 C.3   300  POS300      0.0022
     28  C28       12.6610   36.6370   75.7620 C.3   300  POS300      0.0001
     29  C29       13.6170   38.9040   75.2430 C.3   300  POS300      0.0001
     30  N30       13.8550   38.0350   72.4770 N.am  300  POS300     -0.1940
     31  C31       14.4620   36.8740   72.6910 C.2   300  POS300      0.2653
     32  O32       13.8160   35.8280   72.7860 O.2   300  POS300     -0.2684
     33  C33       15.9130   36.4740   72.8910 C.ar  300  POS300      0.0581
     34  C34       16.1220   35.8870   74.1330 C.ar  300  POS300      0.0252
     35  C35       17.3560   35.4120   74.5400 C.ar  300  POS300      0.0990
     36  N36       18.3880   35.5480   73.6430 N.ar  300  POS300     -0.2423
     37  C37       16.9720   36.5910   72.0350 C.ar  300  POS300      0.0252
     38  C38       18.2300   36.1210   72.4110 C.ar  300  POS300      0.0990
@<TRIPOS>BOND
     1     3     2   ar
     2     3     4   ar
     3     2     1   ar
     4     4     5   ar
     5    13    12   ar
     6    13     8   ar
     7     1     7    1
     8     1     6   ar
     9     7     8    1
    10     5     6   ar
    11    12    11   ar
    12     8     9   ar
    13    16    14    2
    14    11    14    1
    15    11    10   ar
    16     9    10   ar
    17    14    15    2
    18    14    17    1
    19    17    18    1
    20    18    19    1
    21    20    19    1
    22    19    21    1
    23    21    22    1
    24    22    23   am
    25    23    24    2
    26    23    25    1
    27    37    38   ar
    28    37    33   ar
    29    25    30    1
    30    25    26    1
    31    38    36   ar
    32    30    31   am
    33    31    32    2
    34    31    33    1
    35    33    34   ar
    36    36    35   ar
    37    26    27    1
    38    34    35   ar
    39    27    29    1
    40    27    28    1
