@<TRIPOS>MOLECULE
1au3_PCM_A_1.pdb
 43 45 0 0 0
SMALL
GASTEIGER

@<TRIPOS>ATOM
      1  C1       -26.7640  -10.1770   57.2280 C.ar  300  PCM300     -0.0000
      2  C2       -25.4980  -10.6420   57.5820 C.ar  300  PCM300     -0.0002
      3  C3       -24.8460  -11.6100   56.7890 C.ar  300  PCM300     -0.0007
      4  C4       -25.4530  -12.1200   55.6440 C.ar  300  PCM300      0.0213
      5  C5       -26.7180  -11.6480   55.3030 C.ar  300  PCM300     -0.0007
      6  C6       -27.3770  -10.6780   56.0920 C.ar  300  PCM300     -0.0002
      7  C7       -24.7560  -13.1590   54.7880 C.3   300  PCM300      0.2368
      8  O8       -24.0690  -14.2380   55.4610 O.3   300  PCM300     -0.4285
      9  C9       -24.1950  -15.6520   55.3630 C.2   300  PCM300      0.4218
     10  O10      -24.8310  -16.3260   56.1860 O.2   300  PCM300     -0.2245
     11  C11      -23.5730  -17.6420   54.1090 C.3   300  PCM300      0.1761
     12  C12      -23.5600  -17.9820   52.6260 C.3   300  PCM300      0.0312
     13  C13      -24.7860  -17.5790   51.8190 C.3   300  PCM300      0.0022
     14  C14      -24.8410  -16.0760   51.5730 C.3   300  PCM300      0.0001
     15  C15      -24.7030  -18.3090   50.5270 C.3   300  PCM300      0.0001
     16  C16      -22.3630  -18.2440   54.8050 C.2   300  PCM300      0.2614
     17  O17      -21.2560  -18.2510   54.2650 O.2   300  PCM300     -0.2715
     18  N18      -22.5830  -18.7240   56.0220 N.am  300  PCM300     -0.2013
     19  C19      -21.6370  -19.2860   56.8460 C.3   300  PCM300      0.1470
     20  N20      -23.5660  -16.2010   54.3330 N.am  300  PCM300     -0.1611
     21  C21      -21.1650  -20.6820   56.5370 C.3   300  PCM300      0.1178
     22  C22      -22.1020  -19.3220   58.2930 C.3   300  PCM300      0.1931
     23  O23      -22.3050  -18.2000   58.7230 O.3   300  PCM300     -0.2194
     24  C24      -13.3890  -26.5040   60.0560 C.ar  300  PCM300     -0.0000
     25  C25      -13.1150  -25.1940   59.6790 C.ar  300  PCM300     -0.0002
     26  C26      -14.0360  -24.4820   58.9140 C.ar  300  PCM300     -0.0007
     27  C27      -15.2300  -25.0650   58.5180 C.ar  300  PCM300      0.0213
     28  C28      -15.4930  -26.3730   58.9030 C.ar  300  PCM300     -0.0007
     29  C29      -14.5770  -27.0930   59.6690 C.ar  300  PCM300     -0.0002
     30  C30      -16.2020  -24.3080   57.6600 C.3   300  PCM300      0.2368
     31  O31      -16.9900  -24.9410   56.6270 O.3   300  PCM300     -0.4285
     32  C32      -18.4060  -24.8380   56.5630 C.2   300  PCM300      0.4218
     33  O33      -19.0760  -25.6650   55.9560 O.2   300  PCM300     -0.2245
     34  C34      -20.3880  -23.5570   57.2640 C.3   300  PCM300      0.1746
     35  C35      -21.1480  -24.7820   57.7760 C.3   300  PCM300      0.0312
     36  C36      -21.7980  -25.7500   56.7950 C.3   300  PCM300      0.0022
     37  C37      -23.1540  -25.2470   56.4100 C.3   300  PCM300      0.0001
     38  C38      -21.9130  -27.0790   57.4700 C.3   300  PCM300      0.0001
     39  C39      -20.5590  -22.4080   58.2510 C.2   300  PCM300      0.2457
     40  O40      -20.3910  -22.6220   59.4520 O.2   300  PCM300     -0.2730
     41  N41      -20.8820  -21.1830   57.8160 N.am  300  PCM300     -0.2736
     42  C42      -21.0000  -20.1720   58.8070 C.3   300  PCM300      0.1281
     43  N43      -18.9480  -23.8070   57.2040 N.am  300  PCM300     -0.1611
@<TRIPOS>BOND
     1    15    13    1
     2    14    13    1
     3    13    12    1
     4    12    11    1
     5    11    20    1
     6    11    16    1
     7    17    16    2
     8    20     9   am
     9     7     8    1
    10     7     4    1
    11    16    18   am
    12     5     4   ar
    13     5     6   ar
    14     9     8    1
    15     9    10    2
    16     4     3   ar
    17    33    32    2
    18    18    19    1
    19     6     1   ar
    20    37    36    1
    21    21    19    1
    22    21    41    1
    23    32    31    1
    24    32    43   am
    25    31    30    1
    26     3     2   ar
    27    36    38    1
    28    36    35    1
    29    19    22    1
    30    43    34    1
    31     1     2   ar
    32    34    35    1
    33    34    39    1
    34    30    27    1
    35    41    39   am
    36    41    42    1
    37    39    40    2
    38    22    23    1
    39    22    42    1
    40    27    28   ar
    41    27    26   ar
    42    28    29   ar
    43    26    25   ar
    44    29    24   ar
    45    25    24   ar
