@<TRIPOS>MOLECULE
1au4_INP_A_1.pdb
 42 44 0 0 0
SMALL
GASTEIGER

@<TRIPOS>ATOM
      1  C1       -14.7510  -27.5150   59.8100 C.ar  300  INP300     -0.0002
      2  C2       -15.5810  -26.7690   58.9380 C.ar  300  INP300     -0.0007
      3  C3       -15.2380  -25.4440   58.6540 C.ar  300  INP300      0.0213
      4  C4       -14.0640  -24.8840   59.2470 C.ar  300  INP300     -0.0007
      5  C5       -13.2150  -25.6400   60.1380 C.ar  300  INP300     -0.0002
      6  C6       -13.5680  -26.9590   60.4170 C.ar  300  INP300     -0.0000
      7  C7       -16.1150  -24.6260   57.7170 C.3   300  INP300      0.2368
      8  O8       -17.3890  -25.2850   57.4810 O.3   300  INP300     -0.4285
      9  C9       -18.4320  -24.5290   57.0020 C.2   300  INP300      0.4214
     10  O10      -18.3310  -23.6340   56.1670 O.2   300  INP300     -0.2246
     11  N11      -19.5750  -24.8610   57.5420 N.am  300  INP300     -0.1691
     12  C12      -20.8780  -24.2220   57.2290 C.3   300  INP300      0.1146
     13  C13      -21.3140  -23.2850   58.4180 C.3   300  INP300      0.0942
     14  N14      -21.0560  -21.8640   58.1550 N.3   300  INP300     -0.2675
     15  C15      -21.6770  -21.4120   56.8720 C.3   300  INP300      0.0968
     16  C16      -21.5860  -21.0040   59.2720 C.3   300  INP300      0.1073
     17  C17      -22.5730  -20.0700   58.5520 C.3   300  INP300      0.1890
     18  C18      -22.1540  -19.9940   57.0960 C.3   300  INP300      0.1429
     19  C19      -21.8710  -25.4000   57.0130 C.3   300  INP300      0.0232
     20  C20      -22.7340  -25.7400   58.2090 C.3   300  INP300      0.0018
     21  C21      -22.9400  -27.2160   58.2850 C.3   300  INP300      0.0001
     22  C22      -24.0010  -25.0080   57.9840 C.3   300  INP300      0.0001
     23  N23      -23.1800  -19.4510   56.1770 N.am  300  INP300     -0.2017
     24  C24      -23.1200  -18.1540   55.8400 C.2   300  INP300      0.2614
     25  O25      -22.2020  -17.4220   56.2790 O.2   300  INP300     -0.2715
     26  C26      -24.2450  -17.5900   54.9090 C.3   300  INP300      0.1761
     27  C27      -24.0030  -18.0460   53.4270 C.3   300  INP300      0.0312
     28  C28      -25.2220  -18.0540   52.5070 C.3   300  INP300      0.0022
     29  C29      -25.1400  -19.2440   51.6600 C.3   300  INP300      0.0001
     30  C30      -25.2490  -16.7690   51.6900 C.3   300  INP300      0.0001
     31  N31      -24.3010  -16.0980   54.9220 N.am  300  INP300     -0.1611
     32  C32      -24.8530  -15.3400   55.8660 C.2   300  INP300      0.4218
     33  O33      -25.4030  -15.8390   56.8320 O.2   300  INP300     -0.2245
     34  O34      -24.7160  -13.9630   55.6360 O.3   300  INP300     -0.4285
     35  C35      -24.7440  -13.1170   56.8050 C.3   300  INP300      0.2369
     36  C36      -25.6830  -11.9090   56.6170 C.ar  300  INP300      0.0244
     37  C37      -25.2120  -10.6030   56.8560 C.ar  300  INP300      0.0200
     38  C38      -26.0950   -9.5190   56.7370 C.ar  300  INP300      0.0987
     39  N39      -27.3710   -9.7270   56.3960 N.ar  300  INP300     -0.2423
     40  C40      -27.8460  -10.9570   56.1590 C.ar  300  INP300      0.0987
     41  C41      -27.0290  -12.0770   56.2600 C.ar  300  INP300      0.0200
     42  O42      -22.6590  -18.7200   58.8830 O.3   300  INP300     -0.2198
@<TRIPOS>BOND
     1    29    28    1
     2    30    28    1
     3    28    27    1
     4    27    26    1
     5    26    31    1
     6    26    24    1
     7    31    32   am
     8    34    32    1
     9    34    35    1
    10    24    23   am
    11    24    25    2
    12    32    33    2
    13    40    41   ar
    14    40    39   ar
    15    10     9    2
    16    23    18    1
    17    41    36   ar
    18    39    38   ar
    19    36    35    1
    20    36    37   ar
    21    38    37   ar
    22    15    18    1
    23    15    14    1
    24     9     8    1
    25     9    11   am
    26    19    12    1
    27    19    20    1
    28    18    17    1
    29    12    11    1
    30    12    13    1
    31     8     7    1
    32     7     3    1
    33    22    20    1
    34    14    13    1
    35    14    16    1
    36    20    21    1
    37    17    42    1
    38    17    16    1
    39     3     2   ar
    40     3     4   ar
    41     2     1   ar
    42     4     5   ar
    43     1     6   ar
    44     5     6   ar
