@<TRIPOS>MOLECULE
1au8_0H8_A_1.pdb
 31 31 0 0 0
SMALL
GASTEIGER

@<TRIPOS>ATOM
      1  C1        13.6180   47.0910   -0.4620 C.2     1  0H81        0.3654
      2  O1        12.7590   47.2390   -1.3900 O.co2   1  0H81       -0.2456
      3  O2        14.8980   47.7300   -0.5120 O.co2   1  0H81       -0.2456
      4  C2        13.1300   46.4690    0.8460 C.3     1  0H81        0.1237
      5  C3        14.2600   45.7300    1.5950 C.3     1  0H81        0.0986
      6  C4        13.7250   45.0550    2.8370 C.2     1  0H81        0.2423
      7  O4        13.9750   45.5310    3.9460 O.2     1  0H81       -0.2733
      8  N         12.7190   44.2130    2.6300 N.am    1  0H81       -0.1978
      9  CA        11.9460   43.6720    3.7310 C.3     1  0H81        0.1712
     10  C         12.5420   42.3340    4.1640 C.2     1  0H81        0.2458
     11  O         13.2990   41.7210    3.4140 O.2     1  0H81       -0.2730
     12  CB        10.4410   43.5180    3.3510 C.3     1  0H81        0.0289
     13  CG1       10.2460   42.4490    2.3020 C.3     1  0H81        0.0023
     14  CG2        9.6150   43.1970    4.5780 C.3     1  0H81        0.0023
     15  N1        13.1580   41.9130    5.2840 N.am    1  0H81       -0.2716
     16  CA1       13.6100   40.5850    5.7190 C.3     1  0H81        0.1536
     17  C5        12.6530   39.4710    5.3050 C.2     1  0H81        0.2599
     18  O3        11.4470   39.6610    5.2910 O.2     1  0H81       -0.2715
     19  CB1       13.7200   40.7400    7.2440 C.3     1  0H81        0.0310
     20  CG        12.7560   41.7970    7.5680 C.3     1  0H81        0.0237
     21  CD        12.9410   42.7890    6.4460 C.3     1  0H81        0.0939
     22  N2        13.2020   38.3340    4.8940 N.am    1  0H81       -0.1964
     23  CA2       12.5550   37.5380    4.6130 C.3     1  0H81        0.1694
     24  P         12.5310   36.1940    5.8460 P.3     1  0H81        0.2751
     25  O1P       11.8460   36.8130    7.0970 O.3     1  0H81       -0.1727
     26  O2P       11.4240   35.1090    5.5490 O.3     1  0H81       -0.1727
     27  CB2       13.0180   36.8570    3.3200 C.3     1  0H81        0.0311
     28  CG3       12.8360   37.7920    2.1670 C.3     1  0H81        0.0038
     29  CD1       13.3940   37.1410    0.8860 C.3     1  0H81        0.0206
     30  CE        13.2590   38.1770   -0.1950 C.3     1  0H81        0.1093
     31  NZ        13.8550   37.7330   -1.4260 N.3     1  0H81       -0.1314
@<TRIPOS>BOND
     1    31    30    1
     2     2     1   ar
     3     3     1   ar
     4     1     4    1
     5    30    29    1
     6     4     5    1
     7    29    28    1
     8     5     6    1
     9    28    27    1
    10    13    12    1
    11     8     6   am
    12     8     9    1
    13     6     7    2
    14    27    23    1
    15    12     9    1
    16    12    14    1
    17    11    10    2
    18     9    10    1
    19    10    15   am
    20    23    22    1
    21    23    24    1
    22    22    17   am
    23    15    16    1
    24    15    21    1
    25    18    17    2
    26    17    16    1
    27    26    24    1
    28    16    19    1
    29    24    25    1
    30    21    20    1
    31    19    20    1
