@<TRIPOS>MOLECULE
1aua_BOG_A_1.pdb
 20 20 0 0 0
SMALL
GASTEIGER

@<TRIPOS>ATOM
      1  C1        12.3070   28.0660   12.8230 C.3     1  BOG1        0.3219
      2  O1        13.1350   29.1480   12.3620 O.2     1  BOG1       -0.4477
      3  C2        11.3680   28.6660   13.8320 C.3     1  BOG1        0.2542
      4  O2        12.0490   28.7080   15.0730 O.3     1  BOG1       -0.2135
      5  C3        10.0660   27.9200   14.0670 C.3     1  BOG1        0.2211
      6  O3         9.0360   28.8560   14.3670 O.3     1  BOG1       -0.2173
      7  C4         9.5700   27.0040   12.9490 C.3     1  BOG1        0.2145
      8  O4         8.9000   25.9170   13.5910 O.3     1  BOG1       -0.2176
      9  C5        10.7020   26.4580   12.0860 C.3     1  BOG1        0.1846
     10  O5        11.5900   27.5260   11.6890 O.3     1  BOG1       -0.3157
     11  C6        10.2570   25.7860   10.7810 C.3     1  BOG1        0.2142
     12  O6        10.6580   24.4170   10.7170 O.3     1  BOG1       -0.2176
     13  C1'       12.5220   29.8490   11.2840 C.2     1  BOG1        0.1706
     14  C2'       13.3050   30.8880   10.4660 C.2     1  BOG1        0.0139
     15  C3'       14.8010   30.9400   10.6570 C.3     1  BOG1        0.0293
     16  C4'       15.2470   32.3650   11.0020 C.3     1  BOG1        0.0048
     17  C5'       14.5580   33.3810   10.0490 C.3     1  BOG1        0.0003
     18  C6'       15.0680   33.2150    8.6220 C.3     1  BOG1        0.0000
     19  C7'       16.4350   33.8490    8.4300 C.3     1  BOG1        0.0000
     20  C8'       16.4080   35.3560    8.6430 C.3     1  BOG1        0.0000
@<TRIPOS>BOND
     1    19    18    1
     2    19    20    1
     3    18    17    1
     4    17    16    1
     5    14    15    1
     6    14    13    2
     7    15    16    1
     8    12    11    1
     9    11     9    1
    10    13     2    1
    11    10     9    1
    12    10     1    1
    13     9     7    1
    14     2     1    1
    15     1     3    1
    16     7     8    1
    17     7     5    1
    18     3     5    1
    19     3     4    1
    20     5     6    1
