@<TRIPOS>MOLECULE
1auj_PPB_A_1.pdb
 32 34 0 0 0
SMALL
GASTEIGER

@<TRIPOS>ATOM
      1  C3        28.6880   14.3440   20.0590 C.3   247  PPB247      0.0000
      2  C4        29.1300   14.0320   18.6180 C.ar  247  PPB247      0.0000
      3  N1        27.2160   12.4430   20.3260 N.am  247  PPB247      0.0000
      4  B1        28.0180   13.4880   22.3260 B     247  PPB247      0.0000
      5  C2        28.3640   13.1170   20.9210 C.3   247  PPB247      0.0000
      6  O2        29.2650   13.8500   23.0040 O.3   247  PPB247      0.0000
      7  O1        27.6790   12.2590   23.0420 O.3   247  PPB247      0.0000
      8  N5        26.0270    9.6570   18.5570 N.am  247  PPB247      0.0000
      9  C7        25.8610   10.7940   19.4520 C.3   247  PPB247      0.0000
     10  C8        27.2000   11.1590   19.9930 C.2   247  PPB247      0.0000
     11  O3        28.0680   10.3070   20.2210 O.2   247  PPB247      0.0000
     12  C9        25.0540   10.2360   20.6240 C.3   247  PPB247      0.0000
     13  C10       25.0430    8.7110   20.5270 C.3   247  PPB247      0.0000
     14  C11       25.7170    8.3720   19.1850 C.3   247  PPB247      0.0000
     15  C12       26.4300    9.9050   17.2980 C.2   247  PPB247      0.0000
     16  O4        27.0020   10.9550   16.9850 O.2   247  PPB247      0.0000
     17  C14       26.5040    8.6560   16.4010 C.3   247  PPB247      0.0000
     18  C16       29.5980   12.7750   18.1930 C.ar  247  PPB247      0.0000
     19  C23       30.0980   12.6310   16.8910 C.ar  247  PPB247      0.0000
     20  C24       29.1550   15.1160   17.7090 C.ar  247  PPB247      0.0000
     21  C25       29.6740   14.9770   16.4010 C.ar  247  PPB247      0.0000
     22  C5        30.1480   13.7240   16.0140 C.ar  247  PPB247      0.0000
     23  C6        30.5410   11.2930   16.3440 C.1   247  PPB247      0.0000
     24  N2        30.9000   10.2400   15.8950 N.1   247  PPB247      0.0000
     25  C13       25.5050    8.5870   15.2370 C.3   247  PPB247      0.0000
     26  N6        27.8600    8.5570   15.8690 N.3   247  PPB247      0.0000
     27  C17       22.2720    6.9720   16.7130 C.ar  247  PPB247      0.0000
     28  C18       21.3000    7.4800   15.8130 C.ar  247  PPB247      0.0000
     29  C19       21.6470    8.3910   14.8060 C.ar  247  PPB247      0.0000
     30  C20       23.0060    8.7860   14.7030 C.ar  247  PPB247      0.0000
     31  C21       24.0220    8.2850   15.5680 C.ar  247  PPB247      0.0000
     32  C22       23.6260    7.3790   16.5930 C.ar  247  PPB247      0.0000
@<TRIPOS>BOND
     1    30    29   ar
     2    30    31   ar
     3    29    28   ar
     4    25    31    1
     5    25    17    1
     6    31    32   ar
     7    28    27   ar
     8    26    17    1
     9    24    23    3
    10    22    21   ar
    11    22    19   ar
    12    23    19    1
    13    21    20   ar
    14    17    15    1
    15    32    27   ar
    16    19    18   ar
    17    16    15    2
    18    15     8   am
    19    20     2   ar
    20    18     2   ar
    21     8    14    1
    22     8     9    1
    23     2     1    1
    24    14    13    1
    25     9    10    1
    26     9    12    1
    27    10    11    2
    28    10     3   am
    29     1     5    1
    30     3     5    1
    31    13    12    1
    32     5     4    1
    33     4     6    1
    34     4     7    1
