@<TRIPOS>MOLECULE
1aur_PMS_A_1.pdb
 10 10 0 0 0
SMALL
GASTEIGER

@<TRIPOS>ATOM
      1  C         46.7930   23.8710   62.4350 C.3   801  PMS801      0.1742
      2  C1        47.4400   25.1870   62.7400 C.ar  801  PMS801      0.0010
      3  C2        48.6990   25.4850   62.2100 C.ar  801  PMS801     -0.0026
      4  C3        49.4060   26.6110   62.6290 C.ar  801  PMS801     -0.0003
      5  C4        48.8510   27.4600   63.6020 C.ar  801  PMS801     -0.0000
      6  C5        47.5810   27.1830   64.1280 C.ar  801  PMS801     -0.0003
      7  C6        46.8820   26.0480   63.6910 C.ar  801  PMS801     -0.0026
      8  S         45.8120   23.1890   63.7750 S.3   801  PMS801     -0.0138
      9  O1S       46.6820   22.5930   65.1010 O.3   801  PMS801     -0.0778
     10  O2S       44.4730   24.0280   64.7430 O.3   801  PMS801     -0.0778
@<TRIPOS>BOND
     1     3     4   ar
     2     3     2   ar
     3     1     2    1
     4     1     8    1
     5     4     5   ar
     6     2     7   ar
     7     5     6   ar
     8     7     6   ar
     9     8    10    1
    10     8     9    1
