@<TRIPOS>MOLECULE
1aux_AGS_A_1.pdb
 31 33 0 0 0
SMALL
GASTEIGER

@<TRIPOS>ATOM
      1  PG        21.1730   31.0120   21.8090 P.3   800  AGS800      0.4340
      2  S1G       21.2460   30.2540   23.6130 S.3   800  AGS800      0.0416
      3  O2G       19.7600   31.5930   21.4800 O.2   800  AGS800     -0.2423
      4  O3G       22.1810   32.1090   21.6650 O.3   800  AGS800     -0.1305
      5  PB        21.7870   29.7030   19.2010 P.3   800  AGS800      0.2262
      6  O1B       20.8580   28.6810   18.6000 O.2   800  AGS800     -0.5168
      7  O2B       21.7580   31.1040   18.6660 O.3   800  AGS800     -0.4369
      8  O3B       21.5920   29.8050   20.7710 O.3   800  AGS800     -0.2405
      9  PA        24.6530   29.4550   19.9310 P.3   800  AGS800      0.2189
     10  O1A       25.7880   29.2770   18.9560 O.2   800  AGS800     -0.5170
     11  O2A       24.5930   30.8130   20.5850 O.3   800  AGS800     -0.4371
     12  O3A       23.2890   29.1760   19.0890 O.3   800  AGS800     -0.2701
     13  O5'       24.5970   28.2190   20.9930 O.3   800  AGS800     -0.3112
     14  C5'       23.9190   28.5200   22.2410 C.3   800  AGS800      0.1813
     15  C4'       24.8550   28.5200   23.4590 C.3   800  AGS800      0.1821
     16  O4'       25.7700   27.3750   23.3670 O.3   800  AGS800     -0.3135
     17  C3'       25.7950   29.7230   23.6300 C.3   800  AGS800      0.2184
     18  O3'       25.1640   30.8570   24.2340 O.3   800  AGS800     -0.2174
     19  C2'       26.9890   29.1170   24.4190 C.3   800  AGS800      0.2570
     20  O2'       26.9010   29.2060   25.8320 O.3   800  AGS800     -0.2130
     21  C1'       27.0600   27.6830   23.9430 C.3   800  AGS800      0.3186
     22  N9        28.1380   27.4120   22.9130 N.pl3 800  AGS800     -0.1439
     23  C8        27.9870   27.7970   21.6020 C.3   800  AGS800      0.3377
     24  N7        29.0200   27.5120   20.8030 N.2   800  AGS800     -0.2095
     25  C5        29.9340   26.9210   21.6450 C.2   800  AGS800      0.2526
     26  C6        31.2570   26.3980   21.4340 C.2   800  AGS800      0.4393
     27  N6        31.9050   26.4030   20.2440 N.pl3 800  AGS800      0.2180
     28  N1        31.8820   25.8680   22.5120 N.2   800  AGS800      0.0021
     29  C2        31.2460   25.8490   23.7150 C.3   800  AGS800      0.5254
     30  N3        30.0230   26.3120   24.0370 N.2   800  AGS800     -0.0055
     31  C4        29.4070   26.8570   22.9580 C.2   800  AGS800      0.3518
@<TRIPOS>BOND
     1     6     5    2
     2     7     5    1
     3    10     9    2
     4    12     5    1
     5    12     9    1
     6     5     8    1
     7     9    11    1
     8     9    13    1
     9    27    26    1
    10     8     1    1
    11    24    23    1
    12    24    25    2
    13    13    14    1
    14    26    25    1
    15    26    28    2
    16     3     1    2
    17    23    22    1
    18    25    31    1
    19     4     1    1
    20     1     2    1
    21    14    15    1
    22    28    29    1
    23    22    31    1
    24    22    21    1
    25    31    30    2
    26    16    15    1
    27    16    21    1
    28    15    17    1
    29    17    18    1
    30    17    19    1
    31    29    30    1
    32    21    19    1
    33    19    20    1
