@<TRIPOS>MOLECULE
1av5_AP2_B_1.pdb
 27 29 0 0 0
SMALL
GASTEIGER

@<TRIPOS>ATOM
      1  PB        43.1740   31.4630   48.4440 P.3   200  AP2200      0.1295
      2  O1B       43.2690   30.2570   47.5500 O.2   200  AP2200     -0.4595
      3  O2B       43.6890   32.6540   47.7740 O.3   200  AP2200     -0.3567
      4  O3B       43.7450   31.3520   49.8350 O.3   200  AP2200     -0.3567
      5  C3A       41.4430   31.6520   48.6240 C.3   200  AP2200      0.1765
      6  PA        40.5450   32.7470   49.4260 P.3   200  AP2200      0.3770
      7  O1A       40.9980   34.1470   49.3360 O.3   200  AP2200     -0.1394
      8  O2A       39.1330   32.8300   48.9870 O.2   200  AP2200     -0.2550
      9  O5'       40.5960   32.3500   50.9780 O.3   200  AP2200     -0.2897
     10  C5'       41.9190   32.2050   51.5710 C.3   200  AP2200      0.1836
     11  C4'       41.9770   32.4500   53.1140 C.3   200  AP2200      0.1822
     12  O4'       41.3110   31.4420   53.9400 O.3   200  AP2200     -0.3135
     13  C3'       43.4730   32.2490   53.3890 C.3   200  AP2200      0.2184
     14  O3'       44.0750   33.4740   53.8140 O.3   200  AP2200     -0.2174
     15  C2'       43.5500   31.1130   54.5380 C.3   200  AP2200      0.2570
     16  O2'       44.5590   31.0820   55.5820 O.3   200  AP2200     -0.2130
     17  C1'       42.1850   31.3460   55.1400 C.3   200  AP2200      0.3186
     18  N9        41.6060   30.3000   56.0530 N.pl3 200  AP2200     -0.1439
     19  C8        41.4880   28.9480   55.7870 C.3   200  AP2200      0.3377
     20  N7        41.2910   28.1750   56.8400 N.2   200  AP2200     -0.2095
     21  C5        41.2800   29.1130   57.9010 C.2   200  AP2200      0.2526
     22  C6        41.1010   28.9550   59.3660 C.2   200  AP2200      0.4393
     23  N6        40.9090   27.7330   59.9170 N.pl3 200  AP2200      0.2180
     24  N1        41.1520   30.1130   60.0730 N.2   200  AP2200      0.0021
     25  C2        41.3440   31.3390   59.5320 C.3   200  AP2200      0.5254
     26  N3        41.5140   31.5680   58.2110 N.2   200  AP2200     -0.0055
     27  C4        41.4700   30.4040   57.4470 C.2   200  AP2200      0.3518
@<TRIPOS>BOND
     1     2     1    2
     2     3     1    1
     3     1     5    1
     4     1     4    1
     5     5     6    1
     6     8     6    2
     7     7     6    1
     8     6     9    1
     9     9    10    1
    10    10    11    1
    11    11    13    1
    12    11    12    1
    13    13    14    1
    14    13    15    1
    15    12    17    1
    16    15    17    1
    17    15    16    1
    18    17    18    1
    19    19    18    1
    20    19    20    1
    21    18    27    1
    22    20    21    2
    23    27    21    1
    24    27    26    2
    25    21    22    1
    26    26    25    1
    27    22    23    1
    28    22    24    2
    29    25    24    1
