@<TRIPOS>MOLECULE
1av6_SAH_A_1.pdb
 29 31 0 0 0
SMALL
GASTEIGER

@<TRIPOS>ATOM
      1  N         10.5940   49.2810   86.3200 N.3   400  SAH400     -0.2362
      2  CA         9.3600   50.0500   86.2650 C.3   400  SAH400      0.1728
      3  CB         9.4920   51.2030   85.2580 C.3   400  SAH400      0.0403
      4  CG        10.6760   52.1240   85.5680 C.3   400  SAH400      0.0596
      5  SD        10.8560   53.6280   84.5720 S.3   400  SAH400     -0.1375
      6  C          8.1740   49.1520   85.9080 C.2   400  SAH400      0.3800
      7  O          8.2820   47.9420   86.2240 O.co2 400  SAH400     -0.2441
      8  OXT        7.0580   49.6990   85.7830 O.co2 400  SAH400     -0.2441
      9  C5'       12.2250   54.4470   85.3970 C.3   400  SAH400      0.0899
     10  C4'       11.9790   54.6170   86.8670 C.3   400  SAH400      0.1629
     11  O4'       13.2290   54.8590   87.5280 O.3   400  SAH400     -0.3154
     12  C3'       11.0440   55.7740   87.1710 C.3   400  SAH400      0.2132
     13  O3'        9.8130   55.3220   87.8390 O.3   400  SAH400     -0.2176
     14  C2'       11.8980   56.6540   88.0890 C.3   400  SAH400      0.2171
     15  O2'       11.1250   57.2050   89.2000 O.3   400  SAH400     -0.3762
     16  C1'       12.9510   55.7100   88.6180 C.3   400  SAH400      0.3149
     17  N9        14.2160   56.3890   89.0240 N.pl3 400  SAH400     -0.1440
     18  C8        14.8950   57.4460   88.4550 C.3   400  SAH400      0.3377
     19  N7        15.9590   57.7960   89.1140 N.2   400  SAH400     -0.2097
     20  C5        15.9850   56.9180   90.1880 C.2   400  SAH400      0.2476
     21  C6        16.8610   56.7700   91.2600 C.2   400  SAH400      0.3822
     22  N6        17.9750   57.5150   91.4420 N.pl3 400  SAH400     -0.0635
     23  N1        16.5370   55.7720   92.1100 N.2   400  SAH400     -0.0022
     24  C2        15.4890   54.9920   91.9500 C.3   400  SAH400      0.5253
     25  N3        14.6150   55.0390   90.9990 N.2   400  SAH400     -0.0055
     26  C4        14.9300   56.0460   90.1400 C.2   400  SAH400      0.3517
     27  HN1       11.4430   49.6360   86.6230 H     400  SAH400      0.1419
     28 HO2'       10.2260   56.9560   88.9390 H     400  SAH400      0.2107
     29 HN61       18.2220   58.2030   90.7430 H     400  SAH400      0.3483
@<TRIPOS>BOND
     1     5     9    1
     2     5     4    1
     3     3     4    1
     4     3     2    1
     5     9    10    1
     6     8     6   ar
     7     6     7   ar
     8     6     2    1
     9     2     1    1
    10     1    27    1
    11    10    12    1
    12    10    11    1
    13    12    13    1
    14    12    14    1
    15    11    16    1
    16    14    16    1
    17    14    15    1
    18    18    17    1
    19    18    19    1
    20    16    17    1
    21    28    15    1
    22    17    26    1
    23    19    20    2
    24    26    20    1
    25    26    25    2
    26    20    21    1
    27    29    22    1
    28    25    24    1
    29    21    22    1
    30    21    23    2
    31    24    23    1
