@<TRIPOS>MOLECULE
1av6_MGT_B_1.pdb
 36 38 0 0 0
SMALL
GASTEIGER

@<TRIPOS>ATOM
      1  PG        13.9840   53.7820   75.2860 P.3   408  MGT408      0.3991
      2  O1G       15.2050   53.7040   76.1350 O.3   408  MGT408     -0.1422
      3  O2G       13.9670   53.0940   73.9930 O.3   408  MGT408     -0.1422
      4  O3B       13.3790   55.2770   75.0420 O.3   408  MGT408     -0.2510
      5  PB        13.9460   56.8390   74.9520 P.3   408  MGT408      0.2251
      6  O1B       12.7570   57.7060   75.1890 O.2   408  MGT408     -0.5168
      7  O2B       15.1280   56.9830   75.8420 O.3   408  MGT408     -0.4369
      8  O3A       14.4720   57.1800   73.5050 O.3   408  MGT408     -0.2701
      9  PA        13.6750   57.0140   72.0730 P.3   408  MGT408      0.2189
     10  O1A       14.2620   55.8840   71.3190 O.2   408  MGT408     -0.5170
     11  O2A       12.2290   57.1600   72.1310 O.3   408  MGT408     -0.4371
     12  O5'       14.3080   58.3660   71.4550 O.3   408  MGT408     -0.3112
     13  C5'       13.8640   59.7140   71.6860 C.3   408  MGT408      0.1813
     14  C4'       14.0400   60.5670   70.4220 C.3   408  MGT408      0.1798
     15  O4'       15.4120   60.4310   69.8980 O.3   408  MGT408     -0.3327
     16  C3'       13.0230   60.1310   69.3090 C.3   408  MGT408      0.2122
     17  O3'       11.7750   60.8510   69.1980 O.3   408  MGT408     -0.2177
     18  C2'       13.7570   60.6210   68.1250 C.3   408  MGT408      0.1903
     19  O2'       13.5500   62.0680   68.0570 O.3   408  MGT408     -0.3780
     20  C1'       15.2290   60.2460   68.5090 C.3   408  MGT408      0.2250
     21  N9        15.6530   58.8210   68.2450 N.pl3 408  MGT408     -0.2467
     22  C8        15.0650   57.5980   68.5650 C.3   408  MGT408      0.1730
     23  N7        15.7610   56.5680   68.1910 N.3   408  MGT408     -0.2411
     24  CM7       15.4810   55.1720   68.3270 C.3   408  MGT408      0.0918
     25  C5        16.8950   57.1110   67.5750 C.3   408  MGT408      0.2040
     26  C6        18.0460   56.4960   66.9730 C.2   408  MGT408      0.2517
     27  O6        18.4090   55.3350   66.8280 O.2   408  MGT408     -0.2727
     28  N1        18.9290   57.4170   66.5170 N.am  408  MGT408     -0.2461
     29  C2        18.7620   58.7580   66.6060 C.2   408  MGT408      0.2388
     30  N2        19.7390   59.4870   66.1650 N.pl3 408  MGT408     -0.3207
     31  N3        17.7170   59.3580   67.1450 N.2   408  MGT408     -0.3609
     32  C4        16.8250   58.4780   67.6120 C.2   408  MGT408      0.1893
     33 HO2'       12.6440   62.2150   68.3280 H     408  MGT408      0.2106
     34  HN1       19.7670   57.0100   66.1160 H     408  MGT408      0.1585
     35 HN21       20.5610   59.1110   65.7240 H     408  MGT408      0.1459
     36 HN22       19.6480   60.4880   66.2930 H     408  MGT408      0.1459
@<TRIPOS>BOND
     1    35    30    1
     2    34    28    1
     3    30    36    1
     4    30    29    1
     5    28    29    1
     6    28    26   am
     7    29    31    2
     8    27    26    2
     9    26    25    1
    10    31    32    2
    11    25    32    1
    12    25    23    1
    13    32    21    1
    14    19    18    1
    15    19    33    1
    16    18    20    1
    17    18    16    1
    18    23    24    1
    19    23    22    1
    20    21    20    1
    21    21    22    1
    22    20    15    1
    23    17    16    1
    24    16    14    1
    25    15    14    1
    26    14    13    1
    27    10     9    2
    28    12    13    1
    29    12     9    1
    30     9    11    1
    31     9     8    1
    32     8     5    1
    33     3     1    1
    34     5     4    1
    35     5     6    2
    36     5     7    1
    37     4     1    1
    38     1     2    1
