@<TRIPOS>MOLECULE
1avd_BTN_A_1.pdb
 16 17 0 0 0
SMALL
GASTEIGER

@<TRIPOS>ATOM
      1  C11       33.3470    7.5510   14.5800 C.2   400  BTN400      0.3649
      2  O11       32.4630    6.7800   14.3090 O.co2 400  BTN400     -0.2457
      3  O12       34.6310    7.3580   14.2570 O.co2 400  BTN400     -0.2457
      4  C10       33.0640    8.8120   15.3570 C.3   400  BTN400      0.1141
      5  C9        34.3370    9.2700   16.1400 C.3   400  BTN400      0.0118
      6  C8        34.1000   10.3970   17.1550 C.3   400  BTN400      0.0015
      7  C7        35.4080   11.0180   17.7030 C.3   400  BTN400      0.0129
      8  C2        36.0120   10.2850   18.9330 C.3   400  BTN400      0.0729
      9  S1        35.0490   10.3590   20.4690 S.3   400  BTN400     -0.1369
     10  C6        36.5110    9.7330   21.3280 C.3   400  BTN400      0.0848
     11  C5        37.5950   10.6450   20.7660 C.3   400  BTN400      0.1509
     12  N1        37.4320   11.9640   21.3400 N.2   400  BTN400     -0.1859
     13  C3        37.0050   12.8970   20.5100 C.1   400  BTN400      0.2386
     14  O3        36.7480   14.0660   20.8030 O.2   400  BTN400     -0.2023
     15  N2        36.9170   12.3440   19.2800 N.2   400  BTN400     -0.1860
     16  C4        37.3380   10.9370   19.2710 C.3   400  BTN400      0.1500
@<TRIPOS>BOND
     1     3     1   ar
     2     2     1   ar
     3     1     4    1
     4     4     5    1
     5     5     6    1
     6     6     7    1
     7     7     8    1
     8     8    16    1
     9     8     9    1
    10    16    15    1
    11    16    11    1
    12    15    13    2
    13     9    10    1
    14    13    14    2
    15    13    12    2
    16    11    10    1
    17    11    12    1
