@<TRIPOS>MOLECULE
1awb_IPD_A_1.pdb
 16 16 0 0 0
SMALL
GASTEIGER

@<TRIPOS>ATOM
      1  C1         5.2690   52.5610   12.7990 C.3   281  IPD281      0.1919
      2  C2         4.9960   53.0560   14.2250 C.3   281  IPD281      0.2148
      3  C3         4.4050   51.8890   15.0410 C.3   281  IPD281      0.2174
      4  C4         5.4130   50.7280   15.1300 C.3   281  IPD281      0.2175
      5  C5         5.7510   50.2250   13.7150 C.3   281  IPD281      0.2174
      6  C6         6.2800   51.4050   12.8760 C.3   281  IPD281      0.2148
      7  P1         5.2420   54.2630   10.7520 P.3   281  IPD281      0.5327
      8  O1         5.8640   53.6750   12.0630 O.3   281  IPD281     -0.2673
      9  O2         6.2300   53.5330   14.8220 O.3   281  IPD281     -0.2176
     10  O3         4.1110   52.3480   16.3580 O.3   281  IPD281     -0.2175
     11  O4         4.8690   49.6450   15.9120 O.3   281  IPD281     -0.2175
     12  O5         6.7800   49.2130   13.8260 O.3   281  IPD281     -0.2175
     13  O6         6.5770   50.9680   11.5540 O.3   281  IPD281     -0.2176
     14  O7         6.1190   55.3180   10.2380 O.3   281  IPD281     -0.1145
     15  O8         5.0350   53.1420    9.7990 O.2   281  IPD281     -0.2224
     16  O9         3.8770   54.7370   11.1080 O.3   281  IPD281     -0.1145
@<TRIPOS>BOND
     1    15     7    2
     2    14     7    1
     3     7    16    1
     4     7     8    1
     5    13     6    1
     6     8     1    1
     7     1     6    1
     8     1     2    1
     9     6     5    1
    10     5    12    1
    11     5     4    1
    12     2     9    1
    13     2     3    1
    14     3     4    1
    15     3    10    1
    16     4    11    1
