@<TRIPOS>MOLECULE
1awh_GR3_B_1.pdb
 39 42 0 0 0
SMALL
GASTEIGER

@<TRIPOS>ATOM
      1  C1        -3.4650   26.5370   72.7010 C.3     1  GR31        0.0040
      2  C2        -3.7450   27.3450   71.4460 C.3     1  GR31        0.0442
      3  C3        -2.7480   26.9620   70.3750 C.3     1  GR31        0.1788
      4  C4        -2.7420   25.4930   70.0210 C.3     1  GR31        0.1307
      5  C5        -2.7060   24.6080   71.2750 C.3     1  GR31        0.0182
      6  C6        -2.8180   23.1050   70.9400 C.3     1  GR31        0.0260
      7  C7        -2.9370   22.2620   72.1700 C.2     1  GR31       -0.0346
      8  C8        -3.0770   22.7760   73.4040 C.2     1  GR31       -0.0493
      9  C9        -3.0310   24.2700   73.6490 C.3     1  GR31        0.0180
     10  C10       -3.5930   25.0320   72.4420 C.3     1  GR31        0.0045
     11  C11       -3.6450   24.6770   74.9530 C.3     1  GR31        0.0040
     12  C12       -3.1720   23.8300   76.1360 C.3     1  GR31        0.0007
     13  C13       -2.4710   22.4990   75.7870 C.3     1  GR31        0.0060
     14  C14       -3.2310   21.8910   74.6060 C.3     1  GR31        0.0174
     15  C15       -2.6900   20.4560   74.5110 C.3     1  GR31        0.0366
     16  C16       -2.2890   20.0820   75.9280 C.3     1  GR31        0.1527
     17  C17       -2.5910   21.3260   76.8020 C.3     1  GR31        0.0385
     18  C18       -0.9590   22.7230   75.5490 C.3     1  GR31        0.0004
     19  C19       -5.0510   24.6430   72.1330 C.3     1  GR31        0.0003
     20  C22       -2.2520   22.5820   78.9820 C.3     1  GR31        0.0770
     21  C23       -1.1610   23.4890   79.4230 C.2     1  GR31        0.1729
     22  C24       -1.5490   24.5970   80.3230 C.2     1  GR31        0.0290
     23  C25       -0.8490   25.7180   80.5430 C.2     1  GR31       -0.0408
     24  C26       -1.3720   26.7090   81.5360 C.3     1  GR31        0.0265
     25  C27        0.4130   26.1210   79.8130 C.3     1  GR31        0.0265
     26  C28       -4.7600   21.7740   74.8000 C.3     1  GR31        0.0041
     27  C29       -1.4820   25.1050   69.2060 C.2     1  GR31        0.3672
     28  C30       -3.9480   25.2210   69.0880 C.3     1  GR31        0.0149
     29  O31       -0.3710   25.0650   69.6420 O.co2   1  GR31       -0.2456
     30  O32       -3.0590   18.9560   76.3030 O.3     1  GR31       -0.2231
     31  O33       -0.8360   19.8870   79.7180 O.2     1  GR31       -0.2883
     32  O34       -1.6470   24.7650   68.0620 O.co2   1  GR31       -0.2456
     33  O35       -0.0370   23.3760   78.9710 O.2     1  GR31       -0.2913
     34  O36       -1.4710   27.2930   70.9280 O.3     1  GR31       -0.4517
     35  C37       -0.4910   27.9080   70.2160 C.2     1  GR31        0.3175
     36  C38       -1.0600   28.8360   69.1300 C.3     1  GR31        0.1212
     37  O39        0.6930   27.9450   70.4820 O.2     1  GR31       -0.2501
     38  C20       -1.7590   21.4140   78.1080 C.3     1  GR31        0.0750
     39  C21       -1.8330   20.2970   79.1460 C.2     1  GR31        0.2075
@<TRIPOS>BOND
     1    32    27   ar
     2    28     4    1
     3    36    35    1
     4    27    29   ar
     5    27     4    1
     6     4     3    1
     7     4     5    1
     8    35    37    2
     9    35    34    1
    10     3    34    1
    11     3     2    1
    12     6     5    1
    13     6     7    1
    14     5    10    1
    15     2     1    1
    16    19    10    1
    17     7     8    2
    18    10     1    1
    19    10     9    1
    20     8     9    1
    21     8    14    1
    22     9    11    1
    23    15    14    1
    24    15    16    1
    25    14    26    1
    26    14    13    1
    27    11    12    1
    28    18    13    1
    29    13    12    1
    30    13    17    1
    31    16    30    1
    32    16    17    1
    33    17    38    1
    34    38    20    1
    35    38    39    1
    36    33    21    2
    37    20    21    1
    38    39    31    2
    39    21    22    1
    40    25    23    1
    41    22    23    2
    42    23    24    1
