@<TRIPOS>MOLECULE
1awp_HEM_A_1.pdb
 43 50 0 0 0
SMALL
GASTEIGER

@<TRIPOS>ATOM
      1 FE         36.1750   35.1270   64.8280 Fe    201  HEM201      0.0000
      2  CHA       37.0140   38.3040   64.1270 C.2   201  HEM201      0.0000
      3  CHB       37.1510   34.1400   61.7060 C.2   201  HEM201      0.0000
      4  CHC       35.2850   31.8950   65.5300 C.2   201  HEM201      0.0000
      5  CHD       35.2270   36.0230   67.9610 C.2   201  HEM201      0.0000
      6  NA        36.9350   36.0580   63.2040 N.ar  201  HEM201      0.0000
      7  C1A       37.2060   37.3890   63.1110 C.ar  201  HEM201      0.0000
      8  C2A       37.7140   37.6720   61.7730 C.ar  201  HEM201      0.0000
      9  C3A       37.7620   36.5140   61.1050 C.ar  201  HEM201      0.0000
     10  C4A       37.2750   35.4750   61.9880 C.ar  201  HEM201      0.0000
     11  CMA       38.2310   36.2840   59.6590 C.3   201  HEM201      0.0000
     12  CAA       38.1040   39.0790   61.2680 C.3   201  HEM201      0.0000
     13  CBA       36.8470   39.9280   60.9010 C.3   201  HEM201      0.0000
     14  CGA       35.7720   39.2360   60.0180 C.2   201  HEM201      0.0000
     15  O1A       36.1960   38.7570   58.9080 O.co2 201  HEM201      0.0000
     16  O2A       34.6020   39.1800   60.4190 O.co2 201  HEM201      0.0000
     17  NB        36.2200   33.3610   63.8310 N.2   201  HEM201      0.0000
     18  C1B       36.6740   33.1660   62.5290 C.2   201  HEM201      0.0000
     19  C2B       36.5570   31.7540   62.1670 C.2   201  HEM201      0.0000
     20  C3B       36.0250   31.1210   63.2370 C.2   201  HEM201      0.0000
     21  C4B       35.8160   32.1170   64.2720 C.2   201  HEM201      0.0000
     22  CMB       36.9580   31.1450   60.8130 C.3   201  HEM201      0.0000
     23  CAB       35.6790   29.6240   63.3880 C.3   201  HEM201      0.0000
     24  CBB       36.6550   28.8230   64.2630 C.3   201  HEM201      0.0000
     25  NC        35.3990   34.1700   66.4250 N.ar  201  HEM201      0.0000
     26  C1C       35.0960   32.8300   66.5180 C.ar  201  HEM201      0.0000
     27  C2C       34.5440   32.5140   67.8460 C.ar  201  HEM201      0.0000
     28  C3C       34.5290   33.6550   68.5390 C.ar  201  HEM201      0.0000
     29  C4C       35.0610   34.6980   67.6570 C.ar  201  HEM201      0.0000
     30  CMC       34.0930   31.0940   68.2880 C.3   201  HEM201      0.0000
     31  CAC       34.0660   33.8950   69.9960 C.3   201  HEM201      0.0000
     32  CBC       32.7230   34.6000   70.1610 C.3   201  HEM201      0.0000
     33  ND        36.1370   36.8110   65.8360 N.2   201  HEM201      0.0000
     34  C1D       35.7090   37.0140   67.1540 C.2   201  HEM201      0.0000
     35  C2D       35.8620   38.4040   67.5210 C.2   201  HEM201      0.0000
     36  C3D       36.3590   39.0500   66.4430 C.2   201  HEM201      0.0000
     37  C4D       36.5290   38.0590   65.3970 C.2   201  HEM201      0.0000
     38  CMD       35.5030   38.9960   68.9040 C.3   201  HEM201      0.0000
     39  CAD       36.6790   40.5400   66.3470 C.3   201  HEM201      0.0000
     40  CBD       35.4820   41.2850   65.6990 C.3   201  HEM201      0.0000
     41  CGD       35.7410   42.7460   65.5820 C.2   201  HEM201      0.0000
     42  O1D       36.8540   43.1510   65.1860 O.co2 201  HEM201      0.0000
     43  O2D       34.7770   43.4670   65.9020 O.co2 201  HEM201      0.0000
@<TRIPOS>BOND
     1    15    14   ar
     2    11     9    1
     3    14    16   ar
     4    14    13    1
     5    22    19    1
     6    13    12    1
     7     9     8   ar
     8     9    10   ar
     9    12     8    1
    10     3    10    2
    11     3    18    1
    12     8     7   ar
    13    10     6   ar
    14    19    18    1
    15    19    20    2
    16    18    17    2
    17     7     6   ar
    18     7     2    2
    19     6     1    1
    20    20    23    1
    21    20    21    1
    22    23    24    1
    23    17    21    1
    24    17     1    1
    25     2    37    1
    26    21     4    2
    27     1    33    1
    28     1    25    1
    29    42    41   ar
    30    37    33    2
    31    37    36    1
    32     4    26    1
    33    41    40    1
    34    41    43   ar
    35    40    39    1
    36    33    34    1
    37    39    36    1
    38    25    26   ar
    39    25    29   ar
    40    36    35    2
    41    26    27   ar
    42    34    35    1
    43    34     5    2
    44    35    38    1
    45    29     5    1
    46    29    28   ar
    47    27    30    1
    48    27    28   ar
    49    28    31    1
    50    31    32    1
