@<TRIPOS>MOLECULE
1awq_III_B_1.pdb
 40 41 0 0 0
SMALL
GASTEIGER

@<TRIPOS>ATOM
      1  N         49.2420   20.4800  -15.3650 N.3     1  HIS1       -0.1227
      2  CA        50.2860   21.0220  -14.4480 C.3     1  HIS1        0.1749
      3  C         49.9150   22.4120  -13.8910 C.2     1  HIS1        0.2596
      4  O         49.6400   23.3560  -14.6390 O.2     1  HIS1       -0.2718
      5  CB        51.6400   21.0520  -15.1660 C.3     1  HIS1        0.0718
      6  CG        52.7260   20.2680  -14.4820 C.2     1  HIS1        0.0650
      7  ND1       53.5390   20.8120  -13.5060 N.2     1  HIS1       -0.2310
      8  CD2       53.1780   19.0060  -14.6830 C.3     1  HIS1        0.1683
      9  CE1       54.4460   19.9210  -13.1440 C.2     1  HIS1        0.1939
     10  NE2       54.2490   18.8150  -13.8420 N.2     1  HIS1       -0.2440
     11  N         49.9020   22.5180  -12.5650 N.am    2  ALA2       -0.1966
     12  CA        49.5520   23.7500  -11.8670 C.3     2  ALA2        0.1728
     13  C         50.7490   24.6020  -11.4370 C.2     2  ALA2        0.2617
     14  O         51.8930   24.1310  -11.3860 O.2     2  ALA2       -0.2715
     15  CB        48.6910   23.4170  -10.6570 C.3     2  ALA2        0.0334
     16  N         50.4640   25.8690  -11.1520 N.am    3  GLY3       -0.1941
     17  CA        51.4850   26.7940  -10.7000 C.3     3  GLY3        0.1998
     18  C         51.5630   28.1440  -11.3960 C.2     3  GLY3        0.2481
     19  O         51.3340   28.2630  -12.6120 O.2     3  GLY3       -0.2729
     20  N         51.8920   29.1990  -10.6340 N.am    4  PRO4       -0.2715
     21  CA        52.0220   30.5700  -11.1570 C.3     4  PRO4        0.1536
     22  C         53.3580   30.7150  -11.9240 C.2     4  PRO4        0.2598
     23  O         54.2760   29.9170  -11.7270 O.2     4  PRO4       -0.2715
     24  CB        52.0590   31.4000   -9.8660 C.3     4  PRO4        0.0310
     25  CG        52.8360   30.4950   -8.9550 C.3     4  PRO4        0.0237
     26  CD        52.1710   29.1680   -9.1870 C.3     4  PRO4        0.0939
     27  N         53.4580   31.7010  -12.8080 N.am    5  ILE5       -0.1964
     28  CA        54.7120   31.9370  -13.5420 C.3     5  ILE5        0.1727
     29  C         55.0720   33.3870  -13.3590 C.2     5  ILE5        0.2617
     30  O         54.2040   34.2020  -13.0650 O.2     5  ILE5       -0.2715
     31  CB        54.5980   31.6770  -15.0780 C.3     5  ILE5        0.0290
     32  CG1       53.4710   32.5190  -15.6820 C.3     5  ILE5        0.0022
     33  CG2       54.4920   30.1800  -15.3680 C.3     5  ILE5        0.0023
     34  CD1       52.9140   31.9790  -16.9640 C.3     5  ILE5        0.0001
     35  N         56.3300   33.7370  -13.5900 N.am    6  ALA6       -0.1942
     36  CA        56.7270   35.1330  -13.4310 C.3     6  ALA6        0.1979
     37  C         56.4470   35.9760  -14.6760 C.2     6  ALA6        0.3842
     38  O         57.3940   36.2510  -15.4470 O.co2   6  ALA6       -0.2437
     39  CB        58.1790   35.2320  -13.0160 C.3     6  ALA6        0.0356
     40  OXT       55.2730   36.3590  -14.8700 O.co2   6  ALA6       -0.2437
@<TRIPOS>BOND
     1    34    32    1
     2    32    31    1
     3    38    37   ar
     4    33    31    1
     5     1     2    1
     6     5     6    1
     7     5     2    1
     8    31    28    1
     9    40    37   ar
    10     8     6    1
    11     8    10    1
    12    37    36    1
    13     4     3    2
    14     6     7    2
    15     2     3    1
    16     3    11   am
    17    10     9    2
    18    35    36    1
    19    35    29   am
    20    28    29    1
    21    28    27    1
    22     7     9    1
    23    36    39    1
    24    29    30    2
    25    27    22   am
    26    19    18    2
    27    11    12    1
    28    22    23    2
    29    22    21    1
    30    12    13    1
    31    12    15    1
    32    13    14    2
    33    13    16   am
    34    18    17    1
    35    18    20   am
    36    21    20    1
    37    21    24    1
    38    16    17    1
    39    20    26    1
    40    24    25    1
    41    26    25    1
