@<TRIPOS>MOLECULE
1awr_III_G_1.pdb
 40 41 0 0 0
SMALL
GASTEIGER

@<TRIPOS>ATOM
      1  N         13.5360   15.0870  -13.2590 N.3   101  HIS101     -0.1227
      2  CA        14.4240   15.7410  -14.2760 C.3   101  HIS101      0.1749
      3  C         15.0650   16.9190  -13.6100 C.2   101  HIS101      0.2596
      4  O         15.5700   17.8170  -14.3040 O.2   101  HIS101     -0.2718
      5  CB        13.6740   16.1900  -15.5580 C.3   101  HIS101      0.0718
      6  CG        12.5120   17.1010  -15.3150 C.2   101  HIS101      0.0650
      7  ND1       12.1060   17.5180  -14.0610 N.2   101  HIS101     -0.2310
      8  CD2       11.5900   17.6170  -16.1570 C.3   101  HIS101      0.1683
      9  CE1       10.9780   18.2000  -14.1530 C.2   101  HIS101      0.1939
     10  NE2       10.6430   18.2910  -15.4210 N.2   101  HIS101     -0.2440
     11  N         15.1270   16.8870  -12.2860 N.am  102  ALA102     -0.1966
     12  CA        15.7240   17.9950  -11.5450 C.3   102  ALA102      0.1728
     13  C         17.1000   17.8100  -10.8970 C.2   102  ALA102      0.2617
     14  O         17.4990   16.6910  -10.5190 O.2   102  ALA102     -0.2715
     15  CB        14.7380   18.4580  -10.4960 C.3   102  ALA102      0.0334
     16  N         17.8670   18.8990  -10.8820 N.am  103  GLY103     -0.1941
     17  CA        19.1860   18.8360  -10.2880 C.3   103  GLY103      0.1998
     18  C         20.1390   19.7540  -11.0190 C.2   103  GLY103      0.2481
     19  O         19.9110   20.0510  -12.1980 O.2   103  GLY103     -0.2729
     20  N         21.1630   20.2930  -10.3260 N.am  104  PRO104     -0.2715
     21  CA        22.1610   21.1830  -10.9150 C.3   104  PRO104      0.1536
     22  C         23.2480   20.3620  -11.6000 C.2   104  PRO104      0.2598
     23  O         23.5050   19.2000  -11.2340 O.2   104  PRO104     -0.2715
     24  CB        22.7180   21.9000   -9.6920 C.3   104  PRO104      0.0310
     25  CG        22.6930   20.8630   -8.6570 C.3   104  PRO104      0.0237
     26  CD        21.3460   20.2040   -8.8630 C.3   104  PRO104      0.0939
     27  N         23.9120   20.9910  -12.5520 N.am  105  ILE105     -0.1964
     28  CA        24.9980   20.3790  -13.3180 C.3   105  ILE105      0.1727
     29  C         26.2370   21.2680  -13.2930 C.2   105  ILE105      0.2617
     30  O         26.3100   22.2210  -12.5340 O.2   105  ILE105     -0.2715
     31  CB        24.6060   20.1700  -14.8280 C.3   105  ILE105      0.0290
     32  CG1       24.5520   21.5170  -15.5480 C.3   105  ILE105      0.0022
     33  CG2       23.2580   19.4200  -14.9520 C.3   105  ILE105      0.0023
     34  CD1       24.5280   21.4150  -17.0470 C.3   105  ILE105      0.0001
     35  N         27.2090   20.9270  -14.1390 N.am  106  ALA106     -0.1942
     36  CA        28.4590   21.6700  -14.3040 C.3   106  ALA106      0.1979
     37  C         29.4100   21.6560  -13.0990 C.2   106  ALA106      0.3842
     38  O         30.3770   22.4480  -13.0740 O.co2 106  ALA106     -0.2437
     39  CB        28.1580   23.0700  -14.7340 C.3   106  ALA106      0.0356
     40  OXT       29.1830   20.8470  -12.1840 O.co2 106  ALA106     -0.2437
@<TRIPOS>BOND
     1    34    32    1
     2     8    10    1
     3     8     6    1
     4     5     6    1
     5     5     2    1
     6    32    31    1
     7    10     9    2
     8     6     7    2
     9    33    31    1
    10    31    28    1
    11    39    36    1
    12     4     3    2
    13    36    35    1
    14    36    37    1
    15     2     3    1
    16     2     1    1
    17     9     7    1
    18    35    29   am
    19     3    11   am
    20    28    29    1
    21    28    27    1
    22    29    30    2
    23    37    38   ar
    24    37    40   ar
    25    27    22   am
    26    11    12    1
    27    19    18    2
    28    22    23    2
    29    22    21    1
    30    12    13    1
    31    12    15    1
    32    18    20   am
    33    18    17    1
    34    21    20    1
    35    21    24    1
    36    13    16   am
    37    13    14    2
    38    16    17    1
    39    20    26    1
    40    24    25    1
    41    26    25    1
