@<TRIPOS>MOLECULE
1aws_III_B_1.pdb
 40 41 0 0 0
SMALL
GASTEIGER

@<TRIPOS>ATOM
      1  N         50.8020   20.8480  -15.6390 N.3     1  HIS1       -0.1227
      2  CA        51.1980   21.0870  -14.2120 C.3     1  HIS1        0.1749
      3  C         50.5460   22.3800  -13.7130 C.2     1  HIS1        0.2596
      4  O         50.0720   23.2050  -14.5010 O.2     1  HIS1       -0.2718
      5  CB        52.7310   21.2310  -14.0680 C.3     1  HIS1        0.0718
      6  CG        53.5320   20.1420  -14.7240 C.2     1  HIS1        0.0650
      7  ND1       54.7360   19.6970  -14.2130 N.2     1  HIS1       -0.2310
      8  CD2       53.3300   19.4430  -15.8700 C.3     1  HIS1        0.1683
      9  CE1       55.2400   18.7760  -15.0160 C.2     1  HIS1        0.1939
     10  NE2       54.4080   18.6030  -16.0270 N.2     1  HIS1       -0.2440
     11  N         50.5340   22.5590  -12.3970 N.am    2  ALA2       -0.1966
     12  CA        49.9760   23.7570  -11.8290 C.3     2  ALA2        0.1728
     13  C         51.1340   24.6670  -11.4550 C.2     2  ALA2        0.2617
     14  O         52.3050   24.2590  -11.4730 O.2     2  ALA2       -0.2715
     15  CB        49.1570   23.4230  -10.6230 C.3     2  ALA2        0.0334
     16  N         50.8090   25.9240  -11.1910 N.am    3  GLY3       -0.1941
     17  CA        51.8240   26.8630  -10.7860 C.3     3  GLY3        0.1998
     18  C         51.8450   28.1510  -11.5710 C.2     3  GLY3        0.2481
     19  O         51.5330   28.1680  -12.7730 O.2     3  GLY3       -0.2729
     20  N         52.1450   29.2670  -10.8860 N.am    4  PRO4       -0.2715
     21  CA        52.2350   30.6140  -11.4540 C.3     4  PRO4        0.1536
     22  C         53.6020   30.8080  -12.1390 C.2     4  PRO4        0.2598
     23  O         54.5880   30.1020  -11.8060 O.2     4  PRO4       -0.2715
     24  CB        52.1090   31.5010  -10.2130 C.3     4  PRO4        0.0310
     25  CG        52.7880   30.6960   -9.1760 C.3     4  PRO4        0.0237
     26  CD        52.1840   29.3330   -9.4160 C.3     4  PRO4        0.0939
     27  N         53.6680   31.7440  -13.0880 N.am    5  ILE5       -0.1964
     28  CA        54.9180   32.0290  -13.8030 C.3     5  ILE5        0.1727
     29  C         55.3940   33.4210  -13.4820 C.2     5  ILE5        0.2617
     30  O         54.6060   34.2610  -13.0440 O.2     5  ILE5       -0.2715
     31  CB        54.7550   31.8950  -15.3270 C.3     5  ILE5        0.0290
     32  CG1       53.4740   32.6130  -15.7780 C.3     5  ILE5        0.0022
     33  CG2       54.8510   30.4290  -15.7250 C.3     5  ILE5        0.0023
     34  CD1       52.9900   32.2490  -17.1380 C.3     5  ILE5        0.0001
     35  N         56.6810   33.6730  -13.7030 N.am    6  ALA6       -0.1942
     36  CA        57.2600   34.9870  -13.4080 C.3     6  ALA6        0.1979
     37  C         57.2710   35.9510  -14.5890 C.2     6  ALA6        0.3842
     38  O         58.2360   36.7400  -14.6990 O.co2   6  ALA6       -0.2437
     39  CB        58.6620   34.8280  -12.8420 C.3     6  ALA6        0.0356
     40  OXT       56.3030   35.9340  -15.3740 O.co2   6  ALA6       -0.2437
@<TRIPOS>BOND
     1    34    32    1
     2    10     8    1
     3    10     9    2
     4     8     6    1
     5    32    31    1
     6    33    31    1
     7     1     2    1
     8    40    37   ar
     9    31    28    1
    10     9     7    1
    11     6     7    2
    12     6     5    1
    13    38    37   ar
    14    37    36    1
    15     4     3    2
    16     2     5    1
    17     2     3    1
    18    28    29    1
    19    28    27    1
    20     3    11   am
    21    35    29   am
    22    35    36    1
    23    29    30    2
    24    36    39    1
    25    27    22   am
    26    19    18    2
    27    11    12    1
    28    22    23    2
    29    22    21    1
    30    12    13    1
    31    12    15    1
    32    18    20   am
    33    18    17    1
    34    14    13    2
    35    13    16   am
    36    21    20    1
    37    21    24    1
    38    16    17    1
    39    20    26    1
    40    24    25    1
    41    26    25    1
