@<TRIPOS>MOLECULE
1awt_III_G_1.pdb
 40 41 0 0 0
SMALL
GASTEIGER

@<TRIPOS>ATOM
      1  N         12.9840   15.0450  -13.2990 N.3   101  HIS101     -0.1227
      2  CA        13.9940   15.6810  -14.2010 C.3   101  HIS101      0.1749
      3  C         14.7830   16.7790  -13.4910 C.2   101  HIS101      0.2596
      4  O         15.6600   17.3990  -14.0810 O.2   101  HIS101     -0.2718
      5  CB        13.2980   16.2570  -15.4590 C.3   101  HIS101      0.0718
      6  CG        12.1670   17.2130  -15.1690 C.2   101  HIS101      0.0650
      7  ND1       11.7110   17.4780  -13.8950 N.2   101  HIS101     -0.2310
      8  CD2       11.4120   17.9740  -16.0020 C.3   101  HIS101      0.1683
      9  CE1       10.7270   18.3620  -13.9530 C.2   101  HIS101      0.1939
     10  NE2       10.5290   18.6790  -15.2200 N.2   101  HIS101     -0.2440
     11  N         14.4480   17.0160  -12.2280 N.am  102  ALA102     -0.1966
     12  CA        15.0790   18.0600  -11.4130 C.3   102  ALA102      0.1728
     13  C         16.5640   17.8440  -11.0660 C.2   102  ALA102      0.2617
     14  O         16.9960   16.7390  -10.7090 O.2   102  ALA102     -0.2715
     15  CB        14.2490   18.2770  -10.1460 C.3   102  ALA102      0.0334
     16  N         17.3550   18.9010  -11.2420 N.am  103  GLY103     -0.1941
     17  CA        18.7710   18.7990  -10.9240 C.3   103  GLY103      0.1998
     18  C         19.7040   19.7360  -11.6690 C.2   103  GLY103      0.2481
     19  O         19.4140   20.1180  -12.8080 O.2   103  GLY103     -0.2729
     20  N         20.7950   20.1920  -11.0150 N.am  104  PRO104     -0.2715
     21  CA        21.8230   21.0920  -11.5540 C.3   104  PRO104      0.1536
     22  C         23.0230   20.3510  -12.1640 C.2   104  PRO104      0.2598
     23  O         23.4160   19.2880  -11.6860 O.2   104  PRO104     -0.2715
     24  CB        22.2460   21.8850  -10.3210 C.3   104  PRO104      0.0310
     25  CG        22.1800   20.8780   -9.2570 C.3   104  PRO104      0.0237
     26  CD        20.8720   20.1600   -9.5410 C.3   104  PRO104      0.0939
     27  N         23.6170   20.9140  -13.2110 N.am  105  ILE105     -0.1964
     28  CA        24.7650   20.2700  -13.8340 C.3   105  ILE105      0.1727
     29  C         26.0520   20.8650  -13.3350 C.2   105  ILE105      0.2617
     30  O         26.0590   21.9660  -12.7800 O.2   105  ILE105     -0.2715
     31  CB        24.7440   20.3450  -15.3690 C.3   105  ILE105      0.0290
     32  CG1       24.5430   21.7860  -15.8210 C.3   105  ILE105      0.0022
     33  CG2       23.6690   19.4160  -15.9270 C.3   105  ILE105      0.0023
     34  CD1       24.6670   21.9550  -17.2960 C.3   105  ILE105      0.0001
     35  N         27.1310   20.1100  -13.5640 N.am  106  ALA106     -0.1942
     36  CA        28.4970   20.4490  -13.1490 C.3   106  ALA106      0.1979
     37  C         29.2130   21.4950  -14.0040 C.2   106  ALA106      0.3842
     38  O         30.2640   22.0010  -13.5580 O.co2 106  ALA106     -0.2437
     39  CB        29.3300   19.1740  -13.0820 C.3   106  ALA106      0.0356
     40  OXT       28.7170   21.8040  -15.1040 O.co2 106  ALA106     -0.2437
@<TRIPOS>BOND
     1    34    32    1
     2     8    10    1
     3     8     6    1
     4    33    31    1
     5    32    31    1
     6     5     6    1
     7     5     2    1
     8    31    28    1
     9    10     9    2
    10     6     7    2
    11    40    37   ar
    12     2     3    1
    13     2     1    1
    14     4     3    2
    15    37    38   ar
    16    37    36    1
    17     9     7    1
    18    28    29    1
    19    28    27    1
    20    35    29   am
    21    35    36    1
    22     3    11   am
    23    29    30    2
    24    27    22   am
    25    36    39    1
    26    19    18    2
    27    11    12    1
    28    22    23    2
    29    22    21    1
    30    18    20   am
    31    18    17    1
    32    21    20    1
    33    21    24    1
    34    12    13    1
    35    12    15    1
    36    16    13   am
    37    16    17    1
    38    13    14    2
    39    20    26    1
    40    24    25    1
    41    26    25    1
