@<TRIPOS>MOLECULE
1awu_III_B_1.pdb
 42 43 0 0 0
SMALL
GASTEIGER

@<TRIPOS>ATOM
      1  N         50.3810   21.2860  -15.9130 N.3     1  HIS1       -0.1227
      2  CA        51.4120   21.7070  -14.9180 C.3     1  HIS1        0.1749
      3  C         50.9770   23.0040  -14.2910 C.2     1  HIS1        0.2596
      4  O         50.7030   23.9910  -14.9620 O.2     1  HIS1       -0.2718
      5  CB        52.7870   21.8610  -15.5450 C.3     1  HIS1        0.0718
      6  CG        53.8730   21.1380  -14.8050 C.2     1  HIS1        0.0650
      7  ND1       53.6420   19.9890  -14.0730 N.2     1  HIS1       -0.2310
      8  CD2       55.2130   21.3590  -14.7390 C.3     1  HIS1        0.1683
      9  CE1       54.7920   19.5280  -13.6030 C.2     1  HIS1        0.1939
     10  NE2       55.7610   20.3420  -13.9920 N.2     1  HIS1       -0.2440
     11  N         50.9720   22.9680  -12.9710 N.am    2  VAL2       -0.1966
     12  CA        50.5300   24.0370  -12.1090 C.3     2  VAL2        0.1727
     13  C         51.6850   24.8690  -11.5780 C.2     2  VAL2        0.2617
     14  O         52.7920   24.3450  -11.3490 O.2     2  VAL2       -0.2715
     15  CB        49.7670   23.3850  -10.9380 C.3     2  VAL2        0.0290
     16  CG1       49.3180   24.4020   -9.9270 C.3     2  VAL2        0.0023
     17  CG2       48.6000   22.5550  -11.4730 C.3     2  VAL2        0.0023
     18  N         51.4420   26.1670  -11.4090 N.am    3  GLY3       -0.1941
     19  CA        52.4730   27.0340  -10.8620 C.3     3  GLY3        0.1998
     20  C         52.6360   28.4180  -11.4650 C.2     3  GLY3        0.2481
     21  O         52.5290   28.5870  -12.6790 O.2     3  GLY3       -0.2729
     22  N         52.8880   29.4400  -10.6320 N.am    4  PRO4       -0.2715
     23  CA        53.0620   30.7920  -11.1610 C.3     4  PRO4        0.1536
     24  C         54.4450   30.9420  -11.8270 C.2     4  PRO4        0.2598
     25  O         55.3820   30.1740  -11.5480 O.2     4  PRO4       -0.2715
     26  CB        52.9680   31.6530   -9.8920 C.3     4  PRO4        0.0310
     27  CG        53.6390   30.7910   -8.8880 C.3     4  PRO4        0.0237
     28  CD        52.9490   29.4560   -9.1610 C.3     4  PRO4        0.0939
     29  N         54.5580   31.9070  -12.7340 N.am    5  ILE5       -0.1964
     30  CA        55.8250   32.1530  -13.3810 C.3     5  ILE5        0.1727
     31  C         56.3010   33.5380  -13.0530 C.2     5  ILE5        0.2617
     32  O         55.5010   34.4290  -12.7200 O.2     5  ILE5       -0.2715
     33  CB        55.8310   31.8800  -14.9160 C.3     5  ILE5        0.0290
     34  CG1       54.5260   32.3280  -15.5880 C.3     5  ILE5        0.0022
     35  CG2       56.2080   30.4230  -15.1780 C.3     5  ILE5        0.0023
     36  CD1       54.5310   33.7580  -16.0590 C.3     5  ILE5        0.0001
     37  N         57.6250   33.6750  -13.0970 N.am    6  ALA6       -0.1942
     38  CA        58.3570   34.9010  -12.7810 C.3     6  ALA6        0.1979
     39  C         57.9790   36.1640  -13.5610 C.2     6  ALA6        0.3842
     40  O         58.7890   37.1240  -13.5280 O.co2   6  ALA6       -0.2437
     41  CB        59.8570   34.6280  -12.9010 C.3     6  ALA6        0.0356
     42  OXT       56.8810   36.2010  -14.1700 O.co2   6  ALA6       -0.2437
@<TRIPOS>BOND
     1    36    34    1
     2     1     2    1
     3    34    33    1
     4     5     2    1
     5     5     6    1
     6    35    33    1
     7     4     3    2
     8     2     3    1
     9    33    30    1
    10     6     8    1
    11     6     7    2
    12     8    10    1
    13     3    11   am
    14    42    39   ar
    15     7     9    1
    16    10     9    2
    17    39    40   ar
    18    39    38    1
    19    30    31    1
    20    30    29    1
    21    37    31   am
    22    37    38    1
    23    31    32    2
    24    11    12    1
    25    41    38    1
    26    29    24   am
    27    21    20    2
    28    12    13    1
    29    12    15    1
    30    24    25    2
    31    24    23    1
    32    13    18   am
    33    13    14    2
    34    17    15    1
    35    20    19    1
    36    20    22   am
    37    18    19    1
    38    23    22    1
    39    23    26    1
    40    15    16    1
    41    22    28    1
    42    26    27    1
    43    28    27    1
