@<TRIPOS>MOLECULE
1awv_III_G_1.pdb
 42 43 0 0 0
SMALL
GASTEIGER

@<TRIPOS>ATOM
      1  N         13.2800   15.4830  -14.8150 N.3   101  HIS101     -0.1227
      2  CA        14.6080   15.8440  -15.3990 C.3   101  HIS101      0.1749
      3  C         15.2880   16.9570  -14.6050 C.2   101  HIS101      0.2596
      4  O         15.9120   17.8600  -15.1670 O.2   101  HIS101     -0.2718
      5  CB        14.4570   16.2360  -16.8700 C.3   101  HIS101      0.0718
      6  CG        13.3610   17.2240  -17.1540 C.2   101  HIS101      0.0650
      7  ND1       12.4930   17.6890  -16.1890 N.2   101  HIS101     -0.2310
      8  CD2       12.9960   17.8310  -18.3090 C.3   101  HIS101      0.1683
      9  CE1       11.6430   18.5380  -16.7380 C.2   101  HIS101      0.1939
     10  NE2       11.9270   18.6420  -18.0240 N.2   101  HIS101     -0.2440
     11  N         15.2150   16.8380  -13.2850 N.am  102  VAL102     -0.1966
     12  CA        15.7600   17.8420  -12.3790 C.3   102  VAL102      0.1727
     13  C         17.1970   17.6040  -11.9300 C.2   102  VAL102      0.2617
     14  O         17.5750   16.4890  -11.5650 O.2   102  VAL102     -0.2715
     15  CB        14.8310   18.0100  -11.1640 C.3   102  VAL102      0.0290
     16  CG1       15.3250   19.1240  -10.2640 C.3   102  VAL102      0.0023
     17  CG2       13.4140   18.2970  -11.6350 C.3   102  VAL102      0.0023
     18  N         17.9980   18.6650  -11.9930 N.am  103  GLY103     -0.1941
     19  CA        19.3910   18.5830  -11.5980 C.3   103  GLY103      0.1998
     20  C         20.1800   19.7970  -12.0540 C.2   103  GLY103      0.2481
     21  O         20.0000   20.2700  -13.1770 O.2   103  GLY103     -0.2729
     22  N         21.0560   20.3350  -11.1910 N.am  104  PRO104     -0.2715
     23  CA        22.1970   21.1850  -11.5510 C.3   104  PRO104      0.1536
     24  C         23.2460   20.4510  -12.3770 C.2   104  PRO104      0.2598
     25  O         23.3020   19.2230  -12.3780 O.2   104  PRO104     -0.2715
     26  CB        22.7640   21.5800  -10.1890 C.3   104  PRO104      0.0310
     27  CG        21.5780   21.5260   -9.3040 C.3   104  PRO104      0.0237
     28  CD        20.9150   20.2590   -9.7300 C.3   104  PRO104      0.0939
     29  N         24.0840   21.2150  -13.0720 N.am  105  ILE105     -0.1964
     30  CA        25.1430   20.6430  -13.9090 C.3   105  ILE105      0.1727
     31  C         26.4560   21.4240  -13.8750 C.2   105  ILE105      0.2617
     32  O         26.5780   22.4370  -13.1880 O.2   105  ILE105     -0.2715
     33  CB        24.7390   20.5600  -15.4170 C.3   105  ILE105      0.0290
     34  CG1       24.8330   21.9540  -16.0570 C.3   105  ILE105      0.0022
     35  CG2       23.3590   19.9120  -15.5840 C.3   105  ILE105      0.0023
     36  CD1       24.4790   22.0050  -17.5200 C.3   105  ILE105      0.0001
     37  N         27.4100   20.9320  -14.6700 N.am  106  ALA106     -0.1942
     38  CA        28.7530   21.4960  -14.8610 C.3   106  ALA106      0.1979
     39  C         29.7380   21.2390  -13.7320 C.2   106  ALA106      0.3842
     40  O         30.7200   22.0050  -13.6240 O.co2 106  ALA106     -0.2437
     41  CB        28.6770   22.9830  -15.1850 C.3   106  ALA106      0.0356
     42  OXT       29.5250   20.2490  -12.9970 O.co2 106  ALA106     -0.2437
@<TRIPOS>BOND
     1     8    10    1
     2     8     6    1
     3    10     9    2
     4    36    34    1
     5     6     5    1
     6     6     7    2
     7     5     2    1
     8     9     7    1
     9    34    33    1
    10    35    33    1
    11    33    30    1
    12     2     1    1
    13     2     3    1
    14    41    38    1
    15     4     3    2
    16    38    37    1
    17    38    39    1
    18    37    31   am
    19     3    11   am
    20    30    31    1
    21    30    29    1
    22    31    32    2
    23    39    40   ar
    24    39    42   ar
    25    11    12    1
    26    21    20    2
    27    29    24   am
    28    12    13    1
    29    12    15    1
    30    25    24    2
    31    24    23    1
    32    20    19    1
    33    20    22   am
    34    18    13   am
    35    18    19    1
    36    13    14    2
    37    17    15    1
    38    23    22    1
    39    23    26    1
    40    22    28    1
    41    15    16    1
    42    26    27    1
    43    28    27    1
