@<TRIPOS>MOLECULE
1ax0_A2G_A_1.pdb
 15 15 0 0 0
SMALL
GASTEIGER

@<TRIPOS>ATOM
      1  O         17.1480   -2.6690   36.2790 O.3   401  A2G401     -0.3242
      2  C1        17.1550   -1.2410   36.3640 C.3   401  A2G401      0.2917
      3  O1        16.8900   -0.8870   37.6750 O.3   401  A2G401     -0.1879
      4  C2        16.0900   -0.6370   35.4390 C.3   401  A2G401      0.1871
      5  N2        16.0300    0.7960   35.6500 N.am  401  A2G401     -0.1991
      6  C3        14.7130   -1.2450   35.7220 C.3   401  A2G401      0.2095
      7  O3        13.7740   -0.7820   34.7560 O.3   401  A2G401     -0.2183
      8  C4        14.8010   -2.7670   35.6700 C.3   401  A2G401      0.2136
      9  O4        15.1410   -3.1810   34.3550 O.3   401  A2G401     -0.2176
     10  C5        15.8730   -3.2350   36.6450 C.3   401  A2G401      0.1835
     11  C6        16.0380   -4.7420   36.6550 C.3   401  A2G401      0.2142
     12  O6        16.8280   -5.1560   37.7590 O.3   401  A2G401     -0.2176
     13  C7        16.1870    1.6330   34.6300 C.2   401  A2G401      0.2421
     14  O7        16.3880    1.2560   33.4760 O.2   401  A2G401     -0.2733
     15  C8        16.1100    3.1200   34.9420 C.3   401  A2G401      0.0964
@<TRIPOS>BOND
     1    14    13    2
     2     9     8    1
     3    13    15    1
     4    13     5   am
     5     7     6    1
     6     4     5    1
     7     4     6    1
     8     4     2    1
     9     8     6    1
    10     8    10    1
    11     1     2    1
    12     1    10    1
    13     2     3    1
    14    10    11    1
    15    11    12    1
