@<TRIPOS>MOLECULE
1ax0_NAG_A_1.pdb
 14 14 0 0 0
SMALL
GASTEIGER

@<TRIPOS>ATOM
      1  C1        -3.5870   -6.9190    5.3420 C.3   301  NAG301      0.1665
      2  C2        -4.5550   -5.7400    5.2190 C.3   301  NAG301      0.1576
      3  C3        -5.2920   -5.8080    3.8760 C.3   301  NAG301      0.2069
      4  C4        -4.2970   -5.9540    2.7210 C.3   301  NAG301      0.2134
      5  C5        -3.3500   -7.1230    2.9920 C.3   301  NAG301      0.1809
      6  C6        -2.2760   -7.2880    1.9330 C.3   301  NAG301      0.2141
      7  C7        -5.4650   -4.8800    7.2890 C.2   301  NAG301      0.2420
      8  C8        -6.5130   -4.9970    8.3860 C.3   301  NAG301      0.0964
      9  N2        -5.5170   -5.7780    6.3070 N.am  301  NAG301     -0.2019
     10  O3        -6.0710   -4.6120    3.6930 O.3   301  NAG301     -0.2184
     11  O4        -5.0170   -6.1980    1.5000 O.3   301  NAG301     -0.2176
     12  O5        -2.6760   -6.9220    4.2440 O.3   301  NAG301     -0.3489
     13  O6        -1.6120   -6.0590    1.6820 O.3   301  NAG301     -0.2176
     14  O7        -4.6220   -3.9820    7.3390 O.2   301  NAG301     -0.2733
@<TRIPOS>BOND
     1    11     4    1
     2    13     6    1
     3     6     5    1
     4     4     5    1
     5     4     3    1
     6     5    12    1
     7    10     3    1
     8     3     2    1
     9    12     1    1
    10     2     1    1
    11     2     9    1
    12     9     7   am
    13     7    14    2
    14     7     8    1
