@<TRIPOS>MOLECULE
1ax1_NAG_A_1.pdb
 14 14 0 0 0
SMALL
GASTEIGER

@<TRIPOS>ATOM
      1  C1        -3.5480   -7.0620    5.3390 C.3   301  NAG301      0.1665
      2  C2        -4.4870   -5.8510    5.2330 C.3   301  NAG301      0.1576
      3  C3        -5.2520   -5.8880    3.8970 C.3   301  NAG301      0.2069
      4  C4        -4.2990   -6.0860    2.7270 C.3   301  NAG301      0.2134
      5  C5        -3.4180   -7.2990    2.9890 C.3   301  NAG301      0.1809
      6  C6        -2.4120   -7.5650    1.8920 C.3   301  NAG301      0.2141
      7  C7        -5.3740   -4.9300    7.2900 C.2   301  NAG301      0.2420
      8  C8        -6.3960   -5.0280    8.4130 C.3   301  NAG301      0.0964
      9  N2        -5.4270   -5.8650    6.3420 N.am  301  NAG301     -0.2019
     10  O3        -5.9790   -4.6630    3.7100 O.3   301  NAG301     -0.2184
     11  O4        -5.0590   -6.2930    1.5250 O.3   301  NAG301     -0.2176
     12  O5        -2.6810   -7.1080    4.2080 O.3   301  NAG301     -0.3489
     13  O6        -1.5110   -6.4820    1.7570 O.3   301  NAG301     -0.2176
     14  O7        -4.5590   -4.0050    7.2840 O.2   301  NAG301     -0.2733
@<TRIPOS>BOND
     1    11     4    1
     2    13     6    1
     3     6     5    1
     4     4     5    1
     5     4     3    1
     6     5    12    1
     7    10     3    1
     8     3     2    1
     9    12     1    1
    10     2     1    1
    11     2     9    1
    12     9     7   am
    13    14     7    2
    14     7     8    1
