@<TRIPOS>MOLECULE
1ax1_GAL_A_1.pdb
 11 11 0 0 0
SMALL
GASTEIGER

@<TRIPOS>ATOM
      1  C1        17.0640   -1.4660   36.5050 C.3   402  GAL402      0.1777
      2  C2        16.0880   -0.8130   35.5200 C.3   402  GAL402      0.2141
      3  C3        14.6730   -1.3640   35.7160 C.3   402  GAL402      0.2173
      4  C4        14.7090   -2.8860   35.5940 C.3   402  GAL402      0.2142
      5  C5        15.6880   -3.4240   36.6310 C.3   402  GAL402      0.1810
      6  C6        15.8030   -4.9310   36.6130 C.3   402  GAL402      0.2141
      7  O2        16.0910    0.5950   35.7020 O.3   402  GAL402     -0.2176
      8  O3        13.8010   -0.8210   34.7360 O.3   402  GAL402     -0.2175
      9  O4        15.1340   -3.2600   34.2860 O.3   402  GAL402     -0.2176
     10  O5        17.0070   -2.8950   36.3840 O.3   402  GAL402     -0.3481
     11  O6        16.7230   -5.3740   37.5930 O.3   402  GAL402     -0.2176
@<TRIPOS>BOND
     1     9     4    1
     2     8     3    1
     3     2     7    1
     4     2     3    1
     5     2     1    1
     6     4     3    1
     7     4     5    1
     8    10     1    1
     9    10     5    1
    10     6     5    1
    11     6    11    1
