@<TRIPOS>MOLECULE
1ax1_BGC_A_1.pdb
 12 12 0 0 0
SMALL
GASTEIGER

@<TRIPOS>ATOM
      1  C2        21.3570   -2.7070   37.7600 C.3   401  BGC401      0.2434
      2  C3        20.1380   -2.5830   36.8560 C.3   401  BGC401      0.2199
      3  C4        19.3890   -1.2770   37.1580 C.3   401  BGC401      0.2144
      4  C5        20.3620   -0.0970   37.0920 C.3   401  BGC401      0.1836
      5  C6        19.7300    1.2320   37.4530 C.3   401  BGC401      0.2142
      6  C1        22.2230   -1.4550   37.6430 C.3   401  BGC401      0.3024
      7  O1        23.2830   -1.5370   38.5260 O.3   401  BGC401     -0.1869
      8  O2        22.1080   -3.8570   37.3910 O.3   401  BGC401     -0.2148
      9  O3        19.2870   -3.6970   37.0700 O.3   401  BGC401     -0.2174
     10  O4        18.3510   -1.0730   36.1800 O.3   401  BGC401     -0.2176
     11  O5        21.4570   -0.3050   37.9940 O.3   401  BGC401     -0.3236
     12  O6        18.8250    1.0920   38.5380 O.3   401  BGC401     -0.2176
@<TRIPOS>BOND
     1    10     3    1
     2     2     9    1
     3     2     3    1
     4     2     1    1
     5     4     3    1
     6     4     5    1
     7     4    11    1
     8     8     1    1
     9     5    12    1
    10     6     1    1
    11     6    11    1
    12     6     7    1
