@<TRIPOS>MOLECULE
1ax2_GAL_A_1.pdb
 11 11 0 0 0
SMALL
GASTEIGER

@<TRIPOS>ATOM
      1  C1        17.0120   -1.4920   36.6080 C.3   402  GAL402      0.1777
      2  C2        16.0380   -0.8430   35.6150 C.3   402  GAL402      0.2141
      3  C3        14.6200   -1.3930   35.8020 C.3   402  GAL402      0.2173
      4  C4        14.6500   -2.9150   35.7080 C.3   402  GAL402      0.2142
      5  C5        15.6260   -3.4420   36.7510 C.3   402  GAL402      0.1810
      6  C6        15.7380   -4.9520   36.7380 C.3   402  GAL402      0.2141
      7  O2        16.0370    0.5660   35.7960 O.3   402  GAL402     -0.2176
      8  O3        13.7610   -0.8680   34.8000 O.3   402  GAL402     -0.2175
      9  O4        15.0740   -3.3110   34.4070 O.3   402  GAL402     -0.2176
     10  O5        16.9460   -2.9200   36.5020 O.3   402  GAL402     -0.3481
     11  O6        16.7050   -5.3870   37.6770 O.3   402  GAL402     -0.2176
@<TRIPOS>BOND
     1     9     4    1
     2     8     3    1
     3     2     7    1
     4     2     3    1
     5     2     1    1
     6     4     3    1
     7     4     5    1
     8    10     1    1
     9    10     5    1
    10     6     5    1
    11     6    11    1
