@<TRIPOS>MOLECULE
1ax2_NAG_A_1.pdb
 14 14 0 0 0
SMALL
GASTEIGER

@<TRIPOS>ATOM
      1  C1        -3.5890   -7.0540    5.3470 C.3   301  NAG301      0.1665
      2  C2        -4.5380   -5.8540    5.2380 C.3   301  NAG301      0.1576
      3  C3        -5.2880   -5.8800    3.8930 C.3   301  NAG301      0.2069
      4  C4        -4.3080   -6.0450    2.7330 C.3   301  NAG301      0.2134
      5  C5        -3.4140   -7.2530    2.9890 C.3   301  NAG301      0.1809
      6  C6        -2.3810   -7.4940    1.9030 C.3   301  NAG301      0.2141
      7  C7        -5.4410   -4.9380    7.2840 C.2   301  NAG301      0.2420
      8  C8        -6.4690   -5.0320    8.4020 C.3   301  NAG301      0.0964
      9  N2        -5.4860   -5.8750    6.3390 N.am  301  NAG301     -0.2019
     10  O3        -6.0250   -4.6550    3.7200 O.3   301  NAG301     -0.2184
     11  O4        -5.0400   -6.2400    1.5110 O.3   301  NAG301     -0.2176
     12  O5        -2.7040   -7.0780    4.2270 O.3   301  NAG301     -0.3489
     13  O6        -1.5720   -6.3490    1.6950 O.3   301  NAG301     -0.2176
     14  O7        -4.6200   -4.0160    7.2770 O.2   301  NAG301     -0.2733
@<TRIPOS>BOND
     1    11     4    1
     2    13     6    1
     3     6     5    1
     4     4     5    1
     5     4     3    1
     6     5    12    1
     7    10     3    1
     8     3     2    1
     9    12     1    1
    10     2     1    1
    11     2     9    1
    12     9     7   am
    13    14     7    2
    14     7     8    1
