@<TRIPOS>MOLECULE
1ax9_EDR_A_1.pdb
 12 12 0 0 0
SMALL
GASTEIGER

@<TRIPOS>ATOM
      1  C1         3.4050   66.7340   64.2890 C.ar  999  EDR999      0.0134
      2  C2         4.3300   67.2790   63.4170 C.ar  999  EDR999      0.0375
      3  C3         5.1850   66.3830   62.7860 C.ar  999  EDR999      0.0552
      4  C4         5.1290   65.0050   62.9870 C.ar  999  EDR999      0.1969
      5  C5         4.1920   64.4850   63.8680 C.ar  999  EDR999      0.0421
      6  C6         3.3270   65.3540   64.5140 C.ar  999  EDR999      0.0045
      7  O4         5.9810   64.1490   62.3510 O.3   999  EDR999     -0.2865
      8  N2         4.4660   68.7310   63.1190 N.pl3 999  EDR999     -0.3524
      9  C7         5.2730   69.0150   61.8320 C.3   999  EDR999      0.0959
     10  C8         3.0320   69.2890   62.9100 C.3   999  EDR999      0.0959
     11  C9         5.1620   69.4040   64.3260 C.3   999  EDR999      0.0757
     12  C10        6.4990   68.7780   64.8590 C.3   999  EDR999      0.0217
@<TRIPOS>BOND
     1     9     8    1
     2     7     4    1
     3     3     4   ar
     4     3     2   ar
     5    10     8    1
     6     4     5   ar
     7     8     2    1
     8     8    11    1
     9     2     1   ar
    10     5     6   ar
    11     1     6   ar
    12    11    12    1
