@<TRIPOS>MOLECULE
1axa_U0E_A_1.pdb
 42 42 0 0 0
SMALL
GASTEIGER

@<TRIPOS>ATOM
      1  C1       -10.2620   15.7420   32.1840 C.3   100  U0E100      0.0964
      2  C2       -10.0070   15.5400   30.7010 C.2   100  U0E100      0.2419
      3  C3       -10.7590   16.1630   28.3860 C.3   100  U0E100      0.1255
      4  C4       -12.1660   15.9470   27.8310 C.3   100  U0E100      0.0243
      5  C5       -12.8560   14.6230   28.1560 C.3   100  U0E100      0.0018
      6  C6       -13.7350   14.6940   29.4220 C.3   100  U0E100      0.0001
      7  C7       -14.4710   13.3750   29.6510 C.3   100  U0E100      0.0000
      8  C8       -13.4200   12.2680   29.7730 C.3   100  U0E100      0.0000
      9  C9       -12.5550   12.2040   28.5130 C.3   100  U0E100      0.0000
     10  C10      -11.8360   13.5060   28.2810 C.3   100  U0E100      0.0001
     11  C11      -10.2000   17.4340   27.7180 C.3   100  U0E100      0.1722
     12  C12       -8.7140   17.7050   28.0260 C.3   100  U0E100      0.0438
     13  C13       -7.9270   18.3840   26.9010 C.3   100  U0E100      0.0808
     14  C14       -6.5920   18.9150   27.5160 C.3   100  U0E100      0.0087
     15  C15       -5.7220   19.6910   26.5290 C.3   100  U0E100      0.0005
     16  C16       -5.7200   17.9130   28.2950 C.3   100  U0E100      0.0005
     17  C17       -7.6890   17.3470   25.7840 C.2   100  U0E100      0.2414
     18  C18       -7.4140   17.1300   23.3440 C.3   100  U0E100      0.1732
     19  C19       -8.4860   16.0970   22.8160 C.3   100  U0E100      0.0408
     20  C20       -9.4620   16.2740   21.6160 C.3   100  U0E100      0.0908
     21  C21       -8.8890   16.8430   20.3110 C.2   100  U0E100      0.2608
     22  C22       -6.5520   18.0430   22.4450 C.2   100  U0E100      0.2616
     23  C23       -4.7040   17.8560   20.7930 C.3   100  U0E100      0.1745
     24  C24       -4.5950   16.7120   19.7500 C.2   100  U0E100      0.2806
     25  C25       -3.3220   18.1500   21.4370 C.3   100  U0E100      0.0349
     26  C26       -3.1870   19.4470   22.2670 C.3   100  U0E100      0.0492
     27  C27       -1.9990   19.4460   23.2520 C.3   100  U0E100      0.2205
     28  C28        0.1850   20.3050   22.3750 C.cat 100  U0E100      0.5346
     29  N1       -10.8140   16.2480   29.8630 N.am  100  U0E100     -0.2046
     30  N2        -7.6920   17.8910   24.5530 N.am  100  U0E100     -0.1978
     31  N3        -8.1830   15.9740   19.5690 N.am  100  U0E100     -0.0878
     32  N4        -5.6430   17.3090   21.7610 N.am  100  U0E100     -0.1963
     33  N5        -4.3050   17.1130   18.5030 N.am  100  U0E100     -0.0863
     34  N6        -1.0170   20.4960   22.9620 N.pl3 100  U0E100     -0.0865
     35  N7         0.3090   20.3620   21.0550 N.pl3 100  U0E100      0.1354
     36  N8         1.2910   20.0610   23.0820 N.pl3 100  U0E100      0.1354
     37  O1        -9.1300   14.7750   30.3470 O.2   100  U0E100     -0.2733
     38  O2       -11.0710   18.5080   28.0130 O.3   100  U0E100     -0.2213
     39  O3        -7.5350   16.1590   26.0460 O.2   100  U0E100     -0.2733
     40  O4        -8.9720   18.0370   20.0730 O.2   100  U0E100     -0.2717
     41  O5        -6.7920   19.2380   22.2720 O.2   100  U0E100     -0.2715
     42  O6        -4.7840   15.5470   20.0690 O.2   100  U0E100     -0.2698
@<TRIPOS>BOND
     1    33    24   am
     2    31    21   am
     3    24    42    2
     4    24    23    1
     5    40    21    2
     6    21    20    1
     7    23    25    1
     8    23    32    1
     9    35    28    1
    10    25    26    1
    11    20    19    1
    12    32    22   am
    13    26    27    1
    14    41    22    2
    15    28    34    2
    16    28    36    1
    17    22    18    1
    18    19    18    1
    19    34    27    1
    20    18    30    1
    21    30    17   am
    22    17    39    2
    23    17    13    1
    24    15    14    1
    25    13    14    1
    26    13    12    1
    27    14    16    1
    28    11    38    1
    29    11    12    1
    30    11     3    1
    31     4     5    1
    32     4     3    1
    33     5    10    1
    34     5     6    1
    35    10     9    1
    36     3    29    1
    37     9     8    1
    38     6     7    1
    39     7     8    1
    40    29     2   am
    41    37     2    2
    42     2     1    1
