@<TRIPOS>MOLECULE
1axb_FOS_A_1.pdb
 15 15 0 0 0
SMALL
GASTEIGER

@<TRIPOS>ATOM
      1  C1        17.1520   11.1950   37.4640 C.ar  291  FOS291      0.0213
      2  C2        18.4080   11.1280   38.0400 C.ar  291  FOS291     -0.0007
      3  C3        19.5330   11.4780   37.2930 C.ar  291  FOS291     -0.0002
      4  C4        19.3930   11.8940   35.9740 C.ar  291  FOS291     -0.0000
      5  C5        18.1350   11.9560   35.3960 C.ar  291  FOS291     -0.0002
      6  C6        17.0170   11.6110   36.1360 C.ar  291  FOS291     -0.0007
      7  C         16.0230   10.9520   38.2140 C.3   291  FOS291      0.2368
      8  O         14.9660   10.2900   37.5290 O.3   291  FOS291     -0.4285
      9  C'        13.9770    9.6630   38.3270 C.2   291  FOS291      0.4219
     10  O'        14.0140    9.6280   39.5510 O.2   291  FOS291     -0.2245
     11  N         12.9540    9.2140   37.6110 N.am  291  FOS291     -0.1588
     12  CM        11.7080    8.7110   38.1660 C.3   291  FOS291      0.2014
     13  P         10.5400    8.6160   36.7650 P.3   291  FOS291      0.2775
     14  O1P        9.8290    9.8810   36.4690 O.3   291  FOS291     -0.1726
     15  O2P       11.1700    8.0650   35.5530 O.3   291  FOS291     -0.1726
@<TRIPOS>BOND
     1     5     4   ar
     2     5     6   ar
     3    15    13    1
     4     4     3   ar
     5     6     1   ar
     6    14    13    1
     7    13    12    1
     8     3     2   ar
     9     1     2   ar
    10     1     7    1
    11     8     7    1
    12     8     9    1
    13    11    12    1
    14    11     9   am
    15     9    10    2
