@<TRIPOS>MOLECULE
1axd_III_C_1.pdb
 30 29 0 0 0
SMALL
GASTEIGER

@<TRIPOS>ATOM
      1  N          3.8080    7.2010    8.2790 N.4     1  GGL1        0.3888
      2  CA         3.5410    8.6340    8.5900 C.3     1  GGL1        0.0408
      3  C          3.1260    8.7510   10.0340 C.2     1  GGL1        0.3448
      4  O          3.1830    9.8760   10.5670 O.co2   1  GGL1       -0.2480
      5  CB         2.4490    9.1770    7.6670 C.3     1  GGL1       -0.0013
      6  CG         2.1290   10.6660    7.8080 C.3     1  GGL1        0.0835
      7  CD         1.4850   11.2130    6.5560 C.2     1  GGL1        0.2227
      8  OE1        1.3450   10.4630    5.5950 O.2     1  GGL1       -0.2751
      9  OXT        2.7930    7.7080   10.6460 O.co2   1  GGL1       -0.2480
     10  H1         4.2130    7.0670    7.3300 H       1  GGL1       -0.0885
     11  H2         2.9010    6.6880    8.3880 H       1  GGL1       -0.0885
     12  H3         4.4090    6.8840    9.0470 H       1  GGL1       -0.0885
     13  C          1.0760   14.2780    4.9100 C.2     2  CYS2        0.2416
     14  N          1.0020   12.4620    6.5710 N.am    2  CYS2       -0.2976
     15  O          1.6100   15.0090    5.7360 O.2     2  CYS2       -0.2733
     16  CA         0.4530   13.0230    5.3380 C.3     2  CYS2        0.1599
     17  CB        -1.0680   13.1590    5.3200 C.3     2  CYS2        0.0939
     18  SG        -1.8100   13.8270    6.7490 S.3     2  CYS2       -0.0724
     19  C1        -2.2080   12.4360    7.4050 C.2     2  CYS2        0.2289
     20  O1        -1.5990   12.0410    8.3780 O.2     2  CYS2       -0.2818
     21  C2        -3.0160   11.4940    6.6610 C.3     2  CYS2        0.2191
     22  O2        -2.2210   10.7870    5.6970 O.3     2  CYS2       -0.2142
     23  C3        -4.1320   12.2280    5.9320 C.3     2  CYS2        0.0446
     24  HNA        1.0050   13.0270    7.3700 H       2  CYS2        0.1498
     25  N          1.0210   14.5150    3.6060 N.am    3  GLY3       -0.2935
     26  CA         1.6150   15.6910    3.0190 C.3     3  GLY3        0.2051
     27  C          2.5940   15.2220    1.9630 C.2     3  GLY3        0.3845
     28  O          3.0880   14.0780    2.0680 O.co2   3  GLY3       -0.2437
     29  OXT        2.8370   15.9830    1.0120 O.co2   3  GLY3       -0.2437
     30  H          0.6180   13.8720    2.9810 H       3  GLY3        0.1500
@<TRIPOS>BOND
     1    29    27   ar
     2    27    28   ar
     3    27    26    1
     4    30    25    1
     5    26    25    1
     6    25    13   am
     7    13    16    1
     8    13    15    2
     9    17    16    1
    10    17    18    1
    11    16    14    1
    12     8     7    2
    13    22    21    1
    14    23    21    1
    15     7    14   am
    16     7     6    1
    17    14    24    1
    18    21    19    1
    19    18    19    1
    20    10     1    1
    21    19    20    2
    22     5     6    1
    23     5     2    1
    24     1    11    1
    25     1     2    1
    26     1    12    1
    27     2     3    1
    28     3     4   ar
    29     3     9   ar
