@<TRIPOS>MOLECULE
1axe_NAD_A_1.pdb
 44 48 0 0 0
SMALL
GASTEIGER

@<TRIPOS>ATOM
      1  PA         0.9290  -17.3040   18.2730 P.3   403  NAD403      0.2189
      2  O1A        0.6890  -18.4860   19.0780 O.3   403  NAD403     -0.4371
      3  O2A        1.9580  -16.3600   18.6980 O.2   403  NAD403     -0.5170
      4  O5B        1.2830  -17.7690   16.7910 O.3   403  NAD403     -0.3112
      5  C5B        1.9660  -16.9260   15.8600 C.3   403  NAD403      0.1813
      6  C4B        2.7280  -17.9110   15.0160 C.3   403  NAD403      0.1821
      7  O4B        3.2400  -17.2520   13.8600 O.3   403  NAD403     -0.3135
      8  C3B        3.9060  -18.5490   15.7250 C.3   403  NAD403      0.2184
      9  O3B        4.0730  -19.9760   15.6250 O.3   403  NAD403     -0.2174
     10  C2B        5.0660  -17.7410   15.1910 C.3   403  NAD403      0.2570
     11  O2B        6.1460  -18.6590   15.2420 O.3   403  NAD403     -0.2130
     12  C1B        4.6140  -17.5040   13.7710 C.3   403  NAD403      0.3186
     13  N9A        5.3320  -16.5090   12.9570 N.pl3 403  NAD403     -0.1439
     14  C8A        5.8560  -15.3360   13.3820 C.3   403  NAD403      0.3377
     15  N7A        6.4640  -14.6650   12.3910 N.2   403  NAD403     -0.2095
     16  C5A        6.2880  -15.4610   11.3370 C.2   403  NAD403      0.2526
     17  C6A        6.7360  -15.1590   10.0550 C.2   403  NAD403      0.4393
     18  N6A        7.4310  -14.0470    9.8290 N.pl3 403  NAD403      0.2180
     19  N1A        6.4160  -16.0680    9.1090 N.2   403  NAD403      0.0021
     20  C2A        5.7350  -17.1990    9.3870 C.3   403  NAD403      0.5254
     21  N3A        5.3140  -17.4770   10.6280 N.2   403  NAD403     -0.0055
     22  C4A        5.5770  -16.6150   11.6420 C.2   403  NAD403      0.3518
     23  O3        -0.4600  -16.6060   18.1160 O.3   403  NAD403     -0.2703
     24  PN        -1.9560  -17.0390   18.0350 P.3   403  NAD403      0.2189
     25  O1N       -2.6580  -16.9400   19.3430 O.3   403  NAD403     -0.4371
     26  O2N       -2.1070  -18.2650   17.1700 O.2   403  NAD403     -0.5170
     27  O5D       -2.5420  -15.7520   17.2990 O.3   403  NAD403     -0.3112
     28  C5D       -2.1520  -15.4580   15.9440 C.3   403  NAD403      0.1813
     29  C4D       -2.7630  -14.1420   15.4770 C.3   403  NAD403      0.1799
     30  O4D       -4.1850  -14.2480   15.3930 O.3   403  NAD403     -0.3327
     31  C3D       -2.4870  -12.9720   16.4100 C.3   403  NAD403      0.2158
     32  O3D       -1.9940  -11.8380   15.6860 O.3   403  NAD403     -0.2175
     33  C2D       -3.7670  -12.8180   17.2180 C.3   403  NAD403      0.2309
     34  O2D       -3.8780  -11.4790   17.7300 O.3   403  NAD403     -0.2158
     35  C1D       -4.7840  -13.1990   16.1590 C.3   403  NAD403      0.2263
     36  N1N       -6.1500  -13.5660   16.5380 N.pl3 403  NAD403     -0.2787
     37  C2N       -7.1740  -13.0480   15.7700 C.3   403  NAD403      0.1244
     38  C3N       -8.5000  -13.3510   16.0490 C.2   403  NAD403      0.0544
     39  C7N       -9.6550  -12.8380   15.1830 C.2   403  NAD403      0.2818
     40  O7N      -10.8140  -12.8910   15.5830 O.2   403  NAD403     -0.2670
     41  N7N       -9.3530  -12.3900   13.9620 N.am  403  NAD403     -0.0839
     42  C4N       -8.7570  -14.1750   17.1400 C.2   403  NAD403      0.0033
     43  C5N       -7.7190  -14.6940   17.9230 C.2   403  NAD403      0.0157
     44  C6N       -6.4080  -14.3940   17.6380 C.2   403  NAD403      0.0633
@<TRIPOS>BOND
     1    19    20    1
     2    19    17    2
     3    20    21    1
     4    18    17    1
     5    17    16    1
     6    21    22    2
     7    16    22    1
     8    16    15    2
     9    22    13    1
    10    15    14    1
    11    13    14    1
    12    13    12    1
    13    12     7    1
    14    12    10    1
    15     7     6    1
    16    41    39   am
    17     6     8    1
    18     6     5    1
    19    39    40    2
    20    39    38    1
    21    10    11    1
    22    10     8    1
    23    30    29    1
    24    30    35    1
    25    29    28    1
    26    29    31    1
    27     9     8    1
    28    32    31    1
    29    37    38    1
    30    37    36    1
    31     5     4    1
    32    28    27    1
    33    38    42    2
    34    35    36    1
    35    35    33    1
    36    31    33    1
    37    36    44    1
    38     4     1    1
    39    42    43    1
    40    26    24    2
    41    33    34    1
    42    27    24    1
    43    44    43    2
    44    24    23    1
    45    24    25    1
    46    23     1    1
    47     1     3    2
    48     1     2    1
