@<TRIPOS>MOLECULE
1axg_NAD_A_1.pdb
 44 48 0 0 0
SMALL
GASTEIGER

@<TRIPOS>ATOM
      1  PA        -0.9610   17.3480  -18.0930 P.3   403  NAD403      0.2189
      2  O1A       -1.0140   18.6390  -18.8330 O.2   403  NAD403     -0.5170
      3  O2A        0.1740   16.4410  -18.3860 O.3   403  NAD403     -0.4371
      4  O5B       -0.7830   17.6520  -16.5250 O.3   403  NAD403     -0.3112
      5  C5B        0.1990   16.9450  -15.7420 C.3   403  NAD403      0.1813
      6  C4B        0.9890   18.0410  -15.0650 C.3   403  NAD403      0.1821
      7  O4B        1.5230   17.6150  -13.8140 O.3   403  NAD403     -0.3135
      8  C3B        2.1300   18.5540  -15.9160 C.3   403  NAD403      0.2184
      9  O3B        2.2740   19.9720  -15.8960 O.3   403  NAD403     -0.2174
     10  C2B        3.3370   17.8990  -15.2780 C.3   403  NAD403      0.2570
     11  O2B        4.5130   18.7020  -15.4470 O.3   403  NAD403     -0.2130
     12  C1B        2.9320   17.8650  -13.8260 C.3   403  NAD403      0.3186
     13  N9A        3.6890   16.8940  -13.0240 N.pl3 403  NAD403     -0.1439
     14  C8A        4.2070   15.7300  -13.4440 C.3   403  NAD403      0.3377
     15  N7A        4.8330   15.0750  -12.4590 N.2   403  NAD403     -0.2095
     16  C5A        4.6600   15.8780  -11.4280 C.2   403  NAD403      0.2526
     17  C6A        5.1510   15.6140  -10.1610 C.2   403  NAD403      0.4393
     18  N6A        5.8200   14.4950   -9.9050 N.pl3 403  NAD403      0.2180
     19  N1A        4.9240   16.5830   -9.2500 N.2   403  NAD403      0.0021
     20  C2A        4.2650   17.7070   -9.5410 C.3   403  NAD403      0.5254
     21  N3A        3.7840   17.9490  -10.7640 N.2   403  NAD403     -0.0055
     22  C4A        3.9720   17.0330  -11.7380 C.2   403  NAD403      0.3518
     23  O3        -2.3690   16.5410  -18.1330 O.3   403  NAD403     -0.2703
     24  PN        -3.8830   16.7700  -17.6320 P.3   403  NAD403      0.2189
     25  O1N       -4.8450   16.7170  -18.7570 O.2   403  NAD403     -0.5170
     26  O2N       -3.9460   17.9550  -16.7440 O.3   403  NAD403     -0.4371
     27  O5D       -4.2470   15.4360  -16.8250 O.3   403  NAD403     -0.3112
     28  C5D       -3.4930   15.0200  -15.6950 C.3   403  NAD403      0.1813
     29  C4D       -3.9630   13.6600  -15.2020 C.3   403  NAD403      0.1799
     30  O4D       -5.3680   13.6640  -14.9210 O.3   403  NAD403     -0.3327
     31  C3D       -3.7540   12.5340  -16.1830 C.3   403  NAD403      0.2158
     32  O3D       -3.3990   11.3550  -15.4780 O.3   403  NAD403     -0.2175
     33  C2D       -5.0930   12.3420  -16.8540 C.3   403  NAD403      0.2309
     34  O2D       -5.1780   11.0080  -17.3480 O.3   403  NAD403     -0.2158
     35  C1D       -6.0110   12.6060  -15.6810 C.3   403  NAD403      0.2263
     36  N1N       -7.4120   12.9520  -16.0510 N.pl3 403  NAD403     -0.2787
     37  C2N       -8.4450   12.2800  -15.3960 C.3   403  NAD403      0.1244
     38  C3N       -9.7680   12.5730  -15.6860 C.2   403  NAD403      0.0544
     39  C7N      -10.8930   11.8620  -14.9350 C.2   403  NAD403      0.2818
     40  O7N      -12.0110   11.7180  -15.4300 O.2   403  NAD403     -0.2670
     41  N7N      -10.5920   11.4260  -13.7200 N.am  403  NAD403     -0.0839
     42  C4N      -10.0520   13.5470  -16.6470 C.2   403  NAD403      0.0033
     43  C5N       -9.0390   14.2380  -17.3040 C.2   403  NAD403      0.0157
     44  C6N       -7.7150   13.9370  -17.0010 C.2   403  NAD403      0.0633
@<TRIPOS>BOND
     1     2     1    2
     2    25    24    2
     3     3     1    1
     4    23     1    1
     5    23    24    1
     6     1     4    1
     7    24    27    1
     8    24    26    1
     9    34    33    1
    10    43    44    2
    11    43    42    1
    12    44    36    1
    13    33    31    1
    14    33    35    1
    15    27    28    1
    16    42    38    2
    17     4     5    1
    18    31    32    1
    19    31    29    1
    20    36    35    1
    21    36    37    1
    22     8     9    1
    23     8    10    1
    24     8     6    1
    25     5     6    1
    26    28    29    1
    27    38    37    1
    28    38    39    1
    29    35    30    1
    30    11    10    1
    31    40    39    2
    32    10    12    1
    33    29    30    1
    34     6     7    1
    35    39    41   am
    36    12     7    1
    37    12    13    1
    38    14    13    1
    39    14    15    1
    40    13    22    1
    41    15    16    2
    42    22    16    1
    43    22    21    2
    44    16    17    1
    45    21    20    1
    46    17    18    1
    47    17    19    2
    48    20    19    1
