@<TRIPOS>MOLECULE
1axj_FMN_A_1.pdb
 50 52 0 0 0
SMALL
GASTEIGER

@<TRIPOS>ATOM
      1  N1         5.4880    4.0510    8.7590 N.2   123  FMN123     -0.3025
      2  C2         4.1580    3.8510    8.8550 C.1   123  FMN123      0.2727
      3  O2         3.4350    4.7230    9.3040 O.2   123  FMN123     -0.1927
      4  N3         3.6100    2.6730    8.4000 N.am  123  FMN123     -0.1956
      5  C4         4.4010    1.6660    7.8670 C.2   123  FMN123      0.2930
      6  O4         3.8960    0.5990    7.5050 O.2   123  FMN123     -0.2661
      7  C4A        5.7980    1.9310    7.7240 C.2   123  FMN123      0.2302
      8  N5         6.6250    1.0270    7.1660 N.2   123  FMN123     -0.3926
      9  C5A        7.8990    1.3460    6.8640 C.2   123  FMN123      0.1360
     10  C6         8.6790    0.4020    6.1680 C.2   123  FMN123     -0.0226
     11  C7         9.9770    0.7240    5.7300 C.2   123  FMN123     -0.0587
     12  C7M       10.7830   -0.3010    4.9450 C.3   123  FMN123     -0.0425
     13  C8        10.4970    2.0090    6.0020 C.3   123  FMN123      0.0216
     14  C8M       11.8850    2.4060    5.5290 C.3   123  FMN123     -0.0512
     15  C9         9.7150    2.9480    6.7050 C.2   123  FMN123     -0.0484
     16  C9A        8.4130    2.6380    7.1500 C.2   123  FMN123      0.0706
     17  N10        7.6270    3.5550    7.8500 N.pl3 123  FMN123     -0.2669
     18  C10        6.3140    3.1880    8.1360 C.2   123  FMN123      0.2351
     19  C1'        8.1800    4.8530    8.3940 C.3   123  FMN123      0.0482
     20  C2'        7.7880    6.1530    7.6460 C.3   123  FMN123      0.0996
     21  O2'        6.3900    6.3430    7.6330 O.3   123  FMN123     -0.3876
     22  C3'        8.3190    6.2580    6.2060 C.3   123  FMN123      0.1104
     23  O3'        9.7130    6.4540    6.2190 O.3   123  FMN123     -0.3865
     24  C4'        7.7120    7.4360    5.4140 C.3   123  FMN123      0.1073
     25  O4'        8.4310    7.6670    4.2210 O.3   123  FMN123     -0.3868
     26  C5'        7.6330    8.8050    6.1020 C.3   123  FMN123      0.0876
     27  O5'        6.7910    9.5820    5.2770 O.3   123  FMN123     -0.2809
     28  P          6.1610   10.9690    5.7670 P.3   123  FMN123      0.5320
     29  O1P        7.1200   12.1550    5.3190 O.3   123  FMN123     -0.1145
     30  O2P        6.1190   10.9830    7.2450 O.3   123  FMN123     -0.1145
     31  O3P        4.8800   11.1260    5.0360 O.2   123  FMN123     -0.2224
     32  HN3        2.5900    2.6230    8.3950 H     123  FMN123      0.1693
     33  H6         8.2550   -0.5650    5.9310 H     123  FMN123      0.0650
     34 HM71       10.1380   -1.1040    4.5880 H     123  FMN123      0.0275
     35 HM72       11.2420    0.1690    4.0750 H     123  FMN123      0.0275
     36 HM73       11.5710   -0.7110    5.5780 H     123  FMN123      0.0275
     37 HM81       12.6180    1.6680    5.8520 H     123  FMN123      0.0241
     38 HM82       11.8960    2.4830    4.4410 H     123  FMN123      0.0241
     39 HM83       12.1660    3.3750    5.9430 H     123  FMN123      0.0241
     40  H9        10.1290    3.9270    6.8820 H     123  FMN123      0.0600
     41 H1'1        7.8460    4.9610    9.4220 H     123  FMN123      0.0495
     42 H1'2        9.2640    4.8220    8.4610 H     123  FMN123      0.0495
     43  H2'        8.2130    6.9870    8.2100 H     123  FMN123      0.0636
     44 HO2'        6.1470    7.0760    8.2280 H     123  FMN123      0.2100
     45  H3'        8.0830    5.3340    5.6730 H     123  FMN123      0.0646
     46 HO3'        9.9020    6.9050    5.3870 H     123  FMN123      0.2100
     47  H4'        6.6890    7.1580    5.1570 H     123  FMN123      0.0643
     48 HO4'        8.1420    8.5480    3.9250 H     123  FMN123      0.2100
     49 H5'1        7.1720    8.7230    7.0850 H     123  FMN123      0.0592
     50 H5'2        8.6100    9.2780    6.2030 H     123  FMN123      0.0592
@<TRIPOS>BOND
     1    48    25    1
     2    35    12    1
     3    25    24    1
     4    38    14    1
     5    34    12    1
     6    12    36    1
     7    12    11    1
     8    31    28    2
     9    47    24    1
    10    27    28    1
    11    27    26    1
    12    29    28    1
    13    46    23    1
    14    24    26    1
    15    24    22    1
    16    14    37    1
    17    14    39    1
    18    14    13    1
    19    45    22    1
    20    11    13    1
    21    11    10    2
    22    28    30    1
    23    33    10    1
    24    13    15    1
    25    26    50    1
    26    26    49    1
    27    10     9    1
    28    22    23    1
    29    22    20    1
    30    15    40    1
    31    15    16    2
    32     9    16    1
    33     9     8    2
    34    16    17    1
    35     8     7    2
    36     6     5    2
    37    21    20    1
    38    21    44    1
    39    20    43    1
    40    20    19    1
    41     7     5    1
    42     7    18    1
    43    17    18    1
    44    17    19    1
    45     5     4   am
    46    18     1    2
    47    19    42    1
    48    19    41    1
    49    32     4    1
    50     4     2   am
    51     1     2    2
    52     2     3    2
