@<TRIPOS>MOLECULE
1axm_IDS_B_1.pdb
 16 16 0 0 0
SMALL
GASTEIGER

@<TRIPOS>ATOM
      1  C1       -14.4920    0.7200   44.7420 C.3   302  IDS302      0.1774
      2  C2       -14.4530    1.1740   43.2750 C.3   302  IDS302      0.2054
      3  C3       -15.7800    1.7570   42.7560 C.3   302  IDS302      0.2169
      4  C4       -16.6270    2.4570   43.8500 C.3   302  IDS302      0.2227
      5  C5       -16.5530    1.6910   45.1300 C.3   302  IDS302      0.2512
      6  C6       -17.4280    2.2290   46.2000 C.2   302  IDS302      0.3940
      7  O2       -13.4350    2.1390   43.0860 O.3   302  IDS302     -0.2384
      8  O3       -16.5460    0.7020   42.2210 O.3   302  IDS302     -0.2175
      9  O4       -16.1110    3.7330   44.0960 O.3   302  IDS302     -0.2171
     10  O5       -15.2230    1.6230   45.5380 O.3   302  IDS302     -0.3403
     11  O61      -16.9720    2.4770   47.3040 O.co2 302  IDS302     -0.2429
     12  O62      -18.6130    2.4240   45.9850 O.co2 302  IDS302     -0.2429
     13  S        -12.7920    2.5480   41.7230 S.3   302  IDS302     -0.0001
     14  O1S      -13.3670    3.8030   41.3860 O.2   302  IDS302     -0.3452
     15  O2S      -11.3850    2.6160   41.9120 O.3   302  IDS302     -0.2682
     16  O3S      -13.1810    1.5450   40.8080 O.2   302  IDS302     -0.3452
@<TRIPOS>BOND
     1    16    13    2
     2    14    13    2
     3    13    15    1
     4    13     7    1
     5     8     3    1
     6     3     2    1
     7     3     4    1
     8     7     2    1
     9     2     1    1
    10     4     9    1
    11     4     5    1
    12     1    10    1
    13     5    10    1
    14     5     6    1
    15    12     6   ar
    16     6    11   ar
