@<TRIPOS>MOLECULE
1axm_SGN_B_1.pdb
 19 19 0 0 0
SMALL
GASTEIGER

@<TRIPOS>ATOM
      1  C1       -16.9500    4.8330   43.8340 C.3   303  SGN303      0.1640
      2  C2       -16.1240    5.8780   43.0900 C.3   303  SGN303      0.1563
      3  C3       -15.0160    6.4380   43.9950 C.3   303  SGN303      0.2047
      4  C4       -15.6520    6.9750   45.3310 C.3   303  SGN303      0.2131
      5  C5       -16.4750    5.8310   45.9360 C.3   303  SGN303      0.1800
      6  C6       -17.1770    6.1530   47.2190 C.3   303  SGN303      0.2045
      7  N        -15.5770    5.2840   41.8720 N.3   303  SGN303     -0.1156
      8  O3       -14.3820    7.4910   43.3150 O.3   303  SGN303     -0.2187
      9  O4       -14.6250    7.3000   46.2210 O.3   303  SGN303     -0.2176
     10  O5       -17.4750    5.4000   45.0230 O.3   303  SGN303     -0.3493
     11  O6       -18.0500    7.1890   46.9590 O.3   303  SGN303     -0.2384
     12  S1       -16.4560    5.4570   40.5360 S.3   303  SGN303     -0.1289
     13  O1S      -17.7830    4.9700   40.8270 O.3   303  SGN303     -0.2919
     14  O2S      -16.4650    6.8640   40.2830 O.3   303  SGN303     -0.2919
     15  O3S      -15.7920    4.7050   39.5480 O.3   303  SGN303     -0.2919
     16  S2       -19.3520    7.4600   47.7600 S.3   303  SGN303     -0.0001
     17  O4S      -18.9480    7.6700   49.1230 O.3   303  SGN303     -0.2682
     18  O5S      -19.9120    8.6490   47.1620 O.2   303  SGN303     -0.3452
     19  O6S      -20.1910    6.2830   47.5920 O.2   303  SGN303     -0.3452
@<TRIPOS>BOND
     1    15    12    1
     2    14    12    1
     3    12    13    1
     4    12     7    1
     5     7     2    1
     6     2     1    1
     7     2     3    1
     8     8     3    1
     9     1    10    1
    10     3     4    1
    11    10     5    1
    12     4     5    1
    13     4     9    1
    14     5     6    1
    15    11     6    1
    16    11    16    1
    17    18    16    2
    18    19    16    2
    19    16    17    1
