@<TRIPOS>MOLECULE
1axr_PLP_A_1.pdb
 15 15 0 0 0
SMALL
GASTEIGER

@<TRIPOS>ATOM
      1  N1        24.7050   25.6370   29.8540 N.2   999  PLP999     -0.2764
      2  C2        23.5710   24.9580   30.1520 C.2   999  PLP999      0.0619
      3  C2A       22.7220   25.4780   31.2440 C.3   999  PLP999      0.0495
      4  C3        23.3000   23.7370   29.5480 C.3   999  PLP999      0.1872
      5  O3        22.0290   23.1980   29.5560 O.3   999  PLP999     -0.2170
      6  C4        24.1970   23.1980   28.6790 C.3   999  PLP999      0.0403
      7  C4A       24.0250   21.7090   28.2560 C.3   999  PLP999      0.0032
      8  C5        25.3180   23.9320   28.3120 C.3   999  PLP999      0.0574
      9  C6        25.5800   25.1200   28.9510 C.3   999  PLP999      0.1274
     10  C5A       25.9590   23.7120   26.8960 C.3   999  PLP999      0.1558
     11  O4P       25.9350   24.8550   26.0220 O.3   999  PLP999     -0.2702
     12  P         27.0730   24.8600   24.9110 P.3   999  PLP999      0.5326
     13  O1P       27.5760   23.5550   24.4190 O.3   999  PLP999     -0.1145
     14  O2P       26.0520   24.9740   23.7610 O.2   999  PLP999     -0.2224
     15  O3P       27.8000   26.0610   24.8540 O.3   999  PLP999     -0.1145
@<TRIPOS>BOND
     1    14    12    2
     2    13    12    1
     3    15    12    1
     4    12    11    1
     5    11    10    1
     6    10     8    1
     7     7     6    1
     8     8     6    1
     9     8     9    1
    10     6     4    1
    11     9     1    1
    12     4     5    1
    13     4     2    1
    14     1     2    2
    15     2     3    1
