@<TRIPOS>MOLECULE
1axr_HTP_A_1.pdb
 14 15 0 0 0
SMALL
GASTEIGER

@<TRIPOS>ATOM
      1  C1        34.1300   22.4540   27.2440 C.ar  998  HTP998      0.1110
      2  C2        34.0150   22.8750   25.7920 C.3   998  HTP998      0.2256
      3  C3        32.6100   22.4600   25.2760 C.3   998  HTP998      0.2200
      4  C4        32.3490   20.9990   25.6100 C.3   998  HTP998      0.2099
      5  C5        32.1530   20.8530   27.1400 C.3   998  HTP998      0.1722
      6  C6        32.0400   19.4280   27.6180 C.3   998  HTP998      0.2090
      7  C7        35.0110   22.8020   28.2190 C.ar  998  HTP998      0.1407
      8  N17       33.6460   21.2760   29.1170 N.ar  998  HTP998     -0.0639
      9  N18       34.7380   22.1040   29.3320 N.ar  998  HTP998     -0.1274
     10  N1        33.2430   21.4890   27.8060 N.ar  998  HTP998     -0.2299
     11  O2        34.2970   24.2490   25.5610 O.3   998  HTP998     -0.2138
     12  O3        32.5880   22.6280   23.8830 O.3   998  HTP998     -0.2172
     13  O4        31.2450   20.4370   24.9220 O.3   998  HTP998     -0.2181
     14  O6        33.1410   18.7010   27.0730 O.3   998  HTP998     -0.2182
@<TRIPOS>BOND
     1    12     3    1
     2    13     4    1
     3     3     4    1
     4     3     2    1
     5    11     2    1
     6     4     5    1
     7     2     1    1
     8    14     6    1
     9     5     6    1
    10     5    10    1
    11     1    10   ar
    12     1     7   ar
    13    10     8   ar
    14     7     9   ar
    15     8     9   ar
