@<TRIPOS>MOLECULE
1axs_HOP_B_1.pdb
 28 30 0 0 0
SMALL
GASTEIGER

@<TRIPOS>ATOM
      1  C1        28.1210   80.0180  125.5680 C.ar  1004  HOP1004    -0.0000
      2  C2        26.8610   80.0780  124.9160 C.ar  1004  HOP1004    -0.0003
      3  C6        28.2790   80.4970  126.8920 C.ar  1004  HOP1004    -0.0003
      4  C5        27.1720   81.0400  127.5710 C.ar  1004  HOP1004    -0.0043
      5  C4        25.8860   81.1090  126.9280 C.ar  1004  HOP1004    -0.0224
      6  C3        25.7530   80.6200  125.5940 C.ar  1004  HOP1004    -0.0043
      7  C7        24.6590   81.7120  127.6660 C.3   1004  HOP1004     0.0249
      8  C12       24.7510   83.2660  127.8150 C.3   1004  HOP1004     0.0376
      9  C11       23.5340   83.8480  128.5570 C.3   1004  HOP1004     0.1563
     10  C10       23.3800   83.2130  129.9890 C.3   1004  HOP1004     0.0527
     11  C9        23.2360   81.6590  129.8400 C.3   1004  HOP1004     0.0072
     12  C8        24.4440   81.0500  129.0760 C.3   1004  HOP1004     0.0049
     13  C13       22.1500   83.7730  130.7970 C.ar  1004  HOP1004    -0.0200
     14  C14       20.8140   83.5900  130.3320 C.ar  1004  HOP1004    -0.0041
     15  C15       19.7220   84.0880  131.0780 C.ar  1004  HOP1004     0.0042
     16  C16       19.9210   84.7850  132.3170 C.ar  1004  HOP1004     0.0550
     17  C17       21.2680   84.9670  132.7780 C.ar  1004  HOP1004     0.0042
     18  C18       22.3630   84.4690  132.0290 C.ar  1004  HOP1004    -0.0041
     19  O19       23.7010   85.2500  128.6370 O.3   1004  HOP1004    -0.2228
     20  C20       18.7230   85.3080  133.1150 C.2   1004  HOP1004     0.2648
     21  O21       18.5220   86.5290  133.2340 O.2   1004  HOP1004    -0.2684
     22  N22       17.8760   84.4020  133.6910 N.am  1004  HOP1004    -0.2017
     23  C23       16.6730   84.7540  134.4890 C.3   1004  HOP1004     0.1160
     24  C24       15.5110   83.8110  134.1180 C.3   1004  HOP1004     0.0352
     25  C25       14.1250   84.4570  134.3320 C.3   1004  HOP1004     0.1159
     26  C26       13.2880   83.7790  135.4140 C.2   1004  HOP1004     0.3649
     27  O27       13.5320   83.8630  136.6260 O.co2 1004  HOP1004    -0.2457
     28  O28       12.2370   83.0700  134.8920 O.co2 1004  HOP1004    -0.2457
@<TRIPOS>BOND
     1     2     1   ar
     2     2     6   ar
     3     1     3   ar
     4     6     5   ar
     5     3     4   ar
     6     5     4   ar
     7     5     7    1
     8     7     8    1
     9     7    12    1
    10     8     9    1
    11     9    19    1
    12     9    10    1
    13    12    11    1
    14    11    10    1
    15    10    13    1
    16    14    13   ar
    17    14    15   ar
    18    13    18   ar
    19    15    16   ar
    20    18    17   ar
    21    16    17   ar
    22    16    20    1
    23    20    21    2
    24    20    22   am
    25    22    23    1
    26    24    25    1
    27    24    23    1
    28    25    26    1
    29    28    26   ar
    30    26    27   ar
