@<TRIPOS>MOLECULE
1axw_UMP_A_1.pdb
 20 21 0 0 0
SMALL
GASTEIGER

@<TRIPOS>ATOM
      1  N1        17.3730   20.0740   31.5500 N.am  603  UMP603     -0.1790
      2  C2        18.1930   20.1270   32.6890 C.1   603  UMP603      0.2844
      3  N3        19.1560   19.1290   32.7630 N.2   603  UMP603     -0.2452
      4  C4        19.3630   18.1210   31.8210 C.1   603  UMP603      0.2182
      5  C5        18.4630   18.1520   30.6800 C.2   603  UMP603      0.1242
      6  C6        17.4900   19.1480   30.6040 C.2   603  UMP603      0.0928
      7  O2        18.1140   20.9740   33.5640 O.2   603  UMP603     -0.1918
      8  O4        20.2520   17.2850   31.9380 O.2   603  UMP603     -0.2085
      9  C1'       16.2940   21.0690   31.2930 C.3   603  UMP603      0.2090
     10  C2'       16.6280   22.4990   30.8620 C.3   603  UMP603      0.0874
     11  C3'       15.2740   23.0320   30.4130 C.3   603  UMP603      0.1857
     12  C4'       14.6300   21.9080   29.5780 C.3   603  UMP603      0.1774
     13  O3'       14.4990   23.2130   31.6240 O.3   603  UMP603     -0.2203
     14  O4'       15.2360   20.7200   30.2760 O.3   603  UMP603     -0.3339
     15  C5'       15.1040   21.9520   28.1210 C.3   603  UMP603      0.1858
     16  O5'       14.4360   23.0640   27.4200 O.3   603  UMP603     -0.2675
     17  P         15.1890   24.0290   26.4190 P.3   603  UMP603      0.5327
     18  OP1       14.2780   24.9680   25.7570 O.3   603  UMP603     -0.1145
     19  OP2       16.1470   24.7660   27.2650 O.3   603  UMP603     -0.1145
     20  OP3       15.8660   23.2580   25.3810 O.2   603  UMP603     -0.2224
@<TRIPOS>BOND
     1    20    17    2
     2    18    17    1
     3    17    19    1
     4    17    16    1
     5    16    15    1
     6    15    12    1
     7    12    14    1
     8    12    11    1
     9    14     9    1
    10    11    10    1
    11    11    13    1
    12     6     5    2
    13     6     1    1
    14     5     4    1
    15    10     9    1
    16     9     1    1
    17     1     2   am
    18     4     8    2
    19     4     3    2
    20     2     3    2
    21     2     7    2
