@<TRIPOS>MOLECULE
1axw_MTX_A_1.pdb
 33 35 0 0 0
SMALL
GASTEIGER

@<TRIPOS>ATOM
      1  N1        13.0510   18.5780   30.6090 N.2   732  MTX732     -0.2684
      2  C2        12.7190   19.2970   31.7160 C.1   732  MTX732      0.2519
      3  NA2       11.9280   20.3600   31.6080 N.pl3 732  MTX732     -0.0226
      4  N3        13.3660   19.0850   32.8990 N.2   732  MTX732     -0.3033
      5  C4        14.3480   18.1610   33.0240 C.2   732  MTX732      0.2728
      6  NA4       15.0090   18.0100   34.1750 N.pl3 732  MTX732     -0.0887
      7  C4A       14.7220   17.4150   31.8990 C.2   732  MTX732      0.2518
      8  N5        15.8050   16.6360   31.9450 N.2   732  MTX732     -0.3917
      9  C6        15.9830   15.6940   30.9870 C.2   732  MTX732      0.1330
     10  C7        15.5430   16.0140   29.5940 C.3   732  MTX732      0.1930
     11  N8        14.4090   17.0000   29.5320 N.2   732  MTX732     -0.1998
     12  C8A       14.0560   17.6840   30.6560 C.1   732  MTX732      0.1314
     13  C9        16.5280   14.3510   31.3060 C.3   732  MTX732      0.1481
     14  N10       16.8190   14.1730   32.7520 N.pl3 732  MTX732     -0.2999
     15  CM        18.2880   14.3680   33.0200 C.3   732  MTX732      0.1125
     16  C11       13.9530   13.5680   35.8110 C.ar  732  MTX732      0.0551
     17  C12       15.3080   13.8640   36.1260 C.ar  732  MTX732      0.0058
     18  C13       16.2420   14.0800   35.1060 C.ar  732  MTX732      0.0147
     19  C14       15.8620   14.0080   33.7410 C.ar  732  MTX732      0.0482
     20  C15       14.4890   13.7410   33.4320 C.ar  732  MTX732      0.0147
     21  C16       13.5390   13.5220   34.4500 C.ar  732  MTX732      0.0058
     22  C         13.0110   13.2650   36.9100 C.2   732  MTX732      0.2652
     23  O         11.8060   13.0480   36.7430 O.2   732  MTX732     -0.2684
     24  N         13.5420   13.2200   38.1480 N.am  732  MTX732     -0.1918
     25  CA        12.9340   12.8590   39.4640 C.3   732  MTX732      0.1986
     26  CT        13.8750   13.1250   40.6460 C.2   732  MTX732      0.3842
     27  O1        15.0460   12.6840   40.6010 O.co2 732  MTX732     -0.2437
     28  O2        13.4330   13.7990   41.6010 O.co2 732  MTX732     -0.2437
     29  CB        12.4740   11.3880   39.4520 C.3   732  MTX732      0.0451
     30  CG        13.5510   10.3770   39.0330 C.3   732  MTX732      0.1164
     31  CD        12.9820    9.0380   38.5780 C.2   732  MTX732      0.3649
     32  OE1       13.3380    7.9950   39.1770 O.co2 732  MTX732     -0.2457
     33  OE2       12.2080    9.0170   37.5940 O.co2 732  MTX732     -0.2457
@<TRIPOS>BOND
     1    11    10    1
     2    11    12    2
     3    10     9    1
     4     1    12    2
     5     1     2    2
     6    12     7    1
     7     9    13    1
     8     9     8    2
     9    13    14    1
    10     3     2    1
    11     2     4    2
    12     7     8    2
    13     7     5    1
    14    14    15    1
    15    14    19    1
    16     4     5    2
    17     5     6    1
    18    20    19   ar
    19    20    21   ar
    20    19    18   ar
    21    21    16   ar
    22    18    17   ar
    23    16    17   ar
    24    16    22    1
    25    23    22    2
    26    22    24   am
    27    33    31   ar
    28    24    25    1
    29    31    30    1
    30    31    32   ar
    31    30    29    1
    32    29    25    1
    33    25    26    1
    34    27    26   ar
    35    26    28   ar
