@<TRIPOS>MOLECULE
1axy_NAG_A_1.pdb
 14 14 0 0 0
SMALL
GASTEIGER

@<TRIPOS>ATOM
      1  C1        -3.6080   -6.9260    5.3220 C.3   301  NAG301      0.1665
      2  C2        -4.5800   -5.7460    5.2180 C.3   301  NAG301      0.1576
      3  C3        -5.3220   -5.8020    3.8620 C.3   301  NAG301      0.2069
      4  C4        -4.3320   -5.9580    2.6940 C.3   301  NAG301      0.2134
      5  C5        -3.3870   -7.1350    2.9730 C.3   301  NAG301      0.1809
      6  C6        -2.3260   -7.3490    1.9200 C.3   301  NAG301      0.2141
      7  C7        -5.4820   -4.9520    7.3270 C.2   301  NAG301      0.2420
      8  C8        -6.5290   -5.0950    8.4220 C.3   301  NAG301      0.0964
      9  N2        -5.5440   -5.8110    6.3090 N.am  301  NAG301     -0.2019
     10  O3        -6.1100   -4.6050    3.6890 O.3   301  NAG301     -0.2184
     11  O4        -5.0560   -6.2050    1.4670 O.3   301  NAG301     -0.2176
     12  O5        -2.7020   -6.9350    4.2210 O.3   301  NAG301     -0.3489
     13  O6        -1.5620   -6.1740    1.7200 O.3   301  NAG301     -0.2176
     14  O7        -4.6420   -4.0570    7.3990 O.2   301  NAG301     -0.2733
@<TRIPOS>BOND
     1    11     4    1
     2    13     6    1
     3     6     5    1
     4     4     5    1
     5     4     3    1
     6     5    12    1
     7    10     3    1
     8     3     2    1
     9    12     1    1
    10     2     1    1
    11     2     9    1
    12     9     7   am
    13     7    14    2
    14     7     8    1
