@<TRIPOS>MOLECULE
1axz_GLA_A_1.pdb
 12 12 0 0 0
SMALL
GASTEIGER

@<TRIPOS>ATOM
      1  C1        17.0610   -1.2330   36.4420 C.3   401  GLA401      0.3024
      2  C2        16.0520   -0.6550   35.4450 C.3   401  GLA401      0.2434
      3  C3        14.6560   -1.2150   35.7110 C.3   401  GLA401      0.2199
      4  C4        14.7220   -2.7380   35.7120 C.3   401  GLA401      0.2144
      5  C5        15.7800   -3.2250   36.7020 C.3   401  GLA401      0.1836
      6  C6        15.9410   -4.7310   36.7060 C.3   401  GLA401      0.2142
      7  O1        16.7160   -0.8680   37.7330 O.3   401  GLA401     -0.1869
      8  O2        16.0250    0.7570   35.5630 O.3   401  GLA401     -0.2148
      9  O3        13.7510   -0.7720   34.7050 O.3   401  GLA401     -0.2174
     10  O4        15.0480   -3.1970   34.4090 O.3   401  GLA401     -0.2176
     11  O5        17.0660   -2.6610   36.3710 O.3   401  GLA401     -0.3236
     12  O6        16.7190   -5.1460   37.8200 O.3   401  GLA401     -0.2176
@<TRIPOS>BOND
     1    10     4    1
     2     9     3    1
     3     2     8    1
     4     2     3    1
     5     2     1    1
     6     3     4    1
     7     4     5    1
     8    11     1    1
     9    11     5    1
    10     1     7    1
    11     5     6    1
    12     6    12    1
