@<TRIPOS>MOLECULE
1axz_GAL_A_1.pdb
 12 12 0 0 0
SMALL
GASTEIGER

@<TRIPOS>ATOM
      1  C1        16.9890   -1.2610   36.5220 C.3   402  GAL402      0.3024
      2  C2        16.0000   -0.6800   35.5100 C.3   402  GAL402      0.2434
      3  C3        14.6050   -1.2400   35.7680 C.3   402  GAL402      0.2199
      4  C4        14.6550   -2.7660   35.7620 C.3   402  GAL402      0.2144
      5  C5        15.7010   -3.2540   36.7620 C.3   402  GAL402      0.1836
      6  C6        15.8620   -4.7600   36.7480 C.3   402  GAL402      0.2142
      7  O1        18.2680   -0.8220   36.2290 O.3   402  GAL402     -0.1869
      8  O2        15.9770    0.7360   35.6220 O.3   402  GAL402     -0.2148
      9  O3        13.7100   -0.7840   34.7630 O.3   402  GAL402     -0.2174
     10  O4        14.9850   -3.2320   34.4610 O.3   402  GAL402     -0.2176
     11  O5        16.9880   -2.6890   36.4490 O.3   402  GAL402     -0.3236
     12  O6        16.7250   -5.1870   37.7910 O.3   402  GAL402     -0.2176
@<TRIPOS>BOND
     1    10     4    1
     2     9     3    1
     3     2     8    1
     4     2     3    1
     5     2     1    1
     6     4     3    1
     7     4     5    1
     8     7     1    1
     9    11     1    1
    10    11     5    1
    11     6     5    1
    12     6    12    1
