@<TRIPOS>MOLECULE
1axz_NAG_A_1.pdb
 14 14 0 0 0
SMALL
GASTEIGER

@<TRIPOS>ATOM
      1  C1        -3.5970   -7.0200    5.3350 C.3   301  NAG301      0.1665
      2  C2        -4.5620   -5.8400    5.2180 C.3   301  NAG301      0.1576
      3  C3        -5.3170   -5.9140    3.8820 C.3   301  NAG301      0.2069
      4  C4        -4.3310   -6.0600    2.7150 C.3   301  NAG301      0.2134
      5  C5        -3.3930   -7.2350    2.9790 C.3   301  NAG301      0.1809
      6  C6        -2.3410   -7.4170    1.9030 C.3   301  NAG301      0.2141
      7  C7        -5.4570   -4.9730    7.2970 C.2   301  NAG301      0.2420
      8  C8        -6.5020   -5.0960    8.3980 C.3   301  NAG301      0.0964
      9  N2        -5.5120   -5.8730    6.3160 N.am  301  NAG301     -0.2019
     10  O3        -6.1010   -4.7190    3.7080 O.3   301  NAG301     -0.2184
     11  O4        -5.0560   -6.2900    1.4900 O.3   301  NAG301     -0.2176
     12  O5        -2.6990   -7.0340    4.2230 O.3   301  NAG301     -0.3489
     13  O6        -1.6380   -6.2080    1.6730 O.3   301  NAG301     -0.2176
     14  O7        -4.6180   -4.0710    7.3440 O.2   301  NAG301     -0.2733
@<TRIPOS>BOND
     1    11     4    1
     2    13     6    1
     3     6     5    1
     4     4     5    1
     5     4     3    1
     6     5    12    1
     7    10     3    1
     8     3     2    1
     9    12     1    1
    10     2     1    1
    11     2     9    1
    12     9     7   am
    13     7    14    2
    14     7     8    1
