@<TRIPOS>MOLECULE
1ay0_TPP_A_1.pdb
 26 27 0 0 0
SMALL
GASTEIGER

@<TRIPOS>ATOM
      1  N1'       -3.0160   61.0140   19.9440 N.2   682  TPP682     -0.1861
      2  C2'       -2.3220   60.0650   20.5740 C.1   682  TPP682      0.0663
      3  CM2       -1.0400   60.4000   21.1020 C.3   682  TPP682      0.1291
      4  N3'       -2.7990   58.8630   20.7290 N.2   682  TPP682     -0.3368
      5  C4'       -3.9750   58.5180   20.0740 C.2   682  TPP682      0.2292
      6  N4'       -4.3530   57.2970   20.1830 N.pl3 682  TPP682     -0.0925
      7  C5'       -4.7770   59.4930   19.4520 C.2   682  TPP682      0.0654
      8  C6'       -4.2390   60.7330   19.3800 C.2   682  TPP682      0.1115
      9  C7'       -6.1110   59.1820   18.8930 C.3   682  TPP682      0.1237
     10  N3        -5.8620   58.4330   17.6210 N.pl3 682  TPP682     -0.2970
     11  C2        -6.1720   57.1310   17.5180 C.3   682  TPP682      0.1543
     12  S1        -6.3040   56.6190   15.9230 S.3   682  TPP682     -0.0951
     13  C5        -5.8090   58.1630   15.3990 C.2   682  TPP682      0.0164
     14  C4        -5.7390   59.0310   16.4560 C.2   682  TPP682      0.0279
     15  CM4       -5.8850   60.4710   16.3940 C.3   682  TPP682      0.0473
     16  C6        -6.0210   58.5160   13.9570 C.3   682  TPP682      0.0661
     17  C7        -5.7260   57.4610   12.9340 C.3   682  TPP682      0.1544
     18  O7        -4.3060   57.3980   12.7310 O.3   682  TPP682     -0.3134
     19  PA        -3.7310   56.5540   11.5690 P.3   682  TPP682      0.2230
     20  O1A       -4.0440   57.4260   10.4600 O.2   682  TPP682     -0.5169
     21  O2A       -2.2740   56.2960   11.8730 O.3   682  TPP682     -0.4370
     22  O3A       -4.6310   55.2420   11.4490 O.3   682  TPP682     -0.2261
     23  PB        -5.4630   54.3690   10.4150 P.3   682  TPP682      0.5373
     24  O1B       -5.3570   52.9540   10.7880 O.3   682  TPP682     -0.1143
     25  O2B       -6.8210   54.8920   10.5970 O.3   682  TPP682     -0.1143
     26  O3B       -4.8350   54.5960    9.1030 O.2   682  TPP682     -0.2221
@<TRIPOS>BOND
     1    26    23    2
     2    23    25    1
     3    23    24    1
     4    23    22    1
     5    20    19    2
     6    22    19    1
     7    19    21    1
     8    19    18    1
     9    18    17    1
    10    17    16    1
    11    16    13    1
    12    13    12    1
    13    13    14    2
    14    12    11    1
    15    15    14    1
    16    14    10    1
    17    11    10    1
    18    10     9    1
    19     9     7    1
    20     8     7    2
    21     8     1    1
    22     7     5    1
    23     1     2    2
    24     5     6    1
    25     5     4    2
    26     2     4    2
    27     2     3    1
