@<TRIPOS>MOLECULE
1ay4_PLP_A_1.pdb
 15 15 0 0 0
SMALL
GASTEIGER

@<TRIPOS>ATOM
      1  N1        87.3170   19.9040    0.3430 N.ar  413  PLP413     -0.2452
      2  C2        87.2990   19.0380   -0.6830 C.ar  413  PLP413      0.0978
      3  C2A       86.3200   17.8230   -0.6370 C.3   413  PLP413      0.0555
      4  C3        88.1200   19.2420   -1.7490 C.ar  413  PLP413      0.2049
      5  O3        88.0940   18.3410   -2.7580 O.3   413  PLP413     -0.2857
      6  C4        88.9630   20.3770   -1.7780 C.ar  413  PLP413      0.0182
      7  C4A       89.7930   20.6540   -2.8940 C.3   413  PLP413      0.0342
      8  C5        88.9230   21.2450   -0.6830 C.ar  413  PLP413      0.0261
      9  C6        88.1010   20.9890    0.3540 C.ar  413  PLP413      0.0965
     10  C5A       89.7050   22.5020   -0.6120 C.3   413  PLP413      0.1815
     11  O4P       90.8460   22.5850   -1.3440 O.3   413  PLP413     -0.2653
     12  P         91.6740   23.8900   -1.2020 P.3   413  PLP413      0.5329
     13  O1P       90.9600   24.9980   -1.8050 O.3   413  PLP413     -0.1145
     14  O2P       92.9000   23.4690   -2.1630 O.2   413  PLP413     -0.2224
     15  O3P       92.1420   24.0400    0.1910 O.3   413  PLP413     -0.1145
@<TRIPOS>BOND
     1     7     6    1
     2     5     4    1
     3    14    12    2
     4    13    12    1
     5     6     4   ar
     6     6     8   ar
     7     4     2   ar
     8    11    12    1
     9    11    10    1
    10    12    15    1
    11     2     3    1
    12     2     1   ar
    13     8    10    1
    14     8     9   ar
    15     1     9   ar
