@<TRIPOS>MOLECULE
1ay5_PLP_A_1.pdb
 15 15 0 0 0
SMALL
GASTEIGER

@<TRIPOS>ATOM
      1  N1        87.9780   19.9270    0.1990 N.ar  413  PLP413     -0.2452
      2  C2        87.7300   19.0310   -0.7960 C.ar  413  PLP413      0.0978
      3  C2A       86.6060   18.0230   -0.6400 C.3   413  PLP413      0.0555
      4  C3        88.4960   19.0430   -1.9180 C.ar  413  PLP413      0.2049
      5  O3        88.2290   18.1320   -2.9190 O.3   413  PLP413     -0.2857
      6  C4        89.5180   19.9550   -2.0430 C.ar  413  PLP413      0.0182
      7  C4A       90.2610   20.0100   -3.1910 C.3   413  PLP413      0.0342
      8  C5        89.7650   20.8430   -1.0330 C.ar  413  PLP413      0.0261
      9  C6        88.9890   20.8290    0.0800 C.ar  413  PLP413      0.0965
     10  C5A       90.9460   21.7850   -1.1170 C.3   413  PLP413      0.1815
     11  O4P       90.8040   23.0950   -1.6130 O.3   413  PLP413     -0.2653
     12  P         92.1590   23.9250   -1.4120 P.3   413  PLP413      0.5329
     13  O1P       91.8210   25.2600   -1.9490 O.3   413  PLP413     -0.1145
     14  O2P       93.2390   23.2080   -2.2880 O.2   413  PLP413     -0.2224
     15  O3P       92.6390   23.8340   -0.0220 O.3   413  PLP413     -0.1145
@<TRIPOS>BOND
     1     7     6    1
     2     5     4    1
     3    14    12    2
     4     6     4   ar
     5     6     8   ar
     6    13    12    1
     7     4     2   ar
     8    11    12    1
     9    11    10    1
    10    12    15    1
    11    10     8    1
    12     8     9   ar
    13     2     3    1
    14     2     1   ar
    15     9     1   ar
