@<TRIPOS>MOLECULE
1ay6_1ZV_H_1.pdb
 42 44 0 0 0
SMALL
GASTEIGER

@<TRIPOS>ATOM
      1  N         17.3190  -16.9480   23.0000 N.2     5  1ZV5       -0.1989
      2  CA        18.1110  -15.8090   23.6400 C.3     5  1ZV5        0.1909
      3  C         17.7460  -14.5820   22.8500 C.2     5  1ZV5        0.2533
      4  O         16.6020  -14.1560   23.0270 O.2     5  1ZV5       -0.2724
      5  CB        17.6420  -16.1560   25.0680 C.3     5  1ZV5        0.0393
      6  CG        18.6820  -16.0360   26.1020 C.3     5  1ZV5        0.0289
      7  C1        20.1190  -15.7140   25.8120 C.ar    5  1ZV5       -0.0221
      8  C2        21.0200  -16.5740   25.2290 C.ar    5  1ZV5       -0.0043
      9  C6        20.6460  -14.4790   26.1430 C.ar    5  1ZV5       -0.0043
     10  C3        22.3470  -16.1950   25.0220 C.ar    5  1ZV5       -0.0003
     11  C5        21.9690  -14.0960   25.9840 C.ar    5  1ZV5       -0.0003
     12  C4        22.8130  -14.9990   25.3890 C.ar    5  1ZV5       -0.0000
     13  N1        18.5830  -14.0680   22.0000 N.am    5  1ZV5       -0.2431
     14  CA1       18.2200  -12.8230   21.2510 C.3     5  1ZV5        0.1904
     15  C7        16.8770  -12.8830   20.5500 C.1     5  1ZV5        0.1448
     16  O1        16.5390  -14.0000   20.1020 O.2     5  1ZV5       -0.2253
     17  CB1       19.3820  -12.5660   20.3360 C.3     5  1ZV5        0.0647
     18  CG1       20.3950  -13.6360   20.5750 C.2     5  1ZV5       -0.0071
     19  CD        19.8910  -14.5870   21.6400 C.2     5  1ZV5        0.0640
     20  N2        16.0700  -11.8090   20.4590 N.2     5  1ZV5       -0.2031
     21  CA2       14.8030  -11.6920   19.7600 C.3     5  1ZV5        0.1610
     22  C8        14.7520  -10.9370   18.3930 C.3     5  1ZV5        0.2789
     23  O2        13.6410  -11.0000   17.5860 O.3     5  1ZV5       -0.2028
     24  CB2       13.7300  -11.0740   20.6390 C.3     5  1ZV5        0.0327
     25  CG2       13.0810  -11.9860   21.6080 C.3     5  1ZV5        0.0491
     26  CD1       12.1550  -11.2850   22.5350 C.3     5  1ZV5        0.2205
     27  NE        11.5030  -12.3070   23.2980 N.pl3   5  1ZV5       -0.0865
     28  CZ        10.7230  -12.1810   24.3010 C.cat   5  1ZV5        0.5346
     29  NH1       10.4960  -10.8860   24.6840 N.pl3   5  1ZV5        0.1354
     30  NH2       10.0800  -13.1740   24.9270 N.pl3   5  1ZV5        0.1354
     31  C9        15.9930  -11.5210   17.5380 C.1     5  1ZV5        0.1586
     32  O3        16.5760  -10.4870   17.7800 O.2     5  1ZV5       -0.2244
     33  N3        16.9000  -12.3620   16.7170 N.2     5  1ZV5       -0.2042
     34  C11       16.5060  -13.7620   16.5550 C.3     5  1ZV5        0.1376
     35  C21       16.6010  -14.7090   17.7580 C.3     5  1ZV5        0.0272
     36  C31       15.6470  -15.8750   18.0910 C.3     5  1ZV5        0.0021
     37  C41       16.2480  -17.3040   18.3430 C.3     5  1ZV5        0.0001
     38  C51       15.6790  -18.2490   19.4620 C.3     5  1ZV5        0.0012
     39  C61       16.6670  -19.0000   20.3690 C.3     5  1ZV5        0.0176
     40  C71       16.9210  -18.9860   21.8690 C.3     5  1ZV5        0.1216
     41  C81       17.8690  -18.0840   22.5060 C.1     5  1ZV5        0.1264
     42  O8        19.1130  -18.2880   22.5520 O.2     5  1ZV5       -0.2270
@<TRIPOS>BOND
     1    34    33    1
     2    34    35    1
     3    33    31    2
     4    31    32    2
     5    31    22    1
     6    23    22    1
     7    35    36    1
     8    36    37    1
     9    37    38    1
    10    22    21    1
    11    38    39    1
    12    21    20    1
    13    21    24    1
    14    16    15    2
    15    17    18    1
    16    17    14    1
    17    39    40    1
    18    20    15    2
    19    15    14    1
    20    18    19    2
    21    24    25    1
    22    14    13    1
    23    25    26    1
    24    19    13    1
    25    40    41    1
    26    13     3   am
    27    41    42    2
    28    41     1    2
    29    26    27    1
    30     3     4    2
    31     3     2    1
    32     1     2    1
    33    27    28    2
    34     2     5    1
    35    28    29    1
    36    28    30    1
    37    10     8   ar
    38    10    12   ar
    39     5     6    1
    40     8     7   ar
    41    12    11   ar
    42     7     6    1
    43     7     9   ar
    44    11     9   ar
