@<TRIPOS>MOLECULE
1ay8_HCI_B_1.pdb
 11 11 0 0 0
SMALL
GASTEIGER

@<TRIPOS>ATOM
      1  C1       102.9410   47.2540   12.9850 C.2   414  HCI414      0.3652
      2  O1       103.3730   46.9930   14.1210 O.co2 414  HCI414     -0.2456
      3  O2       102.1950   48.2270   12.7660 O.co2 414  HCI414     -0.2456
      4  C2       103.3300   46.3510   11.8310 C.3   414  HCI414      0.1187
      5  C3       102.1640   46.0310   10.9000 C.3   414  HCI414      0.0382
      6  C1'      101.2050   45.0090   11.4450 C.ar  414  HCI414     -0.0216
      7  C2'      101.1280   43.7430   10.8740 C.ar  414  HCI414     -0.0043
      8  C3'      100.2350   42.7880   11.3670 C.ar  414  HCI414     -0.0003
      9  C4'       99.4080   43.1040   12.4460 C.ar  414  HCI414     -0.0000
     10  C5'       99.4780   44.3680   13.0240 C.ar  414  HCI414     -0.0003
     11  C6'      100.3730   45.3110   12.5210 C.ar  414  HCI414     -0.0043
@<TRIPOS>BOND
     1     7     8   ar
     2     7     6   ar
     3     5     6    1
     4     5     4    1
     5     8     9   ar
     6     6    11   ar
     7     4     1    1
     8     9    10   ar
     9    11    10   ar
    10     3     1   ar
    11     1     2   ar
