@<TRIPOS>MOLECULE
1ay8_PLP_A_1.pdb
 15 15 0 0 0
SMALL
GASTEIGER

@<TRIPOS>ATOM
      1  N1        87.6910   19.7540    0.3180 N.ar  413  PLP413     -0.2452
      2  C2        87.6820   18.8920   -0.7350 C.ar  413  PLP413      0.0978
      3  C2A       86.7400   17.6950   -0.7380 C.3   413  PLP413      0.0555
      4  C3        88.4880   19.1140   -1.7950 C.ar  413  PLP413      0.2049
      5  O3        88.4640   18.2020   -2.8270 O.3   413  PLP413     -0.2857
      6  C4        89.3360   20.2390   -1.8030 C.ar  413  PLP413      0.0182
      7  C4A       90.1460   20.4850   -2.8950 C.3   413  PLP413      0.0342
      8  C5        89.3160   21.1070   -0.6960 C.ar  413  PLP413      0.0261
      9  C6        88.4930   20.8420    0.3450 C.ar  413  PLP413      0.0965
     10  C5A       90.1900   22.3520   -0.5800 C.3   413  PLP413      0.1815
     11  O4P       91.1100   22.7780   -1.5620 O.3   413  PLP413     -0.2653
     12  P         92.0630   23.9710   -1.2530 P.3   413  PLP413      0.5329
     13  O1P       91.4810   25.2070   -1.7830 O.3   413  PLP413     -0.1145
     14  O2P       93.2010   23.5560   -2.2570 O.2   413  PLP413     -0.2224
     15  O3P       92.5090   23.9490    0.1500 O.3   413  PLP413     -0.1145
@<TRIPOS>BOND
     1     7     6    1
     2     5     4    1
     3    14    12    2
     4     6     4   ar
     5     6     8   ar
     6     4     2   ar
     7    13    12    1
     8    11    12    1
     9    11    10    1
    10    12    15    1
    11     3     2    1
    12     2     1   ar
    13     8    10    1
    14     8     9   ar
    15     1     9   ar
