@<TRIPOS>MOLECULE
1ayl_ATP_A_1.pdb
 34 36 0 0 0
SMALL
GASTEIGER

@<TRIPOS>ATOM
      1  PG        31.6380    4.9980   10.3490 P.3   544  ATP544      0.5373
      2  O1G       30.7900    4.0070    9.6750 O.3   544  ATP544     -0.1143
      3  O2G       32.6050    5.6950    9.4930 O.2   544  ATP544     -0.2221
      4  O3G       32.2640    4.5340   11.5880 O.3   544  ATP544     -0.1143
      5  PB        29.5320    6.3510   11.8740 P.3   544  ATP544      0.2277
      6  O1B       28.2130    6.0400   11.2900 O.2   544  ATP544     -0.5168
      7  O2B       29.9280    5.7100   13.1350 O.3   544  ATP544     -0.4368
      8  O3B       30.6820    6.3100   10.7050 O.3   544  ATP544     -0.2258
      9  PA        29.9430    8.6390   13.4530 P.3   544  ATP544      0.2189
     10  O1A       28.8570    8.4270   14.4260 O.3   544  ATP544     -0.4371
     11  O2A       31.3490    8.4460   13.8500 O.2   544  ATP544     -0.5170
     12  O3A       29.6330    7.9340   11.9980 O.3   544  ATP544     -0.2700
     13  O5'       29.8530   10.1170   12.8760 O.3   544  ATP544     -0.3112
     14  C5'       28.7630   11.0430   12.8090 C.3   544  ATP544      0.1813
     15  C4'       29.3940   12.4030   12.5760 C.3   544  ATP544      0.1820
     16  O4'       28.4000   13.4000   12.3270 O.3   544  ATP544     -0.3136
     17  C3'       30.1560   12.8470   13.8510 C.3   544  ATP544      0.2149
     18  O3'       31.2610   13.6900   13.4590 O.3   544  ATP544     -0.2176
     19  C2'       29.0660   13.6520   14.5760 C.3   544  ATP544      0.2171
     20  O2'       29.6600   14.6130   15.4640 O.3   544  ATP544     -0.3762
     21  C1'       28.4070   14.3490   13.4060 C.3   544  ATP544      0.3150
     22  N9        27.0120   14.7640   13.6780 N.pl3 544  ATP544     -0.1440
     23  C8        26.5100   16.0360   13.5300 C.3   544  ATP544      0.3377
     24  N7        25.2230   16.1150   13.7290 N.2   544  ATP544     -0.2098
     25  C5        24.8380   14.8130   14.0360 C.2   544  ATP544      0.2438
     26  C6        23.5810   14.2400   14.3460 C.2   544  ATP544      0.3428
     27  N6        22.4530   14.9540   14.4330 N.pl3 544  ATP544     -0.2449
     28  N1        23.5560   12.9180   14.5900 N.2   544  ATP544     -0.0059
     29  C2        24.6920   12.2220   14.5370 C.3   544  ATP544      0.5252
     30  N3        25.9210   12.6410   14.2630 N.2   544  ATP544     -0.0055
     31  C4        25.9230   13.9730   14.0140 C.2   544  ATP544      0.3515
     32 HO2'       30.2030   15.1950   14.9290 H     544  ATP544      0.2107
     33 HN61       22.4710   15.9500   14.2740 H     544  ATP544      0.2885
     34 HN62       21.5890   14.4890   14.6620 H     544  ATP544      0.2885
@<TRIPOS>BOND
     1     3     1    2
     2     2     1    1
     3     1     8    1
     4     1     4    1
     5     8     5    1
     6     6     5    2
     7     5    12    1
     8     5     7    1
     9    12     9    1
    10    16    15    1
    11    16    21    1
    12    15    14    1
    13    15    17    1
    14    14    13    1
    15    13     9    1
    16    21    22    1
    17    21    19    1
    18     9    11    2
    19     9    10    1
    20    18    17    1
    21    23    22    1
    22    23    24    1
    23    22    31    1
    24    24    25    2
    25    17    19    1
    26    31    25    1
    27    31    30    2
    28    25    26    1
    29    30    29    1
    30    33    27    1
    31    26    27    1
    32    26    28    2
    33    27    34    1
    34    29    28    1
    35    19    20    1
    36    32    20    1
