@<TRIPOS>MOLECULE
1aym_DAO_1_1.pdb
 14 13 0 0 0
SMALL
GASTEIGER

@<TRIPOS>ATOM
      1  O1        36.0570    6.6830  127.9590 O.co2 7009  DAO7009    -0.2457
      2  O2        38.1690    6.6560  127.4730 O.co2 7009  DAO7009    -0.2457
      3  C1        36.9900    6.3710  127.1820 C.2   7009  DAO7009     0.3649
      4  C2        36.6740    5.5690  125.8780 C.3   7009  DAO7009     0.1141
      5  C3        37.7390    5.7310  124.7240 C.3   7009  DAO7009     0.0118
      6  C4        37.9760    4.4300  123.8720 C.3   7009  DAO7009     0.0006
      7  C5        39.3070    4.4660  123.0390 C.3   7009  DAO7009     0.0000
      8  C6        40.1070    3.1370  123.1500 C.3   7009  DAO7009     0.0000
      9  C7        41.4960    3.1220  122.4390 C.3   7009  DAO7009     0.0000
     10  C8        42.6870    3.1910  123.4380 C.3   7009  DAO7009     0.0000
     11  C9        43.7590    2.0660  123.2500 C.3   7009  DAO7009     0.0000
     12  C10       44.9400    2.2410  124.2500 C.3   7009  DAO7009     0.0000
     13  C11       46.1960    1.3770  123.9690 C.3   7009  DAO7009     0.0000
     14  C12       46.0200   -0.1070  124.2310 C.3   7009  DAO7009     0.0000
@<TRIPOS>BOND
     1     9     8    1
     2     9    10    1
     3     7     8    1
     4     7     6    1
     5    11    10    1
     6    11    12    1
     7     6     5    1
     8    13    14    1
     9    13    12    1
    10     5     4    1
    11     4     3    1
    12     3     2   ar
    13     3     1   ar
