@<TRIPOS>MOLECULE
1ayn_DAO_1_1.pdb
 14 13 0 0 0
SMALL
GASTEIGER

@<TRIPOS>ATOM
      1  O1        36.2080    7.2410  127.4830 O.co2 7009  DAO7009    -0.2457
      2  O2        38.0130    6.1080  127.8910 O.co2 7009  DAO7009    -0.2457
      3  C1        37.0290    6.3570  127.1590 C.2   7009  DAO7009     0.3649
      4  C2        36.7760    5.5130  125.8740 C.3   7009  DAO7009     0.1141
      5  C3        37.8170    5.7310  124.7310 C.3   7009  DAO7009     0.0118
      6  C4        38.1210    4.4330  123.9450 C.3   7009  DAO7009     0.0006
      7  C5        39.5140    4.4590  123.2940 C.3   7009  DAO7009     0.0000
      8  C6        40.0530    3.0500  123.1140 C.3   7009  DAO7009     0.0000
      9  C7        41.4470    3.0200  122.4910 C.3   7009  DAO7009     0.0000
     10  C8        42.5490    3.0980  123.5380 C.3   7009  DAO7009     0.0000
     11  C9        43.7150    2.1720  123.1810 C.3   7009  DAO7009     0.0000
     12  C10       44.8730    2.3300  124.1780 C.3   7009  DAO7009     0.0000
     13  C11       46.0720    1.4050  123.8920 C.3   7009  DAO7009     0.0000
     14  C12       45.7960   -0.0650  124.2040 C.3   7009  DAO7009     0.0000
@<TRIPOS>BOND
     1     9     8    1
     2     9    10    1
     3     8     7    1
     4    11    10    1
     5    11    12    1
     6     7     6    1
     7    13    12    1
     8    13    14    1
     9     6     5    1
    10     5     4    1
    11     4     3    1
    12     3     1   ar
    13     3     2   ar
