@<TRIPOS>MOLECULE
1ayu_INA_A_1.pdb
 42 43 0 0 0
SMALL
GASTEIGER

@<TRIPOS>ATOM
      1  C1       -28.2820   -9.3100   55.9360 C.ar  300  INA300     -0.0000
      2  C2       -28.0700   -9.0330   57.3050 C.ar  300  INA300     -0.0002
      3  C3       -27.1110   -9.7750   58.0320 C.ar  300  INA300     -0.0007
      4  C4       -26.3680  -10.7820   57.4040 C.ar  300  INA300      0.0213
      5  C5       -26.5940  -11.0480   56.0460 C.ar  300  INA300     -0.0007
      6  C6       -27.5420  -10.3210   55.3100 C.ar  300  INA300     -0.0002
      7  C7       -25.3120  -11.5370   58.1580 C.3   300  INA300      0.2368
      8  O8       -24.1910  -11.6800   57.2390 O.3   300  INA300     -0.4285
      9  C9       -23.2880  -12.7900   57.2000 C.2   300  INA300      0.4218
     10  O10      -22.4970  -12.9940   58.1330 O.2   300  INA300     -0.2245
     11  C11      -22.4530  -14.7080   55.8770 C.3   300  INA300      0.1775
     12  C12      -21.0470  -14.4730   56.4770 C.3   300  INA300      0.0313
     13  C13      -20.1070  -13.3840   55.9210 C.3   300  INA300      0.0022
     14  C14      -19.1460  -12.9150   57.0060 C.3   300  INA300      0.0001
     15  C15      -20.8270  -12.1730   55.2290 C.3   300  INA300      0.0001
     16  C16      -23.0030  -16.0560   56.3450 C.2   300  INA300      0.2776
     17  O17      -24.1580  -16.1470   56.7540 O.2   300  INA300     -0.2700
     18  N18      -22.1920  -17.1740   56.3040 N.am  300  INA300     -0.1063
     19  N19      -22.6240  -18.5340   56.7420 N.3   300  INA300     -0.0576
     20  N20      -23.3360  -13.5520   56.1020 N.am  300  INA300     -0.1610
     21  C21      -22.0890  -18.8520   58.1360 C.3   300  INA300      0.3420
     22  O22      -22.1020  -17.8040   58.7500 O.3   300  INA300     -0.1795
     23  C23      -12.7780  -27.3050   59.7650 C.ar  300  INA300     -0.0000
     24  C24      -13.7500  -26.7990   60.6230 C.ar  300  INA300     -0.0002
     25  C25      -14.6140  -25.7910   60.1720 C.ar  300  INA300     -0.0007
     26  C26      -14.5160  -25.2870   58.8790 C.ar  300  INA300      0.0213
     27  C27      -13.5360  -25.8050   58.0310 C.ar  300  INA300     -0.0007
     28  C28      -12.6670  -26.8090   58.4710 C.ar  300  INA300     -0.0002
     29  C29      -15.4520  -24.2110   58.4000 C.3   300  INA300      0.2368
     30  O30      -16.5230  -24.5800   57.4870 O.3   300  INA300     -0.4285
     31  C31      -17.5580  -23.6630   57.0520 C.2   300  INA300      0.4218
     32  O32      -17.3200  -22.7410   56.2670 O.2   300  INA300     -0.2245
     33  C33      -19.9480  -23.0860   57.1840 C.3   300  INA300      0.1775
     34  C34      -21.2310  -23.9020   57.3480 C.3   300  INA300      0.0313
     35  C35      -21.1050  -25.2520   58.0350 C.3   300  INA300      0.0022
     36  C36      -22.3150  -25.5920   58.8880 C.3   300  INA300      0.0001
     37  C37      -20.8400  -26.3110   56.9880 C.3   300  INA300      0.0001
     38  C38      -20.0660  -21.8310   58.0300 C.2   300  INA300      0.2776
     39  O39      -19.7360  -21.8580   59.2160 O.2   300  INA300     -0.2700
     40  N40      -20.5580  -20.7030   57.4300 N.am  300  INA300     -0.1063
     41  N41      -20.7040  -19.4360   58.2090 N.3   300  INA300     -0.0576
     42  N42      -18.7790  -23.8960   57.5410 N.am  300  INA300     -0.1610
@<TRIPOS>BOND
     1    15    13    1
     2     6     1   ar
     3     6     5   ar
     4    11    20    1
     5    11    16    1
     6    11    12    1
     7    13    12    1
     8    13    14    1
     9     1     2   ar
    10     5     4   ar
    11    20     9   am
    12    32    31    2
    13    18    16   am
    14    18    19    1
    15    16    17    2
    16    19    21    1
    17    37    35    1
    18    31    30    1
    19    31    42   am
    20    33    34    1
    21    33    42    1
    22    33    38    1
    23     9     8    1
    24     9    10    2
    25     8     7    1
    26     2     3   ar
    27    34    35    1
    28     4     3   ar
    29     4     7    1
    30    40    38   am
    31    40    41    1
    32    30    29    1
    33    38    39    2
    34    27    28   ar
    35    27    26   ar
    36    35    36    1
    37    21    41    1
    38    21    22    1
    39    29    26    1
    40    28    23   ar
    41    26    25   ar
    42    23    24   ar
    43    25    24   ar
