@<TRIPOS>MOLECULE
1ayv_IN6_A_1.pdb
 43 45 0 0 0
SMALL
GASTEIGER

@<TRIPOS>ATOM
      1  C1       -28.4950   -9.5230   55.7010 C.ar  300  IN6300     -0.0000
      2  C2       -28.6290   -9.3340   57.0840 C.ar  300  IN6300     -0.0002
      3  C3       -27.5560   -9.6270   57.9390 C.ar  300  IN6300     -0.0007
      4  C4       -26.3510  -10.1050   57.4300 C.ar  300  IN6300      0.0213
      5  C5       -26.2280  -10.2880   56.0520 C.ar  300  IN6300     -0.0007
      6  C6       -27.2900  -10.0010   55.1850 C.ar  300  IN6300     -0.0002
      7  C7       -25.2000  -10.4050   58.3480 C.3   300  IN6300      0.2368
      8  O8       -24.7270  -11.7650   58.3610 O.3   300  IN6300     -0.4285
      9  C9       -24.0310  -12.4200   57.2970 C.2   300  IN6300      0.4218
     10  O10      -24.3300  -12.2310   56.0980 O.2   300  IN6300     -0.2245
     11  C11      -22.2660  -14.0130   56.7050 C.3   300  IN6300      0.1565
     12  C12      -20.7750  -13.6250   56.8020 C.3   300  IN6300      0.0296
     13  C14      -20.1770  -12.6020   55.8160 C.3   300  IN6300      0.0022
     14  C15      -19.0060  -11.8290   56.4720 C.3   300  IN6300      0.0001
     15  C16      -21.2220  -11.6350   55.2260 C.3   300  IN6300      0.0001
     16  C17      -22.4980  -15.5900   56.8000 C.2   300  IN6300      0.1539
     17  S18      -23.7840  -16.3150   55.9230 S.3   300  IN6300     -0.0777
     18  N19      -21.7960  -16.5490   57.4980 N.2   300  IN6300     -0.4020
     19  C20      -22.2080  -17.8720   57.3930 C.2   300  IN6300      0.1468
     20  N24      -23.0540  -13.2500   57.6810 N.am  300  IN6300     -0.1627
     21  C42      -23.2740  -17.8770   56.5510 C.3   300  IN6300      0.1227
     22  C21      -21.5760  -19.1040   58.2420 C.3   300  IN6300      0.2936
     23  O22      -21.3720  -18.3860   59.1690 O.3   300  IN6300     -0.1943
     24  C1'      -13.7850  -23.5080   54.9590 C.ar  300  IN6300     -0.0000
     25  C2'      -14.2320  -22.8380   56.0770 C.ar  300  IN6300     -0.0002
     26  C3'      -14.8330  -23.5440   57.1180 C.ar  300  IN6300     -0.0007
     27  C4'      -14.9980  -24.9290   57.0420 C.ar  300  IN6300      0.0213
     28  C5'      -14.5350  -25.6040   55.9080 C.ar  300  IN6300     -0.0007
     29  C6'      -13.9350  -24.9010   54.8660 C.ar  300  IN6300     -0.0002
     30  C7'      -15.7230  -25.6710   58.1370 C.3   300  IN6300      0.2368
     31  O8'      -17.1020  -25.9300   57.7090 O.3   300  IN6300     -0.4285
     32  C9'      -17.9100  -25.0280   56.9620 C.2   300  IN6300      0.4218
     33  OA'      -17.6900  -24.8100   55.7720 O.2   300  IN6300     -0.2245
     34  CB'      -19.8220  -23.4920   57.0000 C.3   300  IN6300      0.1775
     35  CC'      -21.2170  -24.1180   56.8380 C.3   300  IN6300      0.0313
     36  CE'      -21.9190  -24.8870   57.9680 C.3   300  IN6300      0.0022
     37  CF'      -21.4350  -26.3070   58.1210 C.3   300  IN6300      0.0001
     38  CG'      -21.8650  -24.1530   59.2870 C.3   300  IN6300      0.0001
     39  CH'      -19.8670  -22.1490   57.7600 C.2   300  IN6300      0.2776
     40  OI'      -19.6040  -22.1250   58.9620 O.2   300  IN6300     -0.2700
     41  NJ'      -20.1820  -20.9960   57.0820 N.am  300  IN6300     -0.1072
     42  NK'      -20.1980  -19.6480   57.7800 N.3   300  IN6300     -0.0691
     43  NO'      -18.9040  -24.4430   57.6330 N.am  300  IN6300     -0.1610
@<TRIPOS>BOND
     1    29    24   ar
     2    29    28   ar
     3    24    25   ar
     4     6     1   ar
     5     6     5   ar
     6    15    13    1
     7     1     2   ar
     8    33    32    2
     9    13    14    1
    10    13    12    1
    11    28    27   ar
    12    17    21    1
    13    17    16    1
    14     5     4   ar
    15    25    26   ar
    16    10     9    2
    17    21    19    1
    18    11    16    1
    19    11    12    1
    20    11    20    1
    21    16    18    2
    22    35    34    1
    23    35    36    1
    24    32    43   am
    25    32    31    1
    26    34    43    1
    27    34    39    1
    28    27    26   ar
    29    27    30    1
    30    41    39   am
    31    41    42    1
    32     2     3   ar
    33     9    20   am
    34     9     8    1
    35    19    18    2
    36    19    22    1
    37     4     3   ar
    38     4     7    1
    39    31    30    1
    40    39    40    2
    41    42    22    1
    42    36    37    1
    43    36    38    1
    44    22    23    1
    45     7     8    1
