@<TRIPOS>MOLECULE
1ayw_IN3_A_1.pdb
 40 42 0 0 0
SMALL
GASTEIGER

@<TRIPOS>ATOM
      1  C1         0.2980   37.5920   63.5530 C.ar  300  IN3300     -0.0000
      2  C2         0.6190   38.5380   64.5290 C.ar  300  IN3300     -0.0002
      3  C3         1.8960   39.0890   64.5710 C.ar  300  IN3300     -0.0007
      4  C4         2.8680   38.7120   63.6430 C.ar  300  IN3300      0.0212
      5  C5         2.5350   37.7670   62.6700 C.ar  300  IN3300     -0.0007
      6  C6         1.2590   37.2040   62.6190 C.ar  300  IN3300     -0.0002
      7  C7         4.2480   39.3260   63.6770 C.3   300  IN3300      0.2320
      8  O8         5.2180   38.9180   64.6480 O.3   300  IN3300     -0.4706
      9  C9         6.4250   38.2370   64.3130 C.ar  300  IN3300      0.1392
     10  C10        7.0970   38.2540   63.0920 C.ar  300  IN3300      0.0369
     11  C11        8.1380   36.7540   65.2040 C.ar  300  IN3300      0.0594
     12  C12        8.7990   36.7710   63.9790 C.ar  300  IN3300      0.0048
     13  C14        8.2850   37.5220   62.9190 C.ar  300  IN3300      0.0033
     14  C17        8.5170   36.1300   66.4820 C.2   300  IN3300      0.2812
     15  O18        8.5210   34.9210   66.7410 O.2   300  IN3300     -0.2669
     16  N19        8.8340   37.2280   67.2680 N.am  300  IN3300     -0.1040
     17  N20        9.2630   37.2270   68.6510 N.3   300  IN3300     -0.0574
     18  C24        6.9590   37.4830   65.3460 C.ar  300  IN3300      0.0415
     19  C21        9.0090   38.5840   69.2650 C.3   300  IN3300      0.3420
     20  O22        8.3290   39.3060   68.5020 O.3   300  IN3300     -0.1795
     21  C1'       18.9100   32.7120   74.3240 C.ar  300  IN3300     -0.0000
     22  C2'       18.5360   33.7310   75.1990 C.ar  300  IN3300     -0.0002
     23  C3'       17.9600   34.9050   74.6950 C.ar  300  IN3300     -0.0007
     24  C4'       17.7560   35.0760   73.3220 C.ar  300  IN3300      0.0213
     25  C5'       18.1350   34.0490   72.4530 C.ar  300  IN3300     -0.0007
     26  C6'       18.7110   32.8720   72.9410 C.ar  300  IN3300     -0.0002
     27  C7'       17.1400   36.3520   72.7880 C.3   300  IN3300      0.2368
     28  O8'       15.8840   36.3300   72.1000 O.3   300  IN3300     -0.4285
     29  C9'       14.8620   37.2220   72.4920 C.2   300  IN3300      0.4218
     30  OA'       15.1310   38.2190   73.1760 O.2   300  IN3300     -0.2245
     31  CB'       12.4090   37.6830   72.3860 C.3   300  IN3300      0.1775
     32  CC'       12.4500   38.2740   73.7970 C.3   300  IN3300      0.0313
     33  CE'       12.3590   37.3380   75.0000 C.3   300  IN3300      0.0022
     34  CF'       12.1650   35.8960   74.5570 C.3   300  IN3300      0.0001
     35  CG'       13.6130   37.4850   75.8340 C.3   300  IN3300      0.0001
     36  CH'       11.9770   38.7810   71.4110 C.2   300  IN3300      0.2776
     37  OI'       12.4960   39.8990   71.4260 O.2   300  IN3300     -0.2700
     38  NJ'       10.9930   38.4050   70.5990 N.am  300  IN3300     -0.1063
     39  NK'       10.3450   39.2140   69.5750 N.3   300  IN3300     -0.0576
     40  NO'       13.6250   36.9040   72.0820 N.am  300  IN3300     -0.1610
@<TRIPOS>BOND
     1     6     5   ar
     2     6     1   ar
     3     5     4   ar
     4    13    10   ar
     5    13    12   ar
     6    10     9   ar
     7     1     2   ar
     8     4     7    1
     9     4     3   ar
    10     7     8    1
    11    12    11   ar
    12     9     8    1
    13     9    18   ar
    14     2     3   ar
    15    11    18   ar
    16    11    14    1
    17    14    15    2
    18    14    16   am
    19    16    17    1
    20    20    19    1
    21    17    19    1
    22    19    39    1
    23    39    38    1
    24    38    36   am
    25    36    37    2
    26    36    31    1
    27    40    31    1
    28    40    29   am
    29    28    29    1
    30    28    27    1
    31    31    32    1
    32    25    26   ar
    33    25    24   ar
    34    29    30    2
    35    27    24    1
    36    26    21   ar
    37    24    23   ar
    38    32    33    1
    39    21    22   ar
    40    34    33    1
    41    23    22   ar
    42    33    35    1
