@<TRIPOS>MOLECULE
1az1_ALR_A_1.pdb
 19 21 0 0 0
SMALL
GASTEIGER

@<TRIPOS>ATOM
      1  C1        20.7750   25.1200   62.5870 C.ar  317  ALR317      0.0541
      2  C2        19.2090   23.2230   62.4530 C.ar  317  ALR317      0.0541
      3  C3        18.1850   23.9810   63.1720 C.2   317  ALR317      0.2554
      4  C4        19.7250   25.9160   63.2660 C.2   317  ALR317      0.2554
      5  O5        17.0660   23.5090   63.4010 O.2   317  ALR317     -0.2695
      6  O6        19.8930   27.1060   63.5170 O.2   317  ALR317     -0.2695
      7  C7        17.6450   25.8480   64.5230 C.3   317  ALR317      0.2151
      8  C8        20.5110   23.7690   62.1880 C.ar  317  ALR317      0.0088
      9  C9        21.5320   22.9720   61.5590 C.ar  317  ALR317      0.0003
     10  C10       21.2140   21.6670   61.1640 C.ar  317  ALR317      0.0000
     11  C11       19.9560   21.0950   61.4780 C.ar  317  ALR317      0.0001
     12  C12       18.9500   21.8610   62.0970 C.ar  317  ALR317      0.0045
     13  C16       22.0470   25.6660   62.3070 C.ar  317  ALR317      0.0045
     14  C17       23.1050   24.8340   61.8800 C.ar  317  ALR317      0.0001
     15  C18       22.8230   23.5270   61.4180 C.ar  317  ALR317      0.0000
     16  N22       18.5760   25.2160   63.5990 N.am  317  ALR317     -0.2114
     17  C23       16.5560   26.7160   63.9720 C.2   317  ALR317      0.3852
     18  O24       16.4040   26.8160   62.7490 O.co2 317  ALR317     -0.2437
     19  O27       15.8750   27.3020   64.7660 O.co2 317  ALR317     -0.2437
@<TRIPOS>BOND
     1    10    11   ar
     2    10     9   ar
     3    15     9   ar
     4    15    14   ar
     5    11    12   ar
     6     9     8   ar
     7    14    13   ar
     8    12     2   ar
     9     8     2   ar
    10     8     1   ar
    11    13     1   ar
    12     2     3    1
    13     1     4    1
    14    18    17   ar
    15     3     5    2
    16     3    16   am
    17     4     6    2
    18     4    16   am
    19    16     7    1
    20    17     7    1
    21    17    19   ar
