@<TRIPOS>MOLECULE
1az1_NAP_A_1.pdb
 48 52 0 0 0
SMALL
GASTEIGER

@<TRIPOS>ATOM
      1  PA        23.6700   28.0080   72.5770 P.3   316  NAP316      0.2189
      2  O1A       24.5710   29.0140   71.9930 O.2   316  NAP316     -0.5170
      3  O2A       22.8050   28.3400   73.6860 O.3   316  NAP316     -0.4371
      4  O5B       24.5700   26.8090   73.1070 O.3   316  NAP316     -0.3112
      5  C5B       23.9890   25.6350   73.6880 C.3   316  NAP316      0.1813
      6  C4B       25.1120   24.7170   74.1220 C.3   316  NAP316      0.1820
      7  O4B       25.9310   25.3010   75.1570 O.3   316  NAP316     -0.3136
      8  C3B       24.6350   23.3910   74.6390 C.3   316  NAP316      0.2157
      9  O3B       25.6110   22.4490   74.2280 O.3   316  NAP316     -0.2175
     10  C2B       24.7080   23.5560   76.1340 C.3   316  NAP316      0.2314
     11  O2B       24.9430   22.2960   76.7350 O.3   316  NAP316     -0.2630
     12  C1B       25.9330   24.4260   76.2800 C.3   316  NAP316      0.3158
     13  N9A       25.8640   25.2990   77.4830 N.pl3 316  NAP316     -0.1439
     14  C8A       24.7940   25.9500   78.0060 C.3   316  NAP316      0.3377
     15  N7A       25.1470   26.6540   79.1020 N.2   316  NAP316     -0.2095
     16  C5A       26.4600   26.4210   79.2210 C.2   316  NAP316      0.2526
     17  C6A       27.2750   26.8020   80.2870 C.2   316  NAP316      0.4393
     18  N6A       26.8650   27.5050   81.3480 N.pl3 316  NAP316      0.2180
     19  N1A       28.5390   26.3130   80.2520 N.2   316  NAP316      0.0021
     20  C2A       29.0060   25.5040   79.2890 C.3   316  NAP316      0.5254
     21  N3A       28.2080   25.1550   78.2810 N.2   316  NAP316     -0.0055
     22  C4A       26.9290   25.5870   78.2280 C.2   316  NAP316      0.3518
     23  O3        23.0040   27.2190   71.3760 O.3   316  NAP316     -0.2703
     24  PN        21.7080   27.1520   70.4460 P.3   316  NAP316      0.2189
     25  O1N       20.9240   26.0220   70.9750 O.3   316  NAP316     -0.4371
     26  O2N       22.2050   27.1220   69.0380 O.2   316  NAP316     -0.5170
     27  O5D       20.9810   28.5910   70.6280 O.3   316  NAP316     -0.3112
     28  C5D       20.0920   28.8700   71.7310 C.3   316  NAP316      0.1813
     29  C4D       18.6330   28.8060   71.2980 C.3   316  NAP316      0.1799
     30  O4D       18.3810   29.7950   70.2660 O.3   316  NAP316     -0.3327
     31  C3D       18.2290   27.5010   70.6440 C.3   316  NAP316      0.2158
     32  O3D       18.1090   26.3440   71.4750 O.3   316  NAP316     -0.2175
     33  C2D       16.9260   27.9550   70.0400 C.3   316  NAP316      0.2309
     34  O2D       15.9340   27.9970   71.0510 O.3   316  NAP316     -0.2158
     35  C1D       17.2600   29.3470   69.4950 C.3   316  NAP316      0.2263
     36  N1N       17.6470   29.3050   68.0560 N.pl3 316  NAP316     -0.2787
     37  C2N       16.8110   29.8640   67.0750 C.3   316  NAP316      0.1244
     38  C3N       17.1900   29.8130   65.7370 C.2   316  NAP316      0.0544
     39  C7N       16.3590   30.4370   64.6320 C.2   316  NAP316      0.2818
     40  O7N       16.5970   30.2010   63.4470 O.2   316  NAP316     -0.2670
     41  N7N       15.4250   31.2880   65.0510 N.am  316  NAP316     -0.0839
     42  C4N       18.4030   29.2000   65.3790 C.2   316  NAP316      0.0033
     43  C5N       19.2330   28.6550   66.3390 C.2   316  NAP316      0.0157
     44  C6N       18.8520   28.7120   67.6830 C.2   316  NAP316      0.0633
     45  P2B       23.8780   21.4530   77.5820 P.3   316  NAP316      0.5328
     46  O1X       22.5550   21.5960   76.9040 O.2   316  NAP316     -0.2224
     47  O2X       24.4990   20.1010   77.4250 O.3   316  NAP316     -0.1145
     48  O3X       23.9760   22.0220   78.9440 O.3   316  NAP316     -0.1145
@<TRIPOS>BOND
     1    40    39    2
     2    39    41   am
     3    39    38    1
     4    42    38    2
     5    42    43    1
     6    38    37    1
     7    43    44    2
     8    37    36    1
     9    44    36    1
    10    36    35    1
    11    26    24    2
    12    35    33    1
    13    35    30    1
    14    33    31    1
    15    33    34    1
    16    30    29    1
    17    24    27    1
    18    24    25    1
    19    24    23    1
    20    27    28    1
    21    31    29    1
    22    31    32    1
    23    29    28    1
    24    23     1    1
    25     2     1    2
    26     1     4    1
    27     1     3    1
    28     4     5    1
    29     5     6    1
    30     6     8    1
    31     6     7    1
    32     9     8    1
    33     8    10    1
    34     7    12    1
    35    10    12    1
    36    10    11    1
    37    12    13    1
    38    11    45    1
    39    46    45    2
    40    47    45    1
    41    13    14    1
    42    13    22    1
    43    45    48    1
    44    14    15    1
    45    22    21    2
    46    22    16    1
    47    21    20    1
    48    15    16    2
    49    16    17    1
    50    20    19    1
    51    19    17    2
    52    17    18    1
