@<TRIPOS>MOLECULE
1az2_CIT_A_1.pdb
 13 12 0 0 0
SMALL
GASTEIGER

@<TRIPOS>ATOM
      1  C1        19.1860   26.3200   61.0910 C.2   700  CIT700      0.3680
      2  O1        18.5950   25.5890   60.1820 O.co2 700  CIT700     -0.2455
      3  O2        20.3110   26.7660   60.8870 O.co2 700  CIT700     -0.2455
      4  C2        18.4700   26.3540   62.4900 C.3   700  CIT700      0.1560
      5  C3        16.7730   26.1460   62.4710 C.3   700  CIT700      0.2402
      6  O7        16.1320   27.0730   61.5810 O.3   700  CIT700     -0.2129
      7  C4        16.2050   24.7970   61.7670 C.3   700  CIT700      0.1560
      8  C5        16.7420   23.4730   62.4460 C.2   700  CIT700      0.3680
      9  O3        17.8470   23.0290   62.0110 O.co2 700  CIT700     -0.2455
     10  O4        16.0970   23.0430   63.4640 O.co2 700  CIT700     -0.2455
     11  C6        16.3690   26.3880   63.9470 C.2   700  CIT700      0.3927
     12  O5        17.1850   26.1320   64.7540 O.co2 700  CIT700     -0.2429
     13  O6        15.3090   26.7900   64.3730 O.co2 700  CIT700     -0.2429
@<TRIPOS>BOND
     1     2     1   ar
     2     3     1   ar
     3     1     4    1
     4     6     5    1
     5     7     8    1
     6     7     5    1
     7     9     8   ar
     8     8    10   ar
     9     5     4    1
    10     5    11    1
    11    11    13   ar
    12    11    12   ar
