@<TRIPOS>MOLECULE
1az2_NAP_A_1.pdb
 48 52 0 0 0
SMALL
GASTEIGER

@<TRIPOS>ATOM
      1  PA        23.5880   28.0760   72.4550 P.3   316  NAP316      0.2189
      2  O1A       24.6420   28.7140   71.7290 O.2   316  NAP316     -0.5170
      3  O2A       22.8740   28.9410   73.4040 O.3   316  NAP316     -0.4371
      4  O5B       24.2420   26.9650   73.3160 O.3   316  NAP316     -0.3112
      5  C5B       23.6010   25.7040   73.5310 C.3   316  NAP316      0.1813
      6  C4B       24.7930   24.8430   73.8140 C.3   316  NAP316      0.1820
      7  O4B       25.6730   25.5140   74.7040 O.3   316  NAP316     -0.3136
      8  C3B       24.4690   23.5020   74.3510 C.3   316  NAP316      0.2157
      9  O3B       25.5240   22.6360   74.0380 O.3   316  NAP316     -0.2175
     10  C2B       24.5500   23.7590   75.8130 C.3   316  NAP316      0.2314
     11  O2B       24.7960   22.5770   76.6020 O.3   316  NAP316     -0.2630
     12  C1B       25.6380   24.7900   75.9280 C.3   316  NAP316      0.3158
     13  N9A       25.4950   25.6250   77.1540 N.pl3 316  NAP316     -0.1439
     14  C8A       24.4040   26.0300   77.8320 C.3   316  NAP316      0.3377
     15  N7A       24.7220   26.7330   78.9120 N.2   316  NAP316     -0.2095
     16  C5A       26.0550   26.7240   78.8530 C.2   316  NAP316      0.2526
     17  C6A       26.8980   27.0330   79.9280 C.2   316  NAP316      0.4393
     18  N6A       26.5010   27.9390   80.8470 N.pl3 316  NAP316      0.2180
     19  N1A       28.1920   26.5670   79.8670 N.2   316  NAP316      0.0021
     20  C2A       28.6500   25.8740   78.8210 C.3   316  NAP316      0.5254
     21  N3A       27.8440   25.6260   77.7970 N.2   316  NAP316     -0.0055
     22  C4A       26.5600   26.0200   77.8000 C.2   316  NAP316      0.3518
     23  O3        22.8180   27.2100   71.3530 O.3   316  NAP316     -0.2703
     24  PN        21.6250   27.3590   70.2690 P.3   316  NAP316      0.2189
     25  O1N       20.8220   26.1260   70.2680 O.3   316  NAP316     -0.4371
     26  O2N       21.9480   27.9810   68.9780 O.2   316  NAP316     -0.5170
     27  O5D       20.7830   28.2940   71.2340 O.3   316  NAP316     -0.3112
     28  C5D       20.0360   29.4370   70.8720 C.3   316  NAP316      0.1813
     29  C4D       18.5970   29.1710   71.2150 C.3   316  NAP316      0.1799
     30  O4D       18.2340   30.1060   70.2320 O.3   316  NAP316     -0.3327
     31  C3D       18.0890   27.8640   70.6740 C.3   316  NAP316      0.2158
     32  O3D       17.9700   26.7840   71.5810 O.3   316  NAP316     -0.2175
     33  C2D       16.8200   28.2920   70.0220 C.3   316  NAP316      0.2309
     34  O2D       15.7350   28.3780   70.9080 O.3   316  NAP316     -0.2158
     35  C1D       17.2070   29.6250   69.3930 C.3   316  NAP316      0.2263
     36  N1N       17.6430   29.6610   67.9650 N.pl3 316  NAP316     -0.2787
     37  C2N       16.6440   30.0370   67.0450 C.3   316  NAP316      0.1244
     38  C3N       16.8100   29.7870   65.6930 C.2   316  NAP316      0.0544
     39  C7N       15.9850   30.6050   64.7390 C.2   316  NAP316      0.2818
     40  O7N       15.9440   30.3660   63.5320 O.2   316  NAP316     -0.2670
     41  N7N       15.3230   31.5860   65.3060 N.am  316  NAP316     -0.0839
     42  C4N       17.9600   29.1150   65.2510 C.2   316  NAP316      0.0033
     43  C5N       18.9880   28.7480   66.1260 C.2   316  NAP316      0.0157
     44  C6N       18.8330   29.0440   67.4800 C.2   316  NAP316      0.0633
     45  P2B       23.6690   21.7330   77.3880 P.3   316  NAP316      0.5328
     46  O1X       22.3710   21.7430   76.7010 O.2   316  NAP316     -0.2224
     47  O2X       24.4720   20.4840   77.2910 O.3   316  NAP316     -0.1145
     48  O3X       23.5550   22.3410   78.7220 O.3   316  NAP316     -0.1145
@<TRIPOS>BOND
     1    40    39    2
     2    39    41   am
     3    39    38    1
     4    42    38    2
     5    42    43    1
     6    38    37    1
     7    43    44    2
     8    37    36    1
     9    44    36    1
    10    36    35    1
    11    26    24    2
    12    35    33    1
    13    35    30    1
    14    33    31    1
    15    33    34    1
    16    30    29    1
    17    25    24    1
    18    24    27    1
    19    24    23    1
    20    31    29    1
    21    31    32    1
    22    28    29    1
    23    28    27    1
    24    23     1    1
    25     2     1    2
    26     1     4    1
    27     1     3    1
    28     4     5    1
    29     5     6    1
    30     6     8    1
    31     6     7    1
    32     9     8    1
    33     8    10    1
    34     7    12    1
    35    10    12    1
    36    10    11    1
    37    12    13    1
    38    11    45    1
    39    46    45    2
    40    13    22    1
    41    13    14    1
    42    47    45    1
    43    45    48    1
    44    21    22    2
    45    21    20    1
    46    22    16    1
    47    14    15    1
    48    20    19    1
    49    16    15    2
    50    16    17    1
    51    19    17    2
    52    17    18    1
