@<TRIPOS>MOLECULE
1az8_IN4_A_1.pdb
 26 27 0 0 0
SMALL
GASTEIGER

@<TRIPOS>ATOM
      1  C1        28.7160   15.6230   17.6590 C.ar    1  IN41        0.0080
      2  C2        28.5060   14.9230   18.8410 C.ar    1  IN41       -0.0001
      3  C3        28.7820   13.5560   18.8730 C.ar    1  IN41       -0.0043
      4  C4        29.2670   12.9080   17.7210 C.ar    1  IN41       -0.0217
      5  C5        29.5080   13.6250   16.5660 C.ar    1  IN41        0.0037
      6  C6        29.2410   14.9760   16.5360 C.ar    1  IN41        0.0972
      7  C10       29.5850   11.4860   17.6480 C.3     1  IN41        0.0338
      8  C9        31.0690   11.3560   17.9310 C.3     1  IN41        0.0096
      9  C11       31.6200    9.9640   17.7050 C.3     1  IN41        0.0267
     10  C12       33.1260   10.0330   17.8150 C.ar    1  IN41       -0.0222
     11  C20       29.4890   15.7280   15.2710 C.2     1  IN41        0.4766
     12  N3        30.0110   15.1830   14.1970 N.pl3   1  IN41        0.2047
     13  N4        29.1310   16.9790   15.2230 N.pl3   1  IN41        0.2047
     14  C7        33.8520   10.4790   16.7160 C.ar    1  IN41       -0.0040
     15  C13       35.2400   10.6050   16.8120 C.ar    1  IN41        0.0077
     16  C15       35.9330   10.2280   17.9800 C.ar    1  IN41        0.0975
     17  C16       37.4550   10.3150   18.0100 C.2     1  IN41        0.4766
     18  C17       35.1940    9.7490   19.0750 C.ar    1  IN41        0.0077
     19  C19       33.8000    9.6770   18.9960 C.ar    1  IN41       -0.0040
     20  N2        38.1210    9.8960   19.0690 N.pl3   1  IN41        0.2047
     21  N1        38.1610   10.7920   16.9820 N.pl3   1  IN41        0.2047
     22  C14       28.7020   10.5770   18.5370 C.3     1  IN41        0.1139
     23  C22       27.1800   10.7960   18.4520 C.2     1  IN41        0.3174
     24  O3        26.6350   10.9600   17.3600 O.2     1  IN41       -0.2501
     25  O4        26.4550   10.7490   19.6240 O.3     1  IN41       -0.4444
     26  C8        25.0400   10.8690   19.7260 C.3     1  IN41        0.2556
@<TRIPOS>BOND
     1    12    11    2
     2    13    11    1
     3    11     6    1
     4     6     5   ar
     5     6     1   ar
     6     5     4   ar
     7    14    15   ar
     8    14    10   ar
     9    15    16   ar
    10    21    17    2
    11    24    23    2
    12     7     4    1
    13     7     8    1
    14     7    22    1
    15     1     2   ar
    16     9    10    1
    17     9     8    1
    18     4     3   ar
    19    10    19   ar
    20    16    17    1
    21    16    18   ar
    22    17    20    1
    23    23    22    1
    24    23    25    1
    25     2     3   ar
    26    19    18   ar
    27    25    26    1
