@<TRIPOS>MOLECULE
1azi_HEM_A_1.pdb
 43 50 0 0 0
SMALL
GASTEIGER

@<TRIPOS>ATOM
      1 FE         14.4010   30.2890    5.0260 Fe    154  HEM154      0.0000
      2  CHA       15.6100   33.4560    5.1430 C.2   154  HEM154      0.0000
      3  CHB       13.8220   30.4270    8.4230 C.2   154  HEM154      0.0000
      4  CHC       13.0410   27.0920    4.9900 C.2   154  HEM154      0.0000
      5  CHD       15.2370   29.9950    1.8030 C.2   154  HEM154      0.0000
      6  NA        14.6870   31.6400    6.4880 N.2   154  HEM154      0.0000
      7  C1A       15.0920   32.9310    6.3090 C.2   154  HEM154      0.0000
      8  C2A       14.9120   33.6710    7.5350 C.2   154  HEM154      0.0000
      9  C3A       14.4360   32.8330    8.4620 C.2   154  HEM154      0.0000
     10  C4A       14.2700   31.5590    7.8050 C.2   154  HEM154      0.0000
     11  CMA       14.1220   33.1470    9.9400 C.3   154  HEM154      0.0000
     12  CAA       15.2380   35.1800    7.6790 C.3   154  HEM154      0.0000
     13  CBA       13.9720   36.0720    7.9050 C.3   154  HEM154      0.0000
     14  CGA       13.1040   36.1730    6.6570 C.2   154  HEM154      0.0000
     15  O1A       13.7120   36.5820    5.6330 O.co2 154  HEM154      0.0000
     16  O2A       11.9410   35.7190    6.7370 O.co2 154  HEM154      0.0000
     17  NB        13.5940   29.0310    6.3990 N.ar  154  HEM154      0.0000
     18  C1B       13.3950   29.3210    7.7350 C.ar  154  HEM154      0.0000
     19  C2B       12.7470   28.1910    8.3790 C.ar  154  HEM154      0.0000
     20  C3B       12.5920   27.2370    7.4440 C.ar  154  HEM154      0.0000
     21  C4B       13.0920   27.7640    6.2010 C.ar  154  HEM154      0.0000
     22  CMB       12.4370   28.1240    9.8980 C.3   154  HEM154      0.0000
     23  CAB       11.9560   25.8800    7.6880 C.3   154  HEM154      0.0000
     24  CBB       12.2330   24.6040    7.0100 C.3   154  HEM154      0.0000
     25  NC        14.1470   28.8420    3.6710 N.2   154  HEM154      0.0000
     26  C1C       13.6010   27.6020    3.8340 C.2   154  HEM154      0.0000
     27  C2C       13.8080   26.8260    2.6120 C.2   154  HEM154      0.0000
     28  C3C       14.4370   27.6050    1.7370 C.2   154  HEM154      0.0000
     29  C4C       14.6710   28.8900    2.3690 C.2   154  HEM154      0.0000
     30  CMC       13.3570   25.3420    2.4820 C.3   154  HEM154      0.0000
     31  CAC       14.9090   27.3640    0.2900 C.3   154  HEM154      0.0000
     32  CBC       14.7590   26.0360   -0.3550 C.3   154  HEM154      0.0000
     33  ND        15.2720   31.4760    3.7260 N.ar  154  HEM154      0.0000
     34  C1D       15.5060   31.2090    2.3930 C.ar  154  HEM154      0.0000
     35  C2D       16.0430   32.3960    1.7560 C.ar  154  HEM154      0.0000
     36  C3D       16.1440   33.3350    2.6810 C.ar  154  HEM154      0.0000
     37  C4D       15.6520   32.7760    3.9270 C.ar  154  HEM154      0.0000
     38  CMD       16.5050   32.4560    0.2970 C.3   154  HEM154      0.0000
     39  CAD       16.8090   34.7340    2.6230 C.3   154  HEM154      0.0000
     40  CBD       18.2570   34.6590    2.0830 C.3   154  HEM154      0.0000
     41  CGD       19.2810   35.4710    2.8110 C.2   154  HEM154      0.0000
     42  O1D       19.8350   36.3700    2.0940 O.co2 154  HEM154      0.0000
     43  O2D       19.4960   35.2310    4.0390 O.co2 154  HEM154      0.0000
@<TRIPOS>BOND
     1    32    31    1
     2    31    28    1
     3    38    35    1
     4    28    29    1
     5    28    27    2
     6    35    34   ar
     7    35    36   ar
     8     5    29    1
     9     5    34    2
    10    40    39    1
    11    40    41    1
    12    42    41   ar
    13    29    25    2
    14    34    33   ar
    15    30    27    1
    16    27    26    1
    17    39    36    1
    18    36    37   ar
    19    41    43   ar
    20    25    26    1
    21    25     1    1
    22    33    37   ar
    23    33     1    1
    24    26     4    2
    25    37     2    2
    26     4    21    1
    27     1    17    1
    28     1     6    1
    29     2     7    1
    30    15    14   ar
    31    21    17   ar
    32    21    20   ar
    33     7     6    2
    34     7     8    1
    35    17    18   ar
    36     6    10    1
    37    14    16   ar
    38    14    13    1
    39    24    23    1
    40    20    23    1
    41    20    19   ar
    42     8    12    1
    43     8     9    2
    44    12    13    1
    45    18    19   ar
    46    18     3    1
    47    10     3    2
    48    10     9    1
    49    19    22    1
    50     9    11    1
