@<TRIPOS>MOLECULE
1azl_FMN_A_1.pdb
 31 33 0 0 0
SMALL
GASTEIGER

@<TRIPOS>ATOM
      1  N1        -4.2060   36.1330   18.1220 N.2   149  FMN149     -0.2887
      2  C2        -3.2350   36.8290   18.7900 C.1   149  FMN149      0.3669
      3  O2        -2.3910   37.6290   18.1270 O.2   149  FMN149     -0.1744
      4  N3        -3.1620   36.7520   20.1820 N.2   149  FMN149     -0.2300
      5  C4        -4.0430   35.9410   20.8770 C.1   149  FMN149      0.2513
      6  O4        -3.8870   35.8400   22.2350 O.2   149  FMN149     -0.2057
      7  C4A       -5.0330   35.2000   20.1620 C.2   149  FMN149      0.2703
      8  N5        -5.8850   34.3840   20.8600 N.2   149  FMN149     -0.3882
      9  C5A       -6.8970   33.7740   20.1290 C.2   149  FMN149      0.1277
     10  C6        -7.8510   33.0520   20.9180 C.3   149  FMN149      0.0820
     11  C7        -8.9040   32.4820   20.1630 C.2   149  FMN149     -0.0408
     12  C7M       -9.9770   31.7140   20.7850 C.3   149  FMN149      0.0265
     13  C8        -8.9630   32.5950   18.7470 C.2   149  FMN149     -0.0280
     14  C8M      -10.0520   31.9630   18.0590 C.3   149  FMN149      0.0304
     15  C9        -8.0160   33.3270   18.0110 C.2   149  FMN149      0.0123
     16  C9A       -6.9350   33.9120   18.7320 C.2   149  FMN149      0.0793
     17  N10       -6.0120   34.6160   17.9740 N.pl3 149  FMN149     -0.2545
     18  C10       -5.0840   35.3040   18.7450 C.2   149  FMN149      0.2449
     19  C1'       -5.9350   34.8040   16.5760 C.3   149  FMN149      0.1336
     20  C2'       -5.3150   33.5190   15.9980 C.3   149  FMN149      0.2048
     21  O2'       -3.9430   33.3800   16.3700 O.3   149  FMN149     -0.2185
     22  C3'       -5.3040   33.6900   14.4550 C.3   149  FMN149      0.2165
     23  O3'       -6.6590   33.3250   14.1260 O.3   149  FMN149     -0.2175
     24  C4'       -4.3530   32.8860   13.6820 C.3   149  FMN149      0.2147
     25  O4'       -4.5330   33.1980   12.2700 O.3   149  FMN149     -0.2176
     26  C5'       -4.5000   31.4520   13.8750 C.3   149  FMN149      0.1892
     27  O5'       -3.3970   30.8340   13.1780 O.3   149  FMN149     -0.2674
     28  P         -3.2980   29.2470   12.7800 P.3   149  FMN149      0.5327
     29  O1P       -3.3820   28.4150   14.1430 O.3   149  FMN149     -0.1145
     30  O2P       -1.8910   28.9860   11.9650 O.3   149  FMN149     -0.1145
     31  O3P       -4.5130   28.8530   11.7270 O.2   149  FMN149     -0.2224
@<TRIPOS>BOND
     1    31    28    2
     2    30    28    1
     3    25    24    1
     4    28    27    1
     5    28    29    1
     6    27    26    1
     7    24    26    1
     8    24    22    1
     9    23    22    1
    10    22    20    1
    11    20    21    1
    12    20    19    1
    13    19    17    1
    14    17    16    1
    15    17    18    1
    16    15    16    2
    17    15    13    1
    18    14    13    1
    19     1    18    2
    20     1     2    2
    21     3     2    2
    22    16     9    1
    23    18     7    1
    24    13    11    2
    25     2     4    2
    26     9     8    2
    27     9    10    1
    28     7     8    2
    29     7     5    1
    30    11    12    1
    31    11    10    1
    32     4     5    2
    33     5     6    2
