@<TRIPOS>MOLECULE
1azm_AZM_A_1.pdb
 13 13 0 0 0
SMALL
GASTEIGER

@<TRIPOS>ATOM
      1  C1        34.7630   17.1930  -17.9380 C.ar  262  AZM262      0.2590
      2  C2        34.4370   16.4480  -20.1450 C.ar  262  AZM262      0.2093
      3  C3        32.9390   14.7710  -20.9940 C.2   262  AZM262      0.2478
      4  C4        32.4510   14.0020  -22.1390 C.3   262  AZM262      0.0969
      5  N1        36.4910   17.6300  -15.9610 N.3   262  AZM262      0.0413
      6  N2        35.0660   17.6270  -20.0430 N.ar  262  AZM262     -0.1222
      7  N3        35.1880   18.0710  -18.7670 N.ar  262  AZM262     -0.1189
      8  N4        33.7590   15.8350  -21.2140 N.am  262  AZM262     -0.1528
      9  O1        34.6720   16.0100  -15.7230 O.2   262  AZM262     -0.1483
     10  O2        34.1710   18.4170  -15.6930 O.2   262  AZM262     -0.1483
     11  O3        32.5820   14.4290  -19.8630 O.2   262  AZM262     -0.2729
     12  S1        34.9540   17.3730  -16.1930 S.O2  262  AZM262      0.1178
     13  S2        34.0480   15.8110  -18.6090 S.2   262  AZM262     -0.0087
@<TRIPOS>BOND
     1     4     3    1
     2     8     3   am
     3     8     2    1
     4     3    11    2
     5     2     6   ar
     6     2    13   ar
     7     6     7   ar
     8     7     1   ar
     9    13     1   ar
    10     1    12    1
    11    12     5    1
    12    12     9    2
    13    12    10    2
