@<TRIPOS>MOLECULE
1azs_GSP_C_1.pdb
 32 34 0 0 0
SMALL
GASTEIGER

@<TRIPOS>ATOM
      1  PG        23.8300    3.2150   28.5730 P.3   404  GSP404      0.4340
      2  O3B       22.6240    3.5430   27.4640 O.3   404  GSP404     -0.2405
      3  S1G       25.0240    4.6560   28.3440 S.3   404  GSP404      0.0416
      4  O2G       23.1550    3.1230   29.9010 O.3   404  GSP404     -0.1305
      5  O3G       24.4830    1.9710   28.1090 O.2   404  GSP404     -0.2423
      6  PB        21.2990    2.6810   27.2230 P.3   404  GSP404      0.2262
      7  O1B       21.6820    1.5200   26.3780 O.2   404  GSP404     -0.5168
      8  O2B       20.6620    2.4400   28.5310 O.3   404  GSP404     -0.4369
      9  PA        19.1670    4.5830   26.8750 P.3   404  GSP404      0.2189
     10  O1A       18.0950    3.6790   27.2670 O.2   404  GSP404     -0.5170
     11  O2A       19.7200    5.6070   27.7990 O.3   404  GSP404     -0.4371
     12  O3A       20.3480    3.6410   26.3240 O.3   404  GSP404     -0.2701
     13  O5'       18.7030    5.2740   25.5460 O.3   404  GSP404     -0.3112
     14  C5'       19.2750    6.5540   25.2430 C.3   404  GSP404      0.1813
     15  C4'       18.2450    7.4270   24.5900 C.3   404  GSP404      0.1799
     16  O4'       17.7630    6.7650   23.4190 O.3   404  GSP404     -0.3326
     17  C3'       17.0830    7.5960   25.5460 C.3   404  GSP404      0.2158
     18  O3'       17.1560    8.9420   26.0190 O.3   404  GSP404     -0.2175
     19  C2'       15.8160    7.3150   24.7130 C.3   404  GSP404      0.2310
     20  O2'       15.1590    8.5330   24.3450 O.3   404  GSP404     -0.2158
     21  C1'       16.3640    6.9680   23.3470 C.3   404  GSP404      0.2293
     22  N9        15.6810    5.8290   22.7550 N.pl3 404  GSP404     -0.2354
     23  C8        15.7510    4.5400   23.1640 C.3   404  GSP404      0.2246
     24  N7        15.1020    3.7440   22.3920 N.2   404  GSP404     -0.2322
     25  C5        14.5570    4.5460   21.3950 C.2   404  GSP404      0.2182
     26  C6        13.7590    4.1860   20.2750 C.1   404  GSP404      0.2372
     27  O6        13.5050    3.0500   19.8740 O.2   404  GSP404     -0.2069
     28  N1        13.4060    5.2900   19.5410 N.2   404  GSP404     -0.2485
     29  C2        13.7880    6.5700   19.8290 C.1   404  GSP404      0.2531
     30  N2        13.3720    7.4920   18.9870 N.pl3 404  GSP404     -0.0226
     31  N3        14.5580    6.9240   20.8760 N.2   404  GSP404     -0.3074
     32  C4        14.9020    5.8450   21.6160 C.2   404  GSP404      0.2300
@<TRIPOS>BOND
     1    30    29    1
     2    28    29    2
     3    28    26    2
     4    29    31    2
     5    27    26    2
     6    26    25    1
     7    31    32    2
     8    25    32    1
     9    25    24    2
    10    32    22    1
    11    24    23    1
    12    22    23    1
    13    22    21    1
    14    21    16    1
    15    21    19    1
    16    16    15    1
    17    20    19    1
    18    15    14    1
    19    15    17    1
    20    19    17    1
    21    14    13    1
    22    17    18    1
    23    13     9    1
    24    12     9    1
    25    12     6    1
    26     7     6    2
    27     9    10    2
    28     9    11    1
    29     6     2    1
    30     6     8    1
    31     2     1    1
    32     5     1    2
    33     3     1    1
    34     1     4    1
