@<TRIPOS>MOLECULE
1azs_FKP_A_1.pdb
 39 42 0 0 0
SMALL
GASTEIGER

@<TRIPOS>ATOM
      1  C1        42.9360  -12.5830   51.9940 C.3     1  FKP1        0.1547
      2  O2        42.7970  -13.7340   51.1600 O.3     1  FKP1       -0.2231
      3  C2        43.9170  -12.9280   53.1480 C.3     1  FKP1        0.0330
      4  C3        45.3230  -13.3260   52.5900 C.3     1  FKP1        0.0027
      5  C4        45.9250  -12.1370   51.7950 C.3     1  FKP1        0.0027
      6  C5        44.9610  -11.7960   50.6100 C.3     1  FKP1        0.0393
      7  C6        45.5790  -10.6370   49.7240 C.3     1  FKP1        0.1943
      8  O3        45.8340   -9.4170   50.4320 O.3     1  FKP1       -0.2192
      9  C7        44.5800  -10.3850   48.5460 C.3     1  FKP1        0.2260
     10  O4        45.0860   -9.3330   47.7200 O.3     1  FKP1       -0.4470
     11  C8        43.1520   -9.9590   48.9660 C.3     1  FKP1        0.1639
     12  O1        42.3880   -9.8200   47.7550 O.3     1  FKP1       -0.3524
     13  C9        42.6080  -11.1050   49.8340 C.3     1  FKP1        0.2051
     14  O6        42.5990  -12.2800   49.0050 O.3     1  FKP1       -0.2155
     15  C10       43.4790  -11.4060   51.1390 C.3     1  FKP1        0.0652
     16  C11       41.1400  -10.7260   50.1700 C.2     1  FKP1        0.1831
     17  O7        40.6180  -11.0690   51.2180 O.2     1  FKP1       -0.2933
     18  C12       40.3210   -9.8880   49.1580 C.3     1  FKP1        0.0985
     19  C13       40.9850   -9.5690   47.7850 C.3     1  FKP1        0.1183
     20  C14       40.3360  -10.4300   46.7440 C.2     1  FKP1        0.0006
     21  C15       40.8530  -11.6030   46.3750 C.2     1  FKP1       -0.0025
     22  C16       40.6970   -8.1170   47.3800 C.3     1  FKP1        0.0346
     23  C17       43.2610   -8.5600   49.6210 C.3     1  FKP1        0.0365
     24  C18       47.2820  -12.6400   51.2870 C.3     1  FKP1        0.0001
     25  C19       46.2430  -11.0970   52.8730 C.3     1  FKP1        0.0001
     26  C20       43.5100  -10.1680   52.0760 C.3     1  FKP1        0.0056
     27  C21       46.2850   -9.5550   47.1630 C.2     1  FKP1        0.3170
     28  O5        46.4960  -10.5550   46.5130 O.2     1  FKP1       -0.2501
     29  C22       47.3460   -8.4590   47.4050 C.3     1  FKP1        0.1096
     30  C23       47.9730   -8.3420   48.8520 C.3     1  FKP1        0.0131
     31  C24       48.8480   -9.5730   49.2690 C.3     1  FKP1        0.0179
     32  C25       50.0450   -9.2390   50.2270 C.3     1  FKP1        0.0722
     33  N1        49.9420   -9.8890   51.5790 N.3     1  FKP1       -0.2703
     34  C26       49.7540   -8.7900   52.5740 C.3     1  FKP1        0.0897
     35  C27       49.8000   -9.3110   54.0400 C.3     1  FKP1        0.0897
     36  N2        51.0840   -9.9680   54.3360 N.3     1  FKP1       -0.2691
     37  C28       51.2240  -11.1370   53.4160 C.3     1  FKP1        0.0897
     38  C29       51.1610  -10.7160   51.9060 C.3     1  FKP1        0.0897
     39  C30       51.0680  -10.3430   55.7580 C.3     1  FKP1        0.0897
@<TRIPOS>BOND
     1    21    20    2
     2    28    27    2
     3    20    19    1
     4    27    29    1
     5    27    10    1
     6    22    19    1
     7    29    30    1
     8    10     9    1
     9    12    19    1
    10    12    11    1
    11    19    18    1
    12     9    11    1
    13     9     7    1
    14    30    31    1
    15    11    23    1
    16    11    13    1
    17    14    13    1
    18    18    16    1
    19    31    32    1
    20     7     8    1
    21     7     6    1
    22    13    16    1
    23    13    15    1
    24    16    17    2
    25    32    33    1
    26     6    15    1
    27     6     5    1
    28    15     1    1
    29    15    26    1
    30     2     1    1
    31    24     5    1
    32    33    38    1
    33    33    34    1
    34     5     4    1
    35     5    25    1
    36    38    37    1
    37     1     3    1
    38    34    35    1
    39     4     3    1
    40    37    36    1
    41    35    36    1
    42    36    39    1
