@<TRIPOS>MOLECULE
1azt_GSP_A_1.pdb
 32 34 0 0 0
SMALL
GASTEIGER

@<TRIPOS>ATOM
      1  PG        16.1580   23.5430   43.2970 P.3   413  GSP413      0.4340
      2  O3B       16.1870   22.2700   42.1950 O.3   413  GSP413     -0.2405
      3  S1G       15.6270   22.7240   44.8640 S.3   413  GSP413      0.0416
      4  O2G       17.5250   24.1220   43.3040 O.3   413  GSP413     -0.1305
      5  O3G       15.1020   24.4930   42.9240 O.2   413  GSP413     -0.2423
      6  PB        16.5660   22.3120   40.5910 P.3   413  GSP413      0.2262
      7  O1B       15.4090   22.9060   39.8590 O.2   413  GSP413     -0.5168
      8  O2B       17.8940   22.9040   40.3780 O.3   413  GSP413     -0.4369
      9  PA        17.9140   19.8620   39.9120 P.3   413  GSP413      0.2189
     10  O1A       18.7620   20.5540   38.9010 O.2   413  GSP413     -0.5170
     11  O2A       18.5300   19.3420   41.1650 O.3   413  GSP413     -0.4371
     12  O3A       16.5920   20.7670   40.2580 O.3   413  GSP413     -0.2701
     13  O5'       17.0710   18.6630   39.2060 O.3   413  GSP413     -0.3112
     14  C5'       16.4870   17.7180   40.1300 C.3   413  GSP413      0.1813
     15  C4'       16.9770   16.3000   39.9520 C.3   413  GSP413      0.1799
     16  O4'       16.3960   15.7550   38.8000 O.3   413  GSP413     -0.3326
     17  C3'       18.4620   15.9880   39.8310 C.3   413  GSP413      0.2158
     18  O3'       18.6460   14.7600   40.4810 O.3   413  GSP413     -0.2175
     19  C2'       18.5960   15.6920   38.3340 C.3   413  GSP413      0.2310
     20  O2'       19.6990   14.8650   37.9570 O.3   413  GSP413     -0.2158
     21  C1'       17.2810   15.1100   37.9400 C.3   413  GSP413      0.2293
     22  N9        16.8480   15.5880   36.6150 N.pl3 413  GSP413     -0.2354
     23  C8        16.7640   16.8710   36.1260 C.3   413  GSP413      0.2246
     24  N7        16.3370   16.8860   34.9010 N.2   413  GSP413     -0.2322
     25  C5        16.1210   15.5670   34.5480 C.2   413  GSP413      0.2182
     26  C6        15.6280   15.0000   33.3500 C.1   413  GSP413      0.2372
     27  O6        15.2760   15.5290   32.3000 O.2   413  GSP413     -0.2069
     28  N1        15.5230   13.6460   33.4400 N.2   413  GSP413     -0.2485
     29  C2        15.8430   12.9150   34.5350 C.1   413  GSP413      0.2531
     30  N2        15.5710   11.6340   34.4660 N.pl3 413  GSP413     -0.0226
     31  N3        16.3220   13.4300   35.6590 N.2   413  GSP413     -0.3074
     32  C4        16.4280   14.7680   35.5870 C.2   413  GSP413      0.2300
@<TRIPOS>BOND
     1    27    26    2
     2    26    28    2
     3    26    25    1
     4    28    29    2
     5    30    29    1
     6    29    31    2
     7    25    24    2
     8    25    32    1
     9    24    23    1
    10    32    31    2
    11    32    22    1
    12    23    22    1
    13    22    21    1
    14    21    19    1
    15    21    16    1
    16    20    19    1
    17    19    17    1
    18    16    15    1
    19    10     9    2
    20    13     9    1
    21    13    14    1
    22    17    15    1
    23    17    18    1
    24     7     6    2
    25     9    12    1
    26     9    11    1
    27    15    14    1
    28    12     6    1
    29     8     6    1
    30     6     2    1
    31     2     1    1
    32     5     1    2
    33     1     4    1
    34     1     3    1
