@<TRIPOS>MOLECULE
1b02_UFP_A_1.pdb
 21 22 0 0 0
SMALL
GASTEIGER

@<TRIPOS>ATOM
      1  N1        -5.9030   48.0480    8.0110 N.am  280  UFP280     -0.1989
      2  C2        -5.1300   46.8760    8.1950 C.1   280  UFP280      0.2803
      3  N3        -3.7590   46.8270    7.7860 N.2   280  UFP280     -0.2470
      4  C4        -3.0640   47.8500    7.0310 C.1   280  UFP280      0.2265
      5  C5        -3.9120   49.0970    6.3660 C.3   280  UFP280      0.2980
      6  C6        -5.1350   49.3790    7.4860 C.3   280  UFP280      0.1597
      7  O2        -5.6230   45.7740    8.4600 O.2   280  UFP280     -0.1922
      8  O4        -1.8260   47.9050    6.9790 O.2   280  UFP280     -0.2106
      9  F5        -3.2030   50.1800    6.0920 F     280  UFP280     -0.2160
     10  C1'       -7.3790   48.1240    8.2780 C.3   280  UFP280      0.2049
     11  C2'       -7.8380   48.0460    9.7210 C.3   280  UFP280      0.0871
     12  C3'       -9.1780   48.7540    9.5530 C.3   280  UFP280      0.1857
     13  C4'       -9.0120   49.7790    8.4730 C.3   280  UFP280      0.1774
     14  O3'      -10.1540   47.7990    9.1830 O.3   280  UFP280     -0.2203
     15  O4'       -7.9610   49.2920    7.6490 O.3   280  UFP280     -0.3342
     16  C5'       -8.6620   51.2510    8.7970 C.3   280  UFP280      0.1858
     17  O5'       -9.8110   51.8170    9.5040 O.3   280  UFP280     -0.2675
     18  P         -9.5960   52.4620   10.9290 P.3   280  UFP280      0.5327
     19  O1P       -8.7220   53.6330   10.7430 O.2   280  UFP280     -0.2224
     20  O2P       -9.1760   51.4290   11.8500 O.3   280  UFP280     -0.1145
     21  O3P      -11.1140   52.7660   11.2780 O.3   280  UFP280     -0.1145
@<TRIPOS>BOND
     1     9     5    1
     2     5     4    1
     3     5     6    1
     4     8     4    2
     5     4     3    2
     6     6     1    1
     7    15    10    1
     8    15    13    1
     9     3     2    2
    10     1     2   am
    11     1    10    1
    12     2     7    2
    13    10    11    1
    14    13    16    1
    15    13    12    1
    16    16    17    1
    17    14    12    1
    18    17    18    1
    19    12    11    1
    20    19    18    2
    21    18    21    1
    22    18    20    1
