@<TRIPOS>MOLECULE
1b02_C2F_A_1.pdb
 33 35 0 0 0
SMALL
GASTEIGER

@<TRIPOS>ATOM
      1  N1        -9.2570   49.4070    4.5480 N.2   281  C2F281     -0.2726
      2  C2        -9.7600   48.1130    4.8670 C.1   281  C2F281      0.2603
      3  NA2      -11.0890   47.9120    5.2590 N.pl3 281  C2F281     -0.0221
      4  N3        -8.8910   47.0250    5.0330 N.2   281  C2F281     -0.2515
      5  C4        -7.4600   47.1550    4.7850 C.1   281  C2F281      0.2218
      6  O4        -6.6450   46.2630    4.9980 O.2   281  C2F281     -0.2109
      7  C4A       -6.9580   48.5750    4.5210 C.3   281  C2F281      0.2763
      8  N5        -5.5540   48.8770    4.1660 N.3   281  C2F281     -0.2435
      9  C6        -5.2450   49.9610    3.3280 C.3   281  C2F281      0.1062
     10  C7        -6.0060   51.1960    3.7340 C.3   281  C2F281      0.1547
     11  N8        -7.4160   50.9320    4.1020 N.2   281  C2F281     -0.2096
     12  C8A       -7.8700   49.6570    4.4890 C.1   281  C2F281      0.1050
     13  C9        -5.3940   49.6830    1.8000 C.3   281  C2F281      0.1302
     14  N10       -4.7360   48.3250    1.5830 N.pl3 281  C2F281     -0.2361
     15  C11       -4.4090   48.3880    4.9660 C.3   281  C2F281      0.0915
     16  C12       -6.7470   45.0230   -0.3750 C.ar  281  C2F281      0.0551
     17  C13       -7.4200   46.2720   -0.1750 C.ar  281  C2F281      0.0059
     18  C14       -6.8130   47.3400    0.5020 C.ar  281  C2F281      0.0162
     19  C15       -5.5060   47.1700    1.1110 C.ar  281  C2F281      0.0654
     20  C16       -4.8880   45.8620    1.0340 C.ar  281  C2F281      0.0162
     21  C17       -5.4600   44.8460    0.2810 C.ar  281  C2F281      0.0059
     22  C         -7.3090   43.9180   -1.2850 C.2   281  C2F281      0.2652
     23  O         -8.3410   44.1950   -1.9600 O.2   281  C2F281     -0.2684
     24  N         -6.6630   42.6500   -1.2240 N.am  281  C2F281     -0.1918
     25  CA        -7.1120   41.7170   -2.2800 C.3   281  C2F281      0.1986
     26  CB        -6.0000   41.7130   -3.3590 C.3   281  C2F281      0.0451
     27  CG        -6.0280   41.4920   -4.8910 C.3   281  C2F281      0.1164
     28  CD        -4.9470   42.4230   -5.5640 C.2   281  C2F281      0.3649
     29  OE1       -5.3170   43.6300   -5.7210 O.co2 281  C2F281     -0.2457
     30  OE2       -3.9740   41.8490   -6.0930 O.co2 281  C2F281     -0.2457
     31  CT        -7.3600   40.3830   -1.5950 C.2   281  C2F281      0.3842
     32  O1        -6.4230   40.0470   -0.8270 O.co2 281  C2F281     -0.2437
     33  O2        -8.4080   39.7860   -1.8910 O.co2 281  C2F281     -0.2437
@<TRIPOS>BOND
     1    30    28   ar
     2    29    28   ar
     3    28    27    1
     4    27    26    1
     5    26    25    1
     6    25    31    1
     7    25    24    1
     8    23    22    2
     9    33    31   ar
    10    31    32   ar
    11    22    24   am
    12    22    16    1
    13    16    17   ar
    14    16    21   ar
    15    17    18   ar
    16    21    20   ar
    17    18    19   ar
    18    20    19   ar
    19    19    14    1
    20    14    13    1
    21    13     9    1
    22     9    10    1
    23     9     8    1
    24    10    11    1
    25    11    12    2
    26     8     7    1
    27     8    15    1
    28    12     7    1
    29    12     1    2
    30     7     5    1
    31     1     2    2
    32     5     6    2
    33     5     4    2
    34     2     4    2
    35     2     3    1
