@<TRIPOS>MOLECULE
1b05_III_B_1.pdb
 25 24 0 0 0
SMALL
GASTEIGER

@<TRIPOS>ATOM
      1  N          6.8840   16.6990   15.2850 N.3     1  LYS1       -0.1231
      2  CA         6.4780   18.0080   14.6520 C.3     1  LYS1        0.1693
      3  C          5.2150   18.5430   15.3210 C.2     1  LYS1        0.2592
      4  O          4.4280   17.7430   15.8270 O.2     1  LYS1       -0.2718
      5  CB         6.2090   17.8530   13.1460 C.3     1  LYS1        0.0285
      6  CG         5.1900   16.7820   12.7410 C.3     1  LYS1        0.0035
      7  CD         5.0660   16.6830   11.1980 C.3     1  LYS1        0.0206
      8  CE         6.4390   16.2680   10.5920 C.3     1  LYS1        0.1093
      9  NZ         6.5980   14.8130   10.9630 N.3     1  LYS1       -0.1314
     10  N          5.0800   19.8290   15.4610 N.am    2  CYS2       -0.1956
     11  CA         3.9580   20.4790   16.1210 C.3     2  CYS2        0.1843
     12  C          2.6430   20.3630   15.3690 C.2     2  CYS2        0.2626
     13  O          2.5790   20.7100   14.1850 O.2     2  CYS2       -0.2714
     14  CB         4.2210   21.9740   16.3740 C.3     2  CYS2        0.0997
     15  SG         5.6110   22.1720   17.6070 S.3     2  CYS2       -0.0797
     16  N          1.5780   20.0200   16.1000 N.am    3  LYS3       -0.1941
     17  CA         0.2730   19.9130   15.4830 C.3     3  LYS3        0.1978
     18  C         -0.7590   20.7790   16.2460 C.2     3  LYS3        0.3842
     19  O         -1.7750   21.1190   15.6230 O.co2   3  LYS3       -0.2437
     20  CB        -0.3500   18.5300   15.3100 C.3     3  LYS3        0.0333
     21  CG        -1.3710   18.6380   14.1520 C.3     3  LYS3        0.0039
     22  CD        -1.9940   17.3240   13.7850 C.3     3  LYS3        0.0206
     23  CE        -2.7310   17.3200   12.4390 C.3     3  LYS3        0.1093
     24  NZ        -3.7120   18.4370   12.3970 N.3     3  LYS3       -0.1314
     25  OXT       -0.5180   21.2430   17.3380 O.co2   3  LYS3       -0.2437
@<TRIPOS>BOND
     1     8     9    1
     2     8     7    1
     3     7     6    1
     4    24    23    1
     5    23    22    1
     6     6     5    1
     7     5     2    1
     8    22    21    1
     9    21    20    1
    10    13    12    2
    11     2     1    1
    12     2     3    1
    13    20    17    1
    14     3    10   am
    15     3     4    2
    16    12    16   am
    17    12    11    1
    18    10    11    1
    19    17    16    1
    20    17    18    1
    21    19    18   ar
    22    11    14    1
    23    18    25   ar
    24    14    15    1
