@<TRIPOS>MOLECULE
1b09_PC_A_1.pdb
 11 10 0 0 0
SMALL
GASTEIGER

@<TRIPOS>ATOM
      1  P1       140.4200  171.5640   37.2590 P.3   500  PC500       0.5888
      2  O1       141.7730  170.8120   36.9590 O.2   500  PC500      -0.2114
      3  O3       140.0030  170.6370   38.4020 O.3   500  PC500      -0.1039
      4  O4       140.8920  172.8540   37.9220 O.3   500  PC500      -0.1039
      5  O2       139.2220  171.6660   36.2120 O.2   500  PC500      -0.3953
      6  C1       139.4180  171.8200   34.7710 C.2   500  PC500       0.1975
      7  C2       138.2050  171.6590   33.7650 C.2   500  PC500       0.0878
      8  N1       138.3390  171.8960   32.2580 N.pl3 500  PC500      -0.3478
      9  C3       139.6100  172.5980   32.0170 C.3   500  PC500       0.0961
     10  C4       137.2320  172.4550   31.3900 C.3   500  PC500       0.0961
     11  C5       138.4620  170.5920   31.6090 C.3   500  PC500       0.0961
@<TRIPOS>BOND
     1    10     8    1
     2    11     8    1
     3     9     8    1
     4     8     7    1
     5     7     6    2
     6     6     5    1
     7     5     1    1
     8     2     1    2
     9     1     4    1
    10     1     3    1
