@<TRIPOS>MOLECULE
1b0b_HEM_A_1.pdb
 43 50 0 0 0
SMALL
GASTEIGER

@<TRIPOS>ATOM
      1 FE          6.6670   -4.1920   19.2720 Fe    144  HEM144      0.0000
      2  CHA        5.1700   -6.9760   20.7100 C.2   144  HEM144      0.0000
      3  CHB        3.5770   -3.1250   18.1780 C.2   144  HEM144      0.0000
      4  CHC        8.0570   -1.3590   17.9650 C.2   144  HEM144      0.0000
      5  CHD        9.8320   -5.3050   20.1160 C.2   144  HEM144      0.0000
      6  NA         4.8110   -4.7760   19.4280 N.ar  144  HEM144      0.0000
      7  C1A        4.4310   -5.9590   20.1210 C.ar  144  HEM144      0.0000
      8  C2A        2.9600   -6.0010   20.1920 C.ar  144  HEM144      0.0000
      9  C3A        2.4500   -4.9490   19.5270 C.ar  144  HEM144      0.0000
     10  C4A        3.6690   -4.2300   18.9500 C.ar  144  HEM144      0.0000
     11  CMA        0.9980   -4.6170   19.2360 C.3   144  HEM144      0.0000
     12  CAA        2.0790   -7.1360   20.8990 C.3   144  HEM144      0.0000
     13  CBA        1.6220   -6.6270   22.3580 C.3   144  HEM144      0.0000
     14  CGA        2.8140   -6.7200   23.2750 C.2   144  HEM144      0.0000
     15  O1A        3.2700   -7.6590   23.7530 O.co2 144  HEM144      0.0000
     16  O2A        3.3660   -5.5420   23.4680 O.co2 144  HEM144      0.0000
     17  NB         5.9720   -2.5480   18.2630 N.2   144  HEM144      0.0000
     18  C1B        4.6910   -2.3620   17.7630 C.2   144  HEM144      0.0000
     19  C2B        4.5560   -1.2090   17.0240 C.2   144  HEM144      0.0000
     20  C3B        5.7660   -0.6520   17.0800 C.2   144  HEM144      0.0000
     21  C4B        6.6490   -1.5120   17.8390 C.2   144  HEM144      0.0000
     22  CMB        3.3500   -0.6720   16.3340 C.3   144  HEM144      0.0000
     23  CAB        6.1720    0.5230   16.4500 C.1   144  HEM144      0.0000
     24  CBB        6.3920    1.4320   16.3590 C.1   144  HEM144      0.0000
     25  NC         8.5340   -3.4900   19.0990 N.ar  144  HEM144      0.0000
     26  C1C        9.0010   -2.2830   18.5110 C.ar  144  HEM144      0.0000
     27  C2C       10.4320   -2.0870   18.5480 C.ar  144  HEM144      0.0000
     28  C3C       10.8800   -3.2810   19.1420 C.ar  144  HEM144      0.0000
     29  C4C        9.7510   -4.1580   19.4630 C.ar  144  HEM144      0.0000
     30  CMC       11.1670   -0.9510   18.0400 C.3   144  HEM144      0.0000
     31  CAC       12.2360   -3.6750   19.4690 C.2   144  HEM144      0.0000
     32  CBC       13.3330   -2.8770   19.6850 C.2   144  HEM144      0.0000
     33  ND         7.3640   -5.8090   20.1800 N.2   144  HEM144      0.0000
     34  C1D        8.7710   -6.0860   20.4460 C.2   144  HEM144      0.0000
     35  C2D        8.7660   -7.4730   21.0670 C.2   144  HEM144      0.0000
     36  C3D        7.4030   -8.0230   21.1310 C.2   144  HEM144      0.0000
     37  C4D        6.5720   -6.9020   20.7110 C.2   144  HEM144      0.0000
     38  CMD       10.0600   -8.1090   21.4110 C.3   144  HEM144      0.0000
     39  CAD        7.0200   -9.2690   21.7720 C.3   144  HEM144      0.0000
     40  CBD        7.4370  -10.3300   20.7790 C.3   144  HEM144      0.0000
     41  CGD        7.1110  -11.4730   21.4330 C.2   144  HEM144      0.0000
     42  O1D        5.9710  -12.0680   21.4260 O.co2 144  HEM144      0.0000
     43  O2D        7.8330  -12.3130   21.9390 O.co2 144  HEM144      0.0000
@<TRIPOS>BOND
     1    22    19    1
     2    24    23    3
     3    23    20    1
     4    19    20    2
     5    19    18    1
     6    20    21    1
     7    18     3    1
     8    18    17    2
     9    21     4    2
    10    21    17    1
    11     4    26    1
    12    30    27    1
    13     3    10    2
    14    17     1    1
    15    26    27   ar
    16    26    25   ar
    17    27    28   ar
    18    10     6   ar
    19    10     9   ar
    20    25     1    1
    21    25    29   ar
    22    28    29   ar
    23    28    31    1
    24    11     9    1
    25     1     6    1
    26     1    33    1
    27     6     7   ar
    28    29     5    1
    29    31    32    2
    30     9     8   ar
    31     5    34    2
    32     7     8   ar
    33     7     2    2
    34    33    34    1
    35    33    37    2
    36     8    12    1
    37    34    35    1
    38     2    37    1
    39    37    36    1
    40    40    41    1
    41    40    39    1
    42    12    13    1
    43    35    36    2
    44    35    38    1
    45    36    39    1
    46    42    41   ar
    47    41    43   ar
    48    13    14    1
    49    14    16   ar
    50    14    15   ar
