@<TRIPOS>MOLECULE
1b0d_TSU_A_1.pdb
 11 11 0 0 0
SMALL
GASTEIGER

@<TRIPOS>ATOM
      1  S         10.8990   20.1850   12.2090 S.3   130  TSU130      0.0421
      2  O1        11.5050   20.6540   13.4220 O.3   130  TSU130     -0.0650
      3  O2        10.1320   19.0110   12.5250 O.3   130  TSU130     -0.0650
      4  O3        11.9570   19.7940   11.3140 O.3   130  TSU130     -0.0650
      5  C1         9.8900   21.4410   11.4950 C.ar  130  TSU130      0.1123
      6  C2         8.9320   22.1280   12.2720 C.ar  130  TSU130      0.0186
      7  C3         8.1260   23.1350   11.7130 C.ar  130  TSU130     -0.0029
      8  C4         8.2640   23.4770   10.3600 C.ar  130  TSU130     -0.0218
      9  C5         9.2140   22.7990    9.5740 C.ar  130  TSU130     -0.0029
     10  C6        10.0160   21.7910   10.1410 C.ar  130  TSU130      0.0186
     11  C7         7.3840   24.5830    9.7420 C.3   130  TSU130      0.0310
@<TRIPOS>BOND
     1     9    10   ar
     2     9     8   ar
     3    11     8    1
     4    10     5   ar
     5     8     7   ar
     6     4     1    1
     7     5     1    1
     8     5     6   ar
     9     7     6   ar
    10     1     3    1
    11     1     2    1
