@<TRIPOS>MOLECULE
1b0e_SEI_A_1.pdb
 44 46 0 0 0
SMALL
GASTEIGER

@<TRIPOS>ATOM
      1  C2         1.0800   86.9430   25.1850 C.3   260  SEI260      0.1637
      2  C3         2.5190   86.7750   24.7040 C.3   260  SEI260      0.1258
      3  C15        4.1270   84.9900   24.0740 C.2   260  SEI260      0.2492
      4  C19        4.8280   80.8150   23.2410 C.ar  260  SEI260      0.0551
      5  C20        3.6720   81.4510   22.6700 C.ar  260  SEI260      0.0047
      6  C21        3.3880   82.7900   22.9980 C.ar  260  SEI260      0.0047
      7  C22        4.2770   83.5100   23.8540 C.ar  260  SEI260      0.0536
      8  C27        5.0980   79.4080   22.8980 C.2   260  SEI260      0.2652
      9  C30        7.6270   77.7880   21.0870 C.3   260  SEI260      0.0289
     10  C31        6.8390   78.4840   19.9700 C.3   260  SEI260      0.0023
     11  C35        8.0750   76.3990   20.6260 C.3   260  SEI260      0.0023
     12  O1         0.2350   85.8260   24.8660 O.3   260  SEI260     -0.3501
     13  N4         3.0140   85.3820   24.7920 N.am  260  SEI260     -0.2709
     14  C5         2.1780   84.4660   25.5910 C.3   260  SEI260      0.1258
     15  C6         0.7690   84.4940   25.0120 C.3   260  SEI260      0.1637
     16  O16        4.9610   85.8040   23.6570 O.2   260  SEI260     -0.2699
     17  C17        5.3790   82.8410   24.4790 C.ar  260  SEI260      0.0047
     18  C18        5.6710   81.5060   24.1520 C.ar  260  SEI260      0.0047
     19  N28        6.3960   79.0330   22.8470 N.am  260  SEI260     -0.1941
     20  C29        6.7530   77.6790   22.3670 C.3   260  SEI260      0.1718
     21  C40        7.5270   76.9370   23.4720 C.2   260  SEI260      0.2496
     22  O42        8.7300   77.1610   23.6610 O.2   260  SEI260     -0.2727
     23  C44        7.5020   75.1780   25.1860 C.3   260  SEI260      0.1619
     24  C45        5.3150   75.7510   24.1220 C.2   260  SEI260      0.0634
     25  C46        5.0490   74.7510   25.2310 C.2   260  SEI260     -0.0077
     26  C47        6.3790   74.3700   25.8180 C.3   260  SEI260      0.0570
     27  C52        8.4900   74.2900   24.4260 C.2   260  SEI260      0.2605
     28  N53        9.5860   73.9460   25.1270 N.am  260  SEI260     -0.1980
     29  N54        6.7810   76.0500   24.2300 N.am  260  SEI260     -0.2490
     30  O58        8.2820   73.9610   23.2530 O.2   260  SEI260     -0.2715
     31  C59       10.5260   73.0560   24.4320 C.3   260  SEI260      0.1581
     32  C61       11.9120   73.7660   24.2920 C.3   260  SEI260      0.0274
     33  C62       12.3360   74.4190   25.5990 C.3   260  SEI260      0.0022
     34  C66       11.8620   74.7940   23.1810 C.3   260  SEI260      0.0022
     35  C71       10.7330   71.6000   24.8840 C.2   260  SEI260      0.2387
     36  C73        9.3570   70.6550   24.8780 C.3   260  SEI260      0.4001
     37  O74       11.8580   71.0940   24.8630 O.2   260  SEI260     -0.2883
     38  F75        9.2010   69.6680   25.8460 F     260  SEI260     -0.1871
     39  F76        8.2630   71.4530   24.9190 F     260  SEI260     -0.1871
     40  C77        9.2790   69.8310   23.6110 C.3   260  SEI260      0.4617
     41  F78        9.5720   70.6640   22.5940 F     260  SEI260     -0.1646
     42  F79       10.1950   68.8820   23.7210 F     260  SEI260     -0.1646
     43  F80        8.0530   69.2660   23.4610 F     260  SEI260     -0.1646
     44  O81        4.1800   78.6240   22.6580 O.2   260  SEI260     -0.2684
@<TRIPOS>BOND
     1    10     9    1
     2    11     9    1
     3     9    20    1
     4    20    19    1
     5    20    21    1
     6    41    40    1
     7    44     8    2
     8     5     6   ar
     9     5     4   ar
    10    19     8   am
    11     8     4    1
    12     6     7   ar
    13    34    32    1
    14     4    18   ar
    15    30    27    2
    16    43    40    1
    17    21    22    2
    18    21    29   am
    19    40    42    1
    20    40    36    1
    21    16     3    2
    22     7     3    1
    23     7    17   ar
    24     3    13   am
    25    24    29    1
    26    24    25    2
    27    18    17   ar
    28    29    23    1
    29    32    31    1
    30    32    33    1
    31    27    28   am
    32    27    23    1
    33    31    35    1
    34    31    28    1
    35     2    13    1
    36     2     1    1
    37    13    14    1
    38    37    35    2
    39    12    15    1
    40    12     1    1
    41    36    35    1
    42    36    39    1
    43    36    38    1
    44    15    14    1
    45    23    26    1
    46    25    26    1
