@<TRIPOS>MOLECULE
1b0f_FUC_A_1.pdb
 10 10 0 0 0
SMALL
GASTEIGER

@<TRIPOS>ATOM
      1  C1        49.7570   74.2900   59.5280 C.3   402  FUC402      0.1776
      2  C2        49.8060   75.4170   60.5630 C.3   402  FUC402      0.2141
      3  C3        49.9480   74.8140   61.9560 C.3   402  FUC402      0.2172
      4  C4        51.1730   73.8810   62.0150 C.3   402  FUC402      0.2116
      5  C5        51.0990   72.8250   60.9050 C.3   402  FUC402      0.1483
      6  C6        52.3610   71.9830   60.8160 C.3   402  FUC402      0.0349
      7  O2        48.6180   76.2010   60.4920 O.3   402  FUC402     -0.2176
      8  O3        50.0840   75.8580   62.9150 O.3   402  FUC402     -0.2175
      9  O4        52.3740   74.6360   61.8970 O.3   402  FUC402     -0.2177
     10  O5        50.9130   73.4570   59.6210 O.3   402  FUC402     -0.3508
@<TRIPOS>BOND
     1     1    10    1
     2     1     2    1
     3    10     5    1
     4     7     2    1
     5     2     3    1
     6     6     5    1
     7     5     4    1
     8     9     4    1
     9     3     4    1
    10     3     8    1
