@<TRIPOS>MOLECULE
1b0f_SEI_A_1.pdb
 44 46 0 0 0
SMALL
GASTEIGER

@<TRIPOS>ATOM
      1  C2        71.2490   42.2540   56.8290 C.3   300  SEI300      0.1637
      2  C3        72.2980   43.1250   56.1970 C.3   300  SEI300      0.1258
      3  C15       72.8480   45.4530   56.1250 C.2   300  SEI300      0.2492
      4  C19       71.6850   49.6000   56.5790 C.ar  300  SEI300      0.0551
      5  C20       71.1360   48.6270   57.4150 C.ar  300  SEI300      0.0047
      6  C21       71.5470   47.3020   57.2760 C.ar  300  SEI300      0.0047
      7  C22       72.4860   46.8950   56.3030 C.ar  300  SEI300      0.0536
      8  C27       71.3080   51.0040   56.8410 C.2   300  SEI300      0.2652
      9  C30       72.3500   53.8400   55.3100 C.3   300  SEI300      0.0289
     10  C31       73.6340   53.4690   56.0020 C.3   300  SEI300      0.0023
     11  C35       72.2240   55.3700   55.2560 C.3   300  SEI300      0.0023
     12  O1        70.0630   42.6410   56.1860 O.3   300  SEI300     -0.3501
     13  N4        71.8870   44.5210   56.2210 N.am  300  SEI300     -0.2709
     14  C5        70.4780   44.8080   55.9770 C.3   300  SEI300      0.1258
     15  C6        69.6200   43.8420   56.7290 C.3   300  SEI300      0.1637
     16  O16       73.9750   45.0510   55.8550 O.2   300  SEI300     -0.2699
     17  C17       73.0420   47.8850   55.4740 C.ar  300  SEI300      0.0047
     18  C18       72.5970   49.2150   55.5640 C.ar  300  SEI300      0.0047
     19  N28       71.0500   51.7780   55.7480 N.am  300  SEI300     -0.1941
     20  C29       71.1510   53.1980   56.0630 C.3   300  SEI300      0.1718
     21  C40       69.8270   53.8190   55.6360 C.2   300  SEI300      0.2496
     22  O42       69.4560   53.7500   54.4700 O.2   300  SEI300     -0.2727
     23  C44       67.7610   54.8240   56.2350 C.3   300  SEI300      0.1619
     24  C45       69.4120   54.4820   58.0150 C.2   300  SEI300      0.0634
     25  C46       68.1260   54.9730   58.6700 C.2   300  SEI300     -0.0077
     26  C47       67.1620   55.2320   57.5670 C.3   300  SEI300      0.0570
     27  C52       67.8700   56.0120   55.2990 C.2   300  SEI300      0.2605
     28  N53       66.8730   56.0130   54.4100 N.am  300  SEI300     -0.1980
     29  N54       69.0810   54.3570   56.5950 N.am  300  SEI300     -0.2490
     30  O58       68.7790   56.8260   55.4180 O.2   300  SEI300     -0.2715
     31  C59       66.7250   57.0680   53.4370 C.3   300  SEI300      0.1581
     32  C61       66.7560   56.4790   51.9920 C.3   300  SEI300      0.0274
     33  C62       65.6970   55.4270   51.8040 C.3   300  SEI300      0.0022
     34  C66       68.1280   55.8970   51.6880 C.3   300  SEI300      0.0022
     35  C71       65.5360   58.0200   53.5610 C.2   300  SEI300      0.2387
     36  C73       65.3910   58.7340   55.0350 C.3   300  SEI300      0.4001
     37  O74       64.9960   58.4300   52.5410 O.2   300  SEI300     -0.2883
     38  F75       64.1220   59.1010   55.6040 F     300  SEI300     -0.1871
     39  F76       66.1200   57.9630   55.9050 F     300  SEI300     -0.1871
     40  C77       66.0170   60.0440   54.9430 C.3   300  SEI300      0.4617
     41  F78       67.2730   59.8040   54.6830 F     300  SEI300     -0.1646
     42  F79       65.4350   60.7200   53.9670 F     300  SEI300     -0.1646
     43  F80       65.8030   60.6120   56.1060 F     300  SEI300     -0.1646
     44  O81       71.2520   51.4570   57.9890 O.2   300  SEI300     -0.2684
@<TRIPOS>BOND
     1    34    32    1
     2    33    32    1
     3    32    31    1
     4    37    35    2
     5    31    35    1
     6    31    28    1
     7    35    36    1
     8    42    40    1
     9    28    27   am
    10    22    21    2
    11    41    40    1
    12    40    36    1
    13    40    43    1
    14    36    38    1
    15    36    39    1
    16    11     9    1
    17    27    30    2
    18    27    23    1
    19     9    10    1
    20     9    20    1
    21    17    18   ar
    22    17     7   ar
    23    18     4   ar
    24    21    20    1
    25    21    29   am
    26    19    20    1
    27    19     8   am
    28    16     3    2
    29    14    13    1
    30    14    15    1
    31     3    13   am
    32     3     7    1
    33    12    15    1
    34    12     1    1
    35     2    13    1
    36     2     1    1
    37    23    29    1
    38    23    26    1
    39     7     6   ar
    40     4     8    1
    41     4     5   ar
    42    29    24    1
    43     8    44    2
    44     6     5   ar
    45    26    25    1
    46    24    25    2
