@<TRIPOS>MOLECULE
1b0h_III_B_1.pdb
 34 35 0 0 0
SMALL
GASTEIGER

@<TRIPOS>ATOM
      1  N          6.9090   16.7300   15.2530 N.3   601  LYS601     -0.1231
      2  CA         6.4360   18.0200   14.6830 C.3   601  LYS601      0.1693
      3  C          5.1700   18.4740   15.4120 C.2   601  LYS601      0.2592
      4  O          4.4670   17.5800   15.8650 O.2   601  LYS601     -0.2718
      5  CB         6.2720   17.9240   13.1610 C.3   601  LYS601      0.0285
      6  CG         5.3730   16.7960   12.6860 C.3   601  LYS601      0.0035
      7  CD         5.3290   16.6920   11.1580 C.3   601  LYS601      0.0206
      8  CE         6.6160   16.0710   10.5960 C.3   601  LYS601      0.1093
      9  NZ         6.6840   14.6270   10.9920 N.3   601  LYS601     -0.1314
     10  N          4.9980   19.7850   15.6180 N.am  602  ALA602     -0.1962
     11  CA         3.7820   20.2150   16.3270 C.3   602  ALA602      0.1771
     12  C          2.5590   20.1490   15.4140 C.2   602  ALA602      0.2620
     13  O          2.5900   20.4070   14.2000 O.2   602  ALA602     -0.2715
     14  CB         3.9240   21.6660   16.8420 C.3   602  ALA602      0.0574
     15  CG1        5.0970   21.7900   17.8040 C.ar  602  ALA602     -0.0199
     16  CD1        6.1730   22.5540   17.3290 C.ar  602  ALA602     -0.0042
     17  CE1        7.3110   22.7060   18.1170 C.ar  602  ALA602     -0.0003
     18  CD2        5.1750   21.2140   19.0800 C.ar  602  ALA602     -0.0039
     19  CE2        6.2950   21.3250   19.9340 C.ar  602  ALA602     -0.0003
     20  CZ1        7.3670   22.1270   19.3670 C.ar  602  ALA602     -0.0000
     21  CG2        4.1150   20.4510   19.5690 C.ar  602  ALA602     -0.0003
     22  CD3        4.0960   19.8320   20.7520 C.ar  602  ALA602     -0.0000
     23  CE3        5.2370   19.9180   21.5770 C.ar  602  ALA602     -0.0000
     24  CZ2        6.3230   20.6880   21.1870 C.ar  602  ALA602     -0.0000
     25  N          1.4090   19.7920   15.9990 N.am  603  LYS603     -0.1941
     26  CA         0.1730   19.7670   15.2560 C.3   603  LYS603      0.1978
     27  C         -0.8960   20.5730   16.0140 C.2   603  LYS603      0.3842
     28  O         -1.8600   20.9460   15.3390 O.co2 603  LYS603     -0.2437
     29  CB        -0.4140   18.3430   15.1810 C.3   603  LYS603      0.0333
     30  CG        -1.3790   18.2590   13.9930 C.3   603  LYS603      0.0039
     31  CD        -2.0790   16.9220   14.0350 C.3   603  LYS603      0.0206
     32  CE        -3.4240   17.0270   13.3120 C.3   603  LYS603      0.1093
     33  NZ        -3.1520   16.8360   11.8600 N.3   603  LYS603     -0.1314
     34  OXT       -0.8180   20.7360   17.2390 O.co2 603  LYS603     -0.2437
@<TRIPOS>BOND
     1     8     9    1
     2     8     7    1
     3     7     6    1
     4    33    32    1
     5     6     5    1
     6     5     2    1
     7    32    31    1
     8    30    31    1
     9    30    29    1
    10    13    12    2
    11     2     1    1
    12     2     3    1
    13    29    26    1
    14    26    25    1
    15    26    27    1
    16    28    27   ar
    17     3    10   am
    18     3     4    2
    19    12    25   am
    20    12    11    1
    21    10    11    1
    22    27    34   ar
    23    11    14    1
    24    14    15    1
    25    16    15   ar
    26    16    17   ar
    27    15    18   ar
    28    17    20   ar
    29    18    21   ar
    30    18    19   ar
    31    20    19   ar
    32    21    22   ar
    33    19    24   ar
    34    22    23   ar
    35    24    23   ar
