@<TRIPOS>MOLECULE
1b0j_ICT_A_1.pdb
 13 12 0 0 0
SMALL
GASTEIGER

@<TRIPOS>ATOM
      1  C1        35.7400   34.9450   69.7640 C.2   756  ICT756      0.3952
      2  O1        35.3560   36.1150   69.9150 O.co2 756  ICT756     -0.2428
      3  O2        35.4360   34.2670   68.7730 O.co2 756  ICT756     -0.2428
      4  C2        36.5810   34.3340   70.8450 C.3   756  ICT756      0.2651
      5  O7        36.6020   32.9510   70.5780 O.3   756  ICT756     -0.2103
      6  C3        36.0700   34.6080   72.2620 C.3   756  ICT756      0.1561
      7  C4        37.1180   34.4200   73.3600 C.3   756  ICT756      0.1285
      8  C5        38.3650   35.1060   72.9670 C.2   756  ICT756      0.3655
      9  O3        38.4730   36.3620   72.9240 O.co2 756  ICT756     -0.2456
     10  O4        39.3440   34.3220   72.9260 O.co2 756  ICT756     -0.2456
     11  C6        34.7160   34.0550   72.7000 C.2   756  ICT756      0.3680
     12  O5        34.5670   33.9300   73.9470 O.co2 756  ICT756     -0.2455
     13  O6        33.8210   33.7880   71.8450 O.co2 756  ICT756     -0.2455
@<TRIPOS>BOND
     1     3     1   ar
     2     1     2   ar
     3     1     4    1
     4     5     4    1
     5     4     6    1
     6    13    11   ar
     7     6    11    1
     8     6     7    1
     9    11    12   ar
    10     9     8   ar
    11    10     8   ar
    12     8     7    1
