@<TRIPOS>MOLECULE
1b0k_FLC_A_1.pdb
 13 12 0 0 0
SMALL
GASTEIGER

@<TRIPOS>ATOM
      1  CAC       34.5630   34.0580   72.5630 C.2   756  FLC756      0.3680
      2  CA        35.8020   33.9470   72.0640 C.3   756  FLC756      0.1560
      3  CB        36.5320   34.2760   70.9270 C.3   756  FLC756      0.2402
      4  CBC       35.8030   34.9490   69.8390 C.2   756  FLC756      0.3927
      5  CG        37.7230   35.0970   71.4350 C.3   756  FLC756      0.1560
      6  CGC       38.1470   35.2040   72.8070 C.2   756  FLC756      0.3680
      7  OA1       34.5320   34.3220   73.7720 O.co2 756  FLC756     -0.2455
      8  OA2       33.5640   33.9260   71.8050 O.co2 756  FLC756     -0.2455
      9  OB1       35.4710   34.3020   68.7850 O.co2 756  FLC756     -0.2429
     10  OB2       35.5710   36.1850   70.0890 O.co2 756  FLC756     -0.2429
     11  OG1       39.2720   34.8290   73.1680 O.co2 756  FLC756     -0.2455
     12  OG2       37.3250   35.6620   73.5740 O.co2 756  FLC756     -0.2455
     13  OHB       37.1210   32.9290   70.5820 O.3   756  FLC756     -0.2129
@<TRIPOS>BOND
     1     9     4   ar
     2     4    10   ar
     3     4     3    1
     4    13     3    1
     5     3     5    1
     6     3     2    1
     7     5     6    1
     8     8     1   ar
     9     2     1    1
    10     1     7   ar
    11     6    11   ar
    12     6    12   ar
