@<TRIPOS>MOLECULE
1b0m_FLC_A_1.pdb
 13 12 0 0 0
SMALL
GASTEIGER

@<TRIPOS>ATOM
      1  CAC      -26.7840  -40.4450  106.3240 C.2   756  FLC756      0.3680
      2  CA       -27.8160  -40.0100  105.3460 C.3   756  FLC756      0.1560
      3  CB       -28.1760  -40.5570  104.0210 C.3   756  FLC756      0.2402
      4  CBC      -27.1500  -41.1970  103.0020 C.2   756  FLC756      0.3927
      5  CG       -29.0790  -41.7440  104.5590 C.3   756  FLC756      0.1560
      6  CGC      -29.9970  -41.8850  105.7500 C.2   756  FLC756      0.3680
      7  OA1      -25.6250  -40.4160  105.9070 O.co2 756  FLC756     -0.2455
      8  OA2      -27.1420  -40.8090  107.4530 O.co2 756  FLC756     -0.2455
      9  OB1      -27.6760  -42.0120  102.1970 O.co2 756  FLC756     -0.2429
     10  OB2      -25.9190  -40.9210  102.9910 O.co2 756  FLC756     -0.2429
     11  OG1      -31.2310  -41.8600  105.5600 O.co2 756  FLC756     -0.2455
     12  OG2      -29.4850  -42.0330  106.8730 O.co2 756  FLC756     -0.2455
     13  OHB      -28.7940  -39.4530  103.2970 O.3   756  FLC756     -0.2129
@<TRIPOS>BOND
     1     9     4   ar
     2    10     4   ar
     3     4     3    1
     4    13     3    1
     5     3     5    1
     6     3     2    1
     7     5     6    1
     8     2     1    1
     9    11     6   ar
    10     6    12   ar
    11     7     1   ar
    12     1     8   ar
