@<TRIPOS>MOLECULE
1b0o_PLM_A_1.pdb
 18 17 0 0 0
SMALL
GASTEIGER

@<TRIPOS>ATOM
      1  C1         2.0600    1.7050   38.2420 C.2   180  PLM180      0.3649
      2  O1         1.7540    0.7460   38.9840 O.co2 180  PLM180     -0.2457
      3  O2         1.2810    2.1380   37.3680 O.co2 180  PLM180     -0.2457
      4  C2         3.4280    2.3540   38.4130 C.3   180  PLM180      0.1141
      5  C3         3.4180    3.5710   39.3320 C.3   180  PLM180      0.0118
      6  C4         4.5930    4.5100   39.0730 C.3   180  PLM180      0.0006
      7  C5         4.2240    5.7240   38.2230 C.3   180  PLM180      0.0000
      8  C6         4.6710    7.0480   38.8320 C.3   180  PLM180      0.0000
      9  C7         5.4920    7.8900   37.8330 C.3   180  PLM180      0.0000
     10  C8         7.0030    7.7600   38.1010 C.3   180  PLM180      0.0000
     11  C9         7.8360    8.6160   37.1520 C.3   180  PLM180      0.0000
     12  CA         9.2620    8.8610   37.6340 C.3   180  PLM180      0.0000
     13  CB         9.9600    9.9820   36.8690 C.3   180  PLM180      0.0000
     14  CC        11.4750    9.8420   37.0020 C.3   180  PLM180      0.0000
     15  CD        12.1400   11.2130   36.9150 C.3   180  PLM180      0.0000
     16  CE        12.8600   11.3810   35.5820 C.3   180  PLM180      0.0000
     17  CF        13.3430   12.8180   35.3950 C.3   180  PLM180      0.0000
     18  CG        12.8830   13.3680   34.0480 C.3   180  PLM180      0.0000
@<TRIPOS>BOND
     1    18    17    1
     2    17    16    1
     3    16    15    1
     4    13    14    1
     5    13    12    1
     6    15    14    1
     7    11    12    1
     8    11    10    1
     9     3     1   ar
    10     9    10    1
    11     9     8    1
    12     7     8    1
    13     7     6    1
    14     1     4    1
    15     1     2   ar
    16     4     5    1
    17     6     5    1
