@<TRIPOS>MOLECULE
1b0p_TPP_A_1.pdb
 26 27 0 0 0
SMALL
GASTEIGER

@<TRIPOS>ATOM
      1  N1'      -27.0830  -64.9150   22.6690 N.2   1236  TPP1236    -0.2133
      2  C2'      -25.7990  -65.0760   23.0510 C.1   1236  TPP1236     0.0615
      3  CM2      -25.0830  -63.9770   23.7940 C.3   1236  TPP1236     0.1287
      4  N3'      -25.1410  -66.2060   22.7880 N.2   1236  TPP1236    -0.3413
      5  C4'      -25.7060  -67.1460   21.9680 C.2   1236  TPP1236     0.2106
      6  N4'      -24.9880  -68.2450   21.7440 N.pl3 1236  TPP1236    -0.0969
      7  C5'      -26.9920  -66.9020   21.4140 C.3   1236  TPP1236     0.1158
      8  C6'      -27.5430  -65.7120   21.6890 C.3   1236  TPP1236     0.1472
      9  C7'      -27.6940  -67.9000   20.5380 C.3   1236  TPP1236     0.1018
     10  N3       -27.2130  -67.6700   19.1080 N.pl3 1236  TPP1236    -0.3006
     11  C2       -25.9910  -68.0730   18.7700 C.3   1236  TPP1236     0.1541
     12  S1       -25.7560  -68.3360   17.1440 S.3   1236  TPP1236    -0.0951
     13  C5       -27.1680  -67.3580   16.8560 C.2   1236  TPP1236     0.0163
     14  C4       -27.8460  -67.0820   18.0280 C.2   1236  TPP1236     0.0276
     15  CM4      -29.0610  -66.2300   18.1140 C.3   1236  TPP1236     0.0473
     16  C6       -27.4760  -66.9480   15.4850 C.3   1236  TPP1236     0.0661
     17  C7       -26.5110  -67.3880   14.4170 C.3   1236  TPP1236     0.1544
     18  O7       -26.6120  -66.5620   13.2950 O.3   1236  TPP1236    -0.3134
     19  PA       -25.6780  -66.2770   12.0860 P.3   1236  TPP1236     0.2230
     20  O1A      -24.5830  -65.4710   12.6710 O.3   1236  TPP1236    -0.4370
     21  O2A      -26.3580  -65.8000   10.9140 O.2   1236  TPP1236    -0.5169
     22  O3A      -25.1390  -67.6980   11.8100 O.3   1236  TPP1236    -0.2261
     23  PB       -25.7010  -68.9000   10.9360 P.3   1236  TPP1236     0.5373
     24  O1B      -26.8340  -68.2130   10.1560 O.3   1236  TPP1236    -0.1143
     25  O2B      -24.6130  -69.2010    9.9460 O.2   1236  TPP1236    -0.2221
     26  O3B      -26.1770  -69.9160   11.8670 O.3   1236  TPP1236    -0.1143
@<TRIPOS>BOND
     1    25    23    2
     2    24    23    1
     3    21    19    2
     4    23    22    1
     5    23    26    1
     6    22    19    1
     7    19    20    1
     8    19    18    1
     9    18    17    1
    10    17    16    1
    11    16    13    1
    12    13    12    1
    13    13    14    2
    14    12    11    1
    15    14    15    1
    16    14    10    1
    17    11    10    1
    18    10     9    1
    19     9     7    1
    20     7     8    1
    21     7     5    1
    22     8     1    1
    23     6     5    1
    24     5     4    2
    25     1     2    2
    26     4     2    2
    27     2     3    1
