@<TRIPOS>MOLECULE
1b0r_III_C_1.pdb
 20 19 0 0 0
SMALL
GASTEIGER

@<TRIPOS>ATOM
      1  N         23.2750   -8.4430   63.5590 N.3   701  GLY701     -0.1210
      2  CA        23.6210   -7.0550   63.1190 C.3   701  GLY701      0.1956
      3  C         24.6770   -6.2810   63.9240 C.2   701  GLY701      0.2612
      4  O         25.8580   -6.5640   63.8480 O.2   701  GLY701     -0.2717
      5  N         24.1900   -5.3190   64.7230 N.am  702  ILE702     -0.1965
      6  CA        25.0830   -4.4710   65.5340 C.3   702  ILE702      0.1727
      7  C         25.5200   -5.0260   66.9000 C.2   702  ILE702      0.2616
      8  O         25.4100   -6.2120   67.1270 O.2   702  ILE702     -0.2715
      9  CB        24.5160   -2.9980   65.7110 C.3   702  ILE702      0.0290
     10  CG1       23.0160   -2.9790   65.6500 C.3   702  ILE702      0.0022
     11  CG2       25.0780   -2.0600   64.6810 C.3   702  ILE702      0.0023
     12  CD1       22.4120   -1.5720   65.7560 C.3   702  ILE702      0.0001
     13  N         25.9450   -4.1270   67.7980 N.am  703  LEU703     -0.1977
     14  CA        26.4310   -4.4860   69.1310 C.3   703  LEU703      0.1596
     15  C         25.3570   -4.0970   70.1180 C.2   703  LEU703      0.2287
     16  O         24.9670   -2.9050   70.0580 O.2   703  LEU703     -0.2864
     17  CB        27.6940   -3.6740   69.4520 C.3   703  LEU703      0.0297
     18  CG        29.0200   -4.4360   69.4040 C.3   703  LEU703      0.0022
     19  CD1       30.2020   -3.5230   69.1180 C.3   703  LEU703      0.0001
     20  CD2       29.2200   -5.1990   70.7080 C.3   703  LEU703      0.0001
@<TRIPOS>BOND
     1     2     1    1
     2     2     3    1
     3     4     3    2
     4     3     5   am
     5    11     9    1
     6     5     6    1
     7     6     9    1
     8     6     7    1
     9    10     9    1
    10    10    12    1
    11     7     8    2
    12     7    13   am
    13    13    14    1
    14    19    18    1
    15    14    17    1
    16    14    15    1
    17    18    17    1
    18    18    20    1
    19    16    15    2
