@<TRIPOS>MOLECULE
1b0u_ATP_A_1.pdb
 31 33 0 0 0
SMALL
GASTEIGER

@<TRIPOS>ATOM
      1  PG        46.1070   45.1820   56.9500 P.3   301  ATP301      0.5373
      2  O1G       45.7790   46.3300   56.0520 O.2   301  ATP301     -0.2221
      3  O2G       47.3820   44.4970   56.6260 O.3   301  ATP301     -0.1143
      4  O3G       45.9720   45.5300   58.3750 O.3   301  ATP301     -0.1143
      5  PB        43.9110   43.7400   55.6550 P.3   301  ATP301      0.2277
      6  O1B       42.9750   42.7220   55.9860 O.3   301  ATP301     -0.4368
      7  O2B       43.6030   44.7670   54.6780 O.2   301  ATP301     -0.5168
      8  O3B       45.0410   44.0150   56.7380 O.3   301  ATP301     -0.2258
      9  PA        45.2280   42.6690   53.2570 P.3   301  ATP301      0.2189
     10  O1A       46.3800   43.3960   52.7880 O.3   301  ATP301     -0.4371
     11  O2A       44.1830   42.1900   52.3510 O.2   301  ATP301     -0.5170
     12  O3A       44.9170   42.7160   54.7890 O.3   301  ATP301     -0.2700
     13  O5'       46.1720   41.5680   53.3020 O.3   301  ATP301     -0.3112
     14  C5'       46.6090   40.4220   53.5420 C.3   301  ATP301      0.1813
     15  C4'       46.5200   38.9890   53.3640 C.3   301  ATP301      0.1821
     16  O4'       46.7850   38.9080   51.9480 O.3   301  ATP301     -0.3135
     17  C3'       47.8080   38.8740   54.1120 C.3   301  ATP301      0.2184
     18  O3'       47.7130   38.3570   55.4230 O.3   301  ATP301     -0.2174
     19  C2'       48.7190   38.1160   53.1390 C.3   301  ATP301      0.2570
     20  O2'       48.6320   36.7370   53.4250 O.3   301  ATP301     -0.2130
     21  C1'       48.1330   38.4090   51.7210 C.3   301  ATP301      0.3186
     22  N9        48.8460   39.4640   50.9860 N.pl3 301  ATP301     -0.1439
     23  C8        48.6160   40.8420   50.9450 C.3   301  ATP301      0.3377
     24  N7        49.4250   41.4890   50.1650 N.2   301  ATP301     -0.2095
     25  C5        50.2320   40.4700   49.6640 C.2   301  ATP301      0.2526
     26  C6        51.3080   40.4660   48.7310 C.2   301  ATP301      0.4393
     27  N6        51.7210   41.5680   48.1290 N.pl3 301  ATP301      0.2180
     28  N1        51.9120   39.2740   48.4470 N.2   301  ATP301      0.0021
     29  C2        51.4930   38.1510   49.0290 C.3   301  ATP301      0.5254
     30  N3        50.4910   38.0160   49.9000 N.2   301  ATP301     -0.0055
     31  C4        49.8920   39.2530   50.1710 C.2   301  ATP301      0.3518
@<TRIPOS>BOND
     1    27    26    1
     2    28    26    2
     3    28    29    1
     4    26    25    1
     5    29    30    1
     6    25    24    2
     7    25    31    1
     8    30    31    2
     9    24    23    1
    10    31    22    1
    11    23    22    1
    12    22    21    1
    13    21    16    1
    14    21    19    1
    15    16    15    1
    16    11     9    2
    17    10     9    1
    18    19    20    1
    19    19    17    1
    20     9    13    1
    21     9    12    1
    22    13    14    1
    23    15    14    1
    24    15    17    1
    25    17    18    1
    26     7     5    2
    27    12     5    1
    28     5     6    1
    29     5     8    1
    30     2     1    2
    31     3     1    1
    32     8     1    1
    33     1     4    1
