@<TRIPOS>MOLECULE
1b12_1PN_A_1.pdb
 20 20 0 0 0
SMALL
GASTEIGER

@<TRIPOS>ATOM
      1  S1        65.7780   21.6200   10.9100 S.3   1001  1PN1001    -0.1098
      2  C2        64.7140   21.4700    9.4850 C.3   1001  1PN1001     0.1113
      3  C3        63.6150   22.2380    9.5570 C.2   1001  1PN1001     0.1408
      4  N4        63.5060   22.9860   10.7560 N.2   1001  1PN1001    -0.2578
      5  C5        64.6280   22.8510   11.7120 C.3   1001  1PN1001     0.1615
      6  C6        65.0670   24.3170   11.7680 C.3   1001  1PN1001     0.1374
      7  C7        64.8880   24.9530   10.3780 C.2   1001  1PN1001     0.2135
      8  O8        65.5740   24.5750    9.4240 O.2   1001  1PN1001    -0.2881
      9  C9        62.5890   22.3260    8.5010 C.2   1001  1PN1001     0.3558
     10  O10       61.5950   23.0010    8.4960 O.2   1001  1PN1001    -0.2435
     11  O11       62.9710   21.4980    7.5450 O.3   1001  1PN1001    -0.4396
     12  C12       62.0760   20.3660    7.1960 C.3   1001  1PN1001     0.2352
     13  C13       62.4660   19.5720    5.9990 C.2   1001  1PN1001     0.0208
     14  C14       63.1700   18.5960    5.9430 C.2   1001  1PN1001    -0.0011
     15  C15       66.4770   24.3600   12.1180 C.3   1001  1PN1001     0.1790
     16  C16       66.8960   25.7500   12.4900 C.3   1001  1PN1001     0.0479
     17  O17       66.7850   23.3390   13.1280 O.3   1001  1PN1001    -0.4517
     18  C18       68.0990   23.0690   13.4580 C.2   1001  1PN1001     0.3175
     19  O19       68.4450   22.4420   14.4330 O.2   1001  1PN1001    -0.2501
     20  C20       69.0860   23.5710   12.4750 C.3   1001  1PN1001     0.1212
@<TRIPOS>BOND
     1    14    13    2
     2    13    12    1
     3    12    11    1
     4    11     9    1
     5    10     9    2
     6     9     3    1
     7     8     7    2
     8     2     3    1
     9     2     1    1
    10     3     4    2
    11     7     6    1
    12     4     5    1
    13     1     5    1
    14     5     6    1
    15     6    15    1
    16    15    16    1
    17    15    17    1
    18    20    18    1
    19    17    18    1
    20    18    19    2
