@<TRIPOS>MOLECULE
1b14_NAD_A_1.pdb
 44 48 0 0 0
SMALL
GASTEIGER

@<TRIPOS>ATOM
      1  PA         6.7870  -10.8430   -0.2740 P.3   255  NAD255      0.2189
      2  O1A        5.7680  -11.4990    0.5790 O.3   255  NAD255     -0.4371
      3  O2A        6.4710  -11.1100   -1.6970 O.2   255  NAD255     -0.5170
      4  O5B        8.2400  -11.3780    0.0900 O.3   255  NAD255     -0.3112
      5  C5B        9.2060  -10.6450    0.9010 C.3   255  NAD255      0.1813
      6  C4B       10.4950  -11.4440    1.0160 C.3   255  NAD255      0.1821
      7  O4B       10.7680  -11.6150    2.4480 O.3   255  NAD255     -0.3135
      8  C3B       10.4450  -12.8670    0.4310 C.3   255  NAD255      0.2184
      9  O3B       11.5730  -13.2150   -0.3610 O.3   255  NAD255     -0.2174
     10  C2B       10.4310  -13.7590    1.6750 C.3   255  NAD255      0.2570
     11  O2B       10.9140  -15.0710    1.4690 O.3   255  NAD255     -0.2130
     12  C1B       11.3230  -12.8980    2.5930 C.3   255  NAD255      0.3186
     13  N9A       11.3640  -13.3760    3.9690 N.pl3 255  NAD255     -0.1439
     14  C8A       10.3590  -13.4350    4.8810 C.3   255  NAD255      0.3377
     15  N7A       10.7320  -13.9680    6.0400 N.2   255  NAD255     -0.2095
     16  C5A       12.0550  -14.2750    5.8550 C.2   255  NAD255      0.2526
     17  C6A       13.0130  -14.8550    6.7180 C.2   255  NAD255      0.4393
     18  N6A       12.7280  -15.2330    7.9580 N.pl3 255  NAD255      0.2180
     19  N1A       14.2620  -15.0340    6.2110 N.2   255  NAD255      0.0021
     20  C2A       14.5190  -14.6350    4.9210 C.3   255  NAD255      0.5254
     21  N3A       13.7110  -14.0840    4.0610 N.2   255  NAD255     -0.0055
     22  C4A       12.4740  -13.9240    4.5830 C.2   255  NAD255      0.3518
     23  O3         6.9070   -9.2860    0.0310 O.3   255  NAD255     -0.2703
     24  PN         7.2870   -8.0090   -0.8500 P.3   255  NAD255      0.2189
     25  O1N        6.0550   -7.2690   -1.1930 O.3   255  NAD255     -0.4371
     26  O2N        8.0040   -8.3850   -2.0790 O.2   255  NAD255     -0.5170
     27  O5D        8.1980   -7.2410    0.2190 O.3   255  NAD255     -0.3112
     28  C5D        9.5680   -7.6430    0.4030 C.3   255  NAD255      0.1813
     29  C4D       10.2480   -6.5110    1.1490 C.3   255  NAD255      0.1799
     30  O4D        9.6400   -5.2770    0.6460 O.3   255  NAD255     -0.3327
     31  C3D        9.9230   -6.5360    2.6640 C.3   255  NAD255      0.2158
     32  O3D       10.9620   -5.8560    3.3400 O.3   255  NAD255     -0.2175
     33  C2D        8.5970   -5.7810    2.6530 C.3   255  NAD255      0.2309
     34  O2D        8.0630   -5.4340    3.8950 O.3   255  NAD255     -0.2158
     35  C1D        8.9770   -4.6370    1.7230 C.3   255  NAD255      0.2263
     36  N1N        7.9150   -3.7780    1.2290 N.pl3 255  NAD255     -0.2787
     37  C2N        6.8490   -4.2990    0.5790 C.3   255  NAD255      0.1244
     38  C3N        5.8600   -3.4630    0.1280 C.2   255  NAD255      0.0544
     39  C7N        4.5660   -3.8670   -0.6490 C.2   255  NAD255      0.2818
     40  O7N        3.6340   -3.0700   -0.7630 O.2   255  NAD255     -0.2670
     41  N7N        4.5590   -5.1010   -1.1600 N.am  255  NAD255     -0.0839
     42  C4N        5.8850   -2.0580    0.3140 C.2   255  NAD255      0.0033
     43  C5N        7.0140   -1.6290    1.0060 C.2   255  NAD255      0.0157
     44  C6N        8.0460   -2.3890    1.4800 C.2   255  NAD255      0.0633
@<TRIPOS>BOND
     1    26    24    2
     2     3     1    2
     3    25    24    1
     4    41    39   am
     5    24    23    1
     6    24    27    1
     7    40    39    2
     8    39    38    1
     9     9     8    1
    10     1    23    1
    11     1     4    1
    12     1     2    1
    13     4     5    1
    14    38    42    2
    15    38    37    1
    16    27    28    1
    17    42    43    1
    18    28    29    1
    19     8     6    1
    20     8    10    1
    21    37    36    1
    22    30    29    1
    23    30    35    1
    24     5     6    1
    25    43    44    2
    26     6     7    1
    27    29    31    1
    28    36    44    1
    29    36    35    1
    30    11    10    1
    31    10    12    1
    32    35    33    1
    33     7    12    1
    34    12    13    1
    35    33    31    1
    36    33    34    1
    37    31    32    1
    38    13    22    1
    39    13    14    1
    40    21    22    2
    41    21    20    1
    42    22    16    1
    43    14    15    1
    44    20    19    1
    45    16    15    2
    46    16    17    1
    47    19    17    2
    48    17    18    1
