@<TRIPOS>MOLECULE
1b15_NAE_A_1.pdb
 48 52 0 0 0
SMALL
GASTEIGER

@<TRIPOS>ATOM
      1  PA         7.0380  -11.3190   -0.4400 P.3   255  NAE255      0.2189
      2  O1A        6.2250  -12.0210    0.5710 O.3   255  NAE255     -0.4371
      3  O2A        6.8620  -11.7240   -1.9320 O.2   255  NAE255     -0.5170
      4  O5'        8.5940  -11.5370   -0.1600 O.3   255  NAE255     -0.3112
      5  C5'        9.1780  -11.7180    1.2170 C.3   255  NAE255      0.1813
      6  C4'       10.6070  -12.0510    0.8620 C.3   255  NAE255      0.1821
      7  O4'       11.2450  -12.2100    2.1880 O.3   255  NAE255     -0.3135
      8  C3'       10.6940  -13.5000    0.2140 C.3   255  NAE255      0.2184
      9  O3'       11.9670  -13.5490   -0.5380 O.3   255  NAE255     -0.2174
     10  C2'       10.7490  -14.4200    1.4120 C.3   255  NAE255      0.2570
     11  O2'       11.2320  -15.7070    1.2920 O.3   255  NAE255     -0.2130
     12  C1'       11.6630  -13.4620    2.2980 C.3   255  NAE255      0.3186
     13  N9A       11.6380  -13.9310    3.6460 N.pl3 255  NAE255     -0.1439
     14  C8A       10.5800  -13.9520    4.5670 C.3   255  NAE255      0.3377
     15  N7A       10.8940  -14.5050    5.7220 N.2   255  NAE255     -0.2095
     16  C5A       12.2220  -14.8290    5.6370 C.2   255  NAE255      0.2526
     17  C6A       13.1390  -15.4490    6.6590 C.2   255  NAE255      0.4393
     18  N6A       12.7560  -15.7630    7.8560 N.pl3 255  NAE255      0.2180
     19  N1A       14.4310  -15.6450    6.1570 N.2   255  NAE255      0.0021
     20  C2A       14.8320  -15.2990    4.9380 C.3   255  NAE255      0.5254
     21  N3A       14.0210  -14.7090    3.9330 N.2   255  NAE255     -0.0055
     22  C4A       12.6940  -14.4970    4.3660 C.2   255  NAE255      0.3518
     23  OPP        7.0010   -9.7790   -0.2760 O.3   255  NAE255     -0.2703
     24  PN         7.5400   -8.4570   -0.9990 P.3   255  NAE255      0.2189
     25  O1N        6.4260   -7.5150   -1.1300 O.3   255  NAE255     -0.4371
     26  O2N        8.4230   -8.8900   -2.1370 O.2   255  NAE255     -0.5170
     27  O5B        8.4320   -7.7230    0.1150 O.3   255  NAE255     -0.3112
     28  C5B        9.8940   -7.6970    0.0540 C.3   255  NAE255      0.1813
     29  C4B       10.4910   -6.7120    0.9930 C.3   255  NAE255      0.1799
     30  O4B        9.8010   -5.4340    0.6630 O.3   255  NAE255     -0.3327
     31  C3B       10.0650   -6.9150    2.5350 C.3   255  NAE255      0.2158
     32  O3B       11.0980   -6.3820    3.2570 O.3   255  NAE255     -0.2175
     33  C2B        8.8420   -6.0150    2.6690 C.3   255  NAE255      0.2309
     34  O2B        8.4370   -5.7240    3.9370 O.3   255  NAE255     -0.2158
     35  C1B        9.2170   -4.8570    1.8060 C.3   255  NAE255      0.2263
     36  N1N        8.1950   -3.8970    1.3290 N.pl3 255  NAE255     -0.2787
     37  C2N        7.0670   -4.3640    0.5900 C.3   255  NAE255      0.1241
     38  C3N        6.2490   -3.3740    0.1340 C.2   255  NAE255      0.0505
     39  C7N        5.0980   -3.9490   -0.8410 C.2   255  NAE255      0.2815
     40  O7N        4.1780   -3.1600   -1.0880 O.2   255  NAE255     -0.2670
     41  N7N        5.0060   -5.2590   -1.2370 N.am  255  NAE255     -0.0839
     42  C4N        6.3520   -1.9910    0.3980 C.2   255  NAE255     -0.0163
     43  C5N        7.6260   -1.6240    0.9940 C.2   255  NAE255      0.0115
     44  C6N        8.5160   -2.5850    1.4330 C.2   255  NAE255      0.0630
     45  C4P        5.1400   -1.3610    1.1610 C.3   255  NAE255      0.0591
     46  C3P        4.8680   -2.2080    2.4510 C.3   255  NAE255      0.1564
     47  OP         5.7140   -1.9890    3.4610 O.3   255  NAE255     -0.2228
     48  C2P        3.7920   -3.2570    2.5270 C.3   255  NAE255      0.0358
@<TRIPOS>BOND
     1    26    24    2
     2     3     1    2
     3    41    39   am
     4    25    24    1
     5    40    39    2
     6    24    23    1
     7    24    27    1
     8    39    38    1
     9     9     8    1
    10     1    23    1
    11     1     4    1
    12     1     2    1
    13     4     5    1
    14    28    27    1
    15    28    29    1
    16    38    42    2
    17    38    37    1
    18     8     6    1
    19     8    10    1
    20    42    43    1
    21    42    45    1
    22    37    36    1
    23    30    29    1
    24    30    35    1
    25     6     5    1
    26     6     7    1
    27    29    31    1
    28    43    44    2
    29    45    46    1
    30    11    10    1
    31    36    44    1
    32    36    35    1
    33    10    12    1
    34    35    33    1
    35     7    12    1
    36    12    13    1
    37    46    48    1
    38    46    47    1
    39    31    33    1
    40    31    32    1
    41    33    34    1
    42    13    22    1
    43    13    14    1
    44    21    22    2
    45    21    20    1
    46    22    16    1
    47    14    15    1
    48    20    19    1
    49    16    15    2
    50    16    17    1
    51    19    17    2
    52    17    18    1
