@<TRIPOS>MOLECULE
1b16_NAQ_A_1.pdb
 50 54 0 0 0
SMALL
GASTEIGER

@<TRIPOS>ATOM
      1  PA         7.0350  -11.0060   -0.5640 P.3   600  NAQ600      0.2189
      2  O1A        6.2730  -11.7040    0.5250 O.3   600  NAQ600     -0.4371
      3  O2A        6.6690  -11.3810   -2.0200 O.2   600  NAQ600     -0.5170
      4  O5'        8.5950  -11.2640   -0.3940 O.3   600  NAQ600     -0.3112
      5  C5'        9.1620  -11.4720    0.9830 C.3   600  NAQ600      0.1813
      6  C4'       10.5770  -11.8350    0.7550 C.3   600  NAQ600      0.1821
      7  O4'       11.1780  -11.9350    2.1020 O.3   600  NAQ600     -0.3135
      8  C3'       10.7410  -13.2700    0.1380 C.3   600  NAQ600      0.2184
      9  O3'       12.0380  -13.2800   -0.5790 O.3   600  NAQ600     -0.2174
     10  C2'       10.7910  -14.1990    1.3150 C.3   600  NAQ600      0.2570
     11  O2'       11.3810  -15.4390    1.1300 O.3   600  NAQ600     -0.2130
     12  C1'       11.6020  -13.1970    2.2460 C.3   600  NAQ600      0.3186
     13  N9A       11.5310  -13.6480    3.5900 N.pl3 600  NAQ600     -0.1439
     14  C8A       10.4480  -13.7490    4.4540 C.3   600  NAQ600      0.3377
     15  N7A       10.7490  -14.2890    5.6150 N.2   600  NAQ600     -0.2095
     16  C5A       12.0900  -14.5910    5.5720 C.2   600  NAQ600      0.2526
     17  C6A       13.0070  -15.2150    6.5840 C.2   600  NAQ600      0.4393
     18  N6A       12.6600  -15.6190    7.7740 N.pl3 600  NAQ600      0.2180
     19  N1A       14.3270  -15.3530    6.1190 N.2   600  NAQ600      0.0021
     20  C2A       14.7430  -14.9810    4.9100 C.3   600  NAQ600      0.5254
     21  N3A       13.9250  -14.4030    3.9130 N.2   600  NAQ600     -0.0055
     22  C4A       12.5710  -14.2120    4.3240 C.2   600  NAQ600      0.3518
     23  OPP        6.9900   -9.4620   -0.3510 O.3   600  NAQ600     -0.2703
     24  PN         7.5540   -8.1400   -1.1080 P.3   600  NAQ600      0.2189
     25  O1N        6.4470   -7.2110   -1.2780 O.3   600  NAQ600     -0.4371
     26  O2N        8.3830   -8.5990   -2.2620 O.2   600  NAQ600     -0.5170
     27  O5B        8.4990   -7.4910   -0.0110 O.3   600  NAQ600     -0.3112
     28  C5B        9.9570   -7.4340   -0.1100 C.3   600  NAQ600      0.1813
     29  C4B       10.5450   -6.4070    0.8170 C.3   600  NAQ600      0.1799
     30  O4B        9.8500   -5.1180    0.5100 O.3   600  NAQ600     -0.3327
     31  C3B       10.1720   -6.6200    2.3400 C.3   600  NAQ600      0.2158
     32  O3B       11.1910   -6.1630    3.1280 O.3   600  NAQ600     -0.2175
     33  C2B        8.9280   -5.7390    2.5480 C.3   600  NAQ600      0.2309
     34  O2B        8.7920   -5.4500    3.8940 O.3   600  NAQ600     -0.2158
     35  C1B        9.2790   -4.5730    1.6800 C.3   600  NAQ600      0.2263
     36  N1N        8.1960   -3.6330    1.2660 N.pl3 600  NAQ600     -0.2787
     37  C2N        7.0640   -4.0490    0.5400 C.3   600  NAQ600      0.1241
     38  C3N        6.2490   -3.0510    0.1290 C.2   600  NAQ600      0.0505
     39  C7N        5.0340   -3.5580   -0.7980 C.2   600  NAQ600      0.2815
     40  O7N        4.1780   -2.6690   -1.0290 O.2   600  NAQ600     -0.2670
     41  N7N        4.9760   -4.8490   -1.2650 N.am  600  NAQ600     -0.0839
     42  C4N        6.3710   -1.6500    0.3760 C.2   600  NAQ600     -0.0167
     43  C5N        7.6200   -1.3430    1.0410 C.2   600  NAQ600      0.0115
     44  C6N        8.4850   -2.3270    1.4680 C.2   600  NAQ600      0.0630
     45  C5P        5.1620    0.3690    1.5040 C.3   600  NAQ600      0.0073
     46  C4P        5.1770   -1.1520    1.2490 C.3   600  NAQ600      0.0527
     47  C3P        5.0360   -2.0100    2.5210 C.3   600  NAQ600      0.1559
     48  OP         5.8520   -1.7190    3.5550 O.3   600  NAQ600     -0.2228
     49  C2P        3.9300   -3.0410    2.6450 C.3   600  NAQ600      0.0332
     50  C1P        2.6960   -2.3620    3.2530 C.3   600  NAQ600      0.0027
@<TRIPOS>BOND
     1    26    24    2
     2     3     1    2
     3    25    24    1
     4    41    39   am
     5    24    23    1
     6    24    27    1
     7    40    39    2
     8    39    38    1
     9     9     8    1
    10     1     4    1
    11     1    23    1
    12     1     2    1
    13     4     5    1
    14    28    27    1
    15    28    29    1
    16    38    42    2
    17    38    37    1
    18     8     6    1
    19     8    10    1
    20    42    43    1
    21    42    46    1
    22    30    29    1
    23    30    35    1
    24    37    36    1
    25     6     5    1
    26     6     7    1
    27    29    31    1
    28    43    44    2
    29    11    10    1
    30    46    45    1
    31    46    47    1
    32    36    44    1
    33    36    35    1
    34    10    12    1
    35    35    33    1
    36     7    12    1
    37    12    13    1
    38    31    33    1
    39    31    32    1
    40    47    49    1
    41    47    48    1
    42    33    34    1
    43    49    50    1
    44    13    22    1
    45    13    14    1
    46    21    22    2
    47    21    20    1
    48    22    16    1
    49    14    15    1
    50    20    19    1
    51    16    15    2
    52    16    17    1
    53    19    17    2
    54    17    18    1
