@<TRIPOS>MOLECULE
1b1c_FMN_A_1.pdb
 31 33 0 0 0
SMALL
GASTEIGER

@<TRIPOS>ATOM
      1  N1        29.5110    5.3200    9.2120 N.2   190  FMN190     -0.2887
      2  C2        28.9800    4.3970    8.3850 C.1   190  FMN190      0.3669
      3  O2        28.3810    4.9160    7.3550 O.2   190  FMN190     -0.1744
      4  N3        29.0850    3.0720    8.6060 N.2   190  FMN190     -0.2300
      5  C4        29.8740    2.5300    9.6590 C.1   190  FMN190      0.2513
      6  O4        30.0580    1.2860    9.7670 O.2   190  FMN190     -0.2057
      7  C4A       30.4600    3.3380   10.5880 C.2   190  FMN190      0.2703
      8  N5        31.1670    3.0530   11.6290 N.2   190  FMN190     -0.3878
      9  C5A       31.7060    3.9710   12.4590 C.2   190  FMN190      0.1323
     10  C6        32.5570    3.4090   13.4980 C.2   190  FMN190      0.0250
     11  C7        33.0390    4.3040   14.4570 C.2   190  FMN190     -0.0238
     12  C7M       33.9640    3.8150   15.6250 C.3   190  FMN190      0.0308
     13  C8        32.8990    5.7080   14.3190 C.2   190  FMN190     -0.0280
     14  C8M       33.6460    6.6730   15.2680 C.3   190  FMN190      0.0304
     15  C9        32.0630    6.3090   13.3170 C.2   190  FMN190     -0.0038
     16  C9A       31.5100    5.3930   12.3580 C.3   190  FMN190      0.1537
     17  N10       30.6940    5.7420   11.1390 N.pl3 190  FMN190     -0.2468
     18  C10       30.1860    4.8550   10.2650 C.2   190  FMN190      0.2454
     19  C1'       30.6420    7.2170   11.1820 C.2   190  FMN190      0.1085
     20  C2'       29.3950    7.8820   11.6700 C.2   190  FMN190      0.2207
     21  O2'       28.2030    7.2550   11.8170 O.2   190  FMN190     -0.2872
     22  C3'       29.4410    9.3750   11.7840 C.3   190  FMN190      0.2468
     23  O3'       30.5490    9.7350   12.6450 O.3   190  FMN190     -0.2118
     24  C4'       28.0780    9.9000   12.5380 C.3   190  FMN190      0.2197
     25  O4'       28.2400   11.3880   12.3520 O.3   190  FMN190     -0.2172
     26  C5'       28.0630    9.7190   13.9980 C.3   190  FMN190      0.1896
     27  O5'       26.9980   10.2380   14.6820 O.3   190  FMN190     -0.2674
     28  P         26.7390   10.3990   16.1310 P.3   190  FMN190      0.5327
     29  O1P       27.6040   11.5410   16.8290 O.3   190  FMN190     -0.1145
     30  O2P       26.9730    9.2990   17.0270 O.3   190  FMN190     -0.1145
     31  O3P       25.2180   10.9680   16.4260 O.2   190  FMN190     -0.2224
@<TRIPOS>BOND
     1     3     2    2
     2     2     4    2
     3     2     1    2
     4     4     5    2
     5     1    18    2
     6     5     6    2
     7     5     7    1
     8    18     7    1
     9    18    17    1
    10     7     8    2
    11    17    19    1
    12    17    16    1
    13    19    20    2
    14     8     9    2
    15    20    22    1
    16    20    21    1
    17    22    24    1
    18    22    23    1
    19    25    24    1
    20    16     9    1
    21    16    15    1
    22     9    10    1
    23    24    26    1
    24    15    13    2
    25    10    11    2
    26    26    27    1
    27    13    11    1
    28    13    14    1
    29    11    12    1
    30    27    28    1
    31    28    31    2
    32    28    29    1
    33    28    30    1
