@<TRIPOS>MOLECULE
1b1h_III_B_1.pdb
 31 31 0 0 0
SMALL
GASTEIGER

@<TRIPOS>ATOM
      1  N          7.1430   17.0090   15.3230 N.3     1  LYS1       -0.1231
      2  CA         6.6920   18.3230   14.7300 C.3     1  LYS1        0.1693
      3  C          5.4310   18.7950   15.4310 C.2     1  LYS1        0.2592
      4  O          4.6680   17.9560   15.9050 O.2     1  LYS1       -0.2718
      5  CB         6.4710   18.2370   13.2230 C.3     1  LYS1        0.0285
      6  CG         5.5920   17.0480   12.7690 C.3     1  LYS1        0.0035
      7  CD         5.5240   17.0240   11.2350 C.3     1  LYS1        0.0206
      8  CE         6.7940   16.3990   10.6400 C.3     1  LYS1        0.1093
      9  NZ         6.7700   14.9290   11.0090 N.3     1  LYS1       -0.1314
     10  N          5.2270   20.1070   15.5120 N.am    2  PHE2       -0.1966
     11  CA         4.0650   20.6460   16.2050 C.3     2  PHE2        0.1731
     12  C          2.7840   20.7020   15.3730 C.2     2  PHE2        0.2617
     13  O          2.8060   21.0920   14.2150 O.2     2  PHE2       -0.2715
     14  CB         4.3770   22.0850   16.6990 C.3     2  PHE2        0.0358
     15  CG         5.5320   22.0670   17.7200 C.3     2  PHE2        0.0286
     16  CD         5.8860   23.4160   18.2790 C.ar    2  PHE2       -0.0221
     17  CE1        6.7170   24.3090   17.6270 C.ar    2  PHE2       -0.0043
     18  CE2        5.3850   23.7520   19.5200 C.ar    2  PHE2       -0.0043
     19  CZ1        7.0250   25.5460   18.1620 C.ar    2  PHE2       -0.0003
     20  CZ2        5.6980   24.9930   20.0610 C.ar    2  PHE2       -0.0003
     21  CH         6.5170   25.9060   19.4090 C.ar    2  PHE2       -0.0000
     22  N          1.6760   20.3060   16.0000 N.am    3  LYS3       -0.1942
     23  CA         0.3820   20.3570   15.3410 C.3     3  LYS3        0.1978
     24  C         -0.5820   21.2570   16.1210 C.2     3  LYS3        0.3842
     25  O         -1.5620   21.6990   15.4890 O.co2   3  LYS3       -0.2437
     26  CB        -0.2230   18.9460   15.2170 C.3     3  LYS3        0.0333
     27  CG        -1.2690   18.8930   14.1060 C.3     3  LYS3        0.0039
     28  CD        -2.0760   17.5960   14.1360 C.3     3  LYS3        0.0206
     29  CE        -2.8370   17.4390   12.8060 C.3     3  LYS3        0.1093
     30  NZ        -3.5670   18.7110   12.5220 N.3     3  LYS3       -0.1314
     31  OXT       -0.3170   21.5930   17.2940 O.co2   3  LYS3       -0.2437
@<TRIPOS>BOND
     1     8     9    1
     2     8     7    1
     3     7     6    1
     4    30    29    1
     5     6     5    1
     6    29    28    1
     7     5     2    1
     8    27    28    1
     9    27    26    1
    10    13    12    2
    11     2     1    1
    12     2     3    1
    13    26    23    1
    14    23    22    1
    15    23    24    1
    16    12    22   am
    17    12    11    1
    18     3    10   am
    19     3     4    2
    20    25    24   ar
    21    10    11    1
    22    24    31   ar
    23    11    14    1
    24    14    15    1
    25    17    19   ar
    26    17    16   ar
    27    15    16    1
    28    19    21   ar
    29    16    18   ar
    30    21    20   ar
    31    18    20   ar
