@<TRIPOS>MOLECULE
1b1y_BGC_A_1.pdb
 12 12 0 0 0
SMALL
GASTEIGER

@<TRIPOS>ATOM
      1  C2        32.1310   32.3280   40.1830 C.3   551  BGC551      0.2434
      2  C3        31.6690   31.7420   38.8630 C.3   551  BGC551      0.2199
      3  C4        32.7080   32.1440   37.7860 C.3   551  BGC551      0.2144
      4  C5        34.1270   31.6540   38.1860 C.3   551  BGC551      0.1836
      5  C6        35.3410   31.7470   37.2530 C.3   551  BGC551      0.2142
      6  C1        33.5810   31.9570   40.4840 C.3   551  BGC551      0.3024
      7  O1        33.9550   32.6190   41.6510 O.3   551  BGC551     -0.1869
      8  O2        31.3290   31.8120   41.1980 O.3   551  BGC551     -0.2148
      9  O3        30.3510   32.1620   38.5260 O.3   551  BGC551     -0.2174
     10  O4        32.2780   31.4800   36.6190 O.3   551  BGC551     -0.2176
     11  O5        34.4560   32.3220   39.4030 O.3   551  BGC551     -0.3236
     12  O6        35.8150   33.0650   37.0230 O.3   551  BGC551     -0.2176
@<TRIPOS>BOND
     1    10     3    1
     2    12     5    1
     3     5     4    1
     4     3     4    1
     5     3     2    1
     6     4    11    1
     7     9     2    1
     8     2     1    1
     9    11     6    1
    10     1     6    1
    11     1     8    1
    12     6     7    1
