@<TRIPOS>MOLECULE
1b1y_GLC_A_1.pdb
 11 11 0 0 0
SMALL
GASTEIGER

@<TRIPOS>ATOM
      1  C1        31.4980   32.2150   35.6790 C.3   550  GLC550      0.1777
      2  C2        31.0930   31.2090   34.5940 C.3   550  GLC550      0.2141
      3  C3        32.3140   30.7530   33.8520 C.3   550  GLC550      0.2173
      4  C4        33.0790   31.9540   33.3000 C.3   550  GLC550      0.2142
      5  C5        33.4750   32.9190   34.4230 C.3   550  GLC550      0.1810
      6  C6        34.2660   34.1810   34.0590 C.3   550  GLC550      0.2141
      7  O2        30.4630   30.0780   35.1780 O.3   550  GLC550     -0.2176
      8  O3        31.9410   29.9000   32.8310 O.3   550  GLC550     -0.2175
      9  O4        34.2420   31.4450   32.7110 O.3   550  GLC550     -0.2176
     10  O5        32.2720   33.3050   35.1170 O.3   550  GLC550     -0.3481
     11  O6        33.4600   35.2420   33.5830 O.3   550  GLC550     -0.2176
@<TRIPOS>BOND
     1     9     4    1
     2     8     3    1
     3     4     3    1
     4     4     5    1
     5    11     6    1
     6     3     2    1
     7     6     5    1
     8     5    10    1
     9     2     7    1
    10     2     1    1
    11    10     1    1
