@<TRIPOS>MOLECULE
1b23_GNP_P_1.pdb
 32 34 0 0 0
SMALL
GASTEIGER

@<TRIPOS>ATOM
      1  PG        14.0640   24.7780   36.7040 P.3   406  GNP406      0.4884
      2  O1G       14.7510   26.0320   36.1840 O.2   406  GNP406     -0.2331
      3  O2G       12.5800   24.7390   36.3710 O.3   406  GNP406     -0.1240
      4  O3G       14.7840   23.5110   36.2790 O.3   406  GNP406     -0.1240
      5  N3B       14.1590   24.8400   38.3470 N.3   406  GNP406     -0.0163
      6  PB        13.6770   23.7060   39.4430 P.3   406  GNP406      0.4669
      7  O1B       12.2140   23.4970   39.2780 O.3   406  GNP406     -0.1253
      8  O2B       14.5970   22.5570   39.2600 O.2   406  GNP406     -0.2351
      9  O3A       15.0010   23.0120   42.4280 O.3   406  GNP406     -0.4370
     10  PA        14.9390   24.3720   41.8270 P.3   406  GNP406      0.2220
     11  O1A       16.1840   24.9830   41.2870 O.2   406  GNP406     -0.5170
     12  O2A       13.8800   24.3460   40.7770 O.3   406  GNP406     -0.2360
     13  O5'       14.3630   25.3630   42.9840 O.3   406  GNP406     -0.3111
     14  C5'       14.0910   26.7480   42.7120 C.3   406  GNP406      0.1813
     15  C4'       14.3450   27.5770   43.9530 C.3   406  GNP406      0.1799
     16  O4'       13.4160   27.1840   45.0030 O.3   406  GNP406     -0.3326
     17  C3'       15.7410   27.4360   44.5580 C.3   406  GNP406      0.2158
     18  O3'       16.0700   28.6540   45.2280 O.3   406  GNP406     -0.2175
     19  C2'       15.5260   26.3620   45.6180 C.3   406  GNP406      0.2310
     20  O2'       16.4820   26.3820   46.6560 O.3   406  GNP406     -0.2158
     21  C1'       14.1410   26.7390   46.1340 C.3   406  GNP406      0.2293
     22  N9        13.4110   25.6380   46.7520 N.pl3 406  GNP406     -0.2354
     23  C8        13.3620   24.3260   46.3400 C.3   406  GNP406      0.2246
     24  N7        12.6170   23.5790   47.1050 N.2   406  GNP406     -0.2322
     25  C5        12.1460   24.4460   48.0850 C.2   406  GNP406      0.2182
     26  C6        11.2940   24.2120   49.1990 C.1   406  GNP406      0.2372
     27  O6        10.7660   23.1530   49.5610 O.2   406  GNP406     -0.2069
     28  N1        11.0730   25.3760   49.9260 N.2   406  GNP406     -0.2485
     29  C2        11.6020   26.6050   49.6310 C.1   406  GNP406      0.2531
     30  N2        11.2590   27.6090   50.4530 N.pl3 406  GNP406     -0.0226
     31  N3        12.4020   26.8360   48.6040 N.2   406  GNP406     -0.3074
     32  C4        12.6300   25.7190   47.8770 C.2   406  GNP406      0.2300
@<TRIPOS>BOND
     1     2     1    2
     2     4     1    1
     3     3     1    1
     4     1     5    1
     5     5     6    1
     6     8     6    2
     7     7     6    1
     8     6    12    1
     9    12    10    1
    10    11    10    2
    11    10     9    1
    12    10    13    1
    13    14    13    1
    14    14    15    1
    15    15    17    1
    16    15    16    1
    17    17    18    1
    18    17    19    1
    19    16    21    1
    20    19    21    1
    21    19    20    1
    22    21    22    1
    23    23    22    1
    24    23    24    1
    25    22    32    1
    26    24    25    2
    27    32    25    1
    28    32    31    2
    29    25    26    1
    30    31    29    2
    31    26    27    2
    32    26    28    2
    33    29    28    2
    34    29    30    1
