@<TRIPOS>MOLECULE
1b2h_III_B_1.pdb
 27 26 0 0 0
SMALL
GASTEIGER

@<TRIPOS>ATOM
      1  N          7.0350   16.7300   15.3030 N.3     1  LYS1       -0.1231
      2  CA         6.5930   18.0400   14.7270 C.3     1  LYS1        0.1693
      3  C          5.3860   18.5660   15.5180 C.2     1  LYS1        0.2592
      4  O          4.6400   17.7880   16.1040 O.2     1  LYS1       -0.2718
      5  CB         6.2050   17.9940   13.2500 C.3     1  LYS1        0.0285
      6  CG         5.3550   16.7740   12.8610 C.3     1  LYS1        0.0035
      7  CD         5.1560   16.7600   11.3380 C.3     1  LYS1        0.0206
      8  CE         6.3760   16.1890   10.6240 C.3     1  LYS1        0.1093
      9  NZ         6.5550   14.7410   10.9400 N.3     1  LYS1       -0.1314
     10  N          5.2970   19.8800   15.6070 N.am    2  ALA2       -0.1966
     11  CA         4.2090   20.4900   16.3680 C.3     2  ALA2        0.1728
     12  CB         4.5770   21.9150   16.8250 C.3     2  ALA2        0.0326
     13  CG         5.5710   21.9000   18.0100 C.3     2  ALA2        0.0228
     14  CD         5.8240   23.2770   18.5850 C.3     2  ALA2        0.1094
     15  NE         6.7200   23.2890   19.5940 N.3     2  ALA2       -0.1314
     16  C          2.9030   20.5330   15.5910 C.2     2  ALA2        0.2617
     17  O          2.7960   20.8830   14.4250 O.2     2  ALA2       -0.2715
     18  N          1.8260   20.2050   16.3180 N.am    3  LYS3       -0.1942
     19  CA         0.4910   20.2680   15.7410 C.3     3  LYS3        0.1978
     20  C         -0.4770   20.8350   16.7860 C.2     3  LYS3        0.3842
     21  O         -1.6470   20.4320   16.8290 O.co2   3  LYS3       -0.2437
     22  CB         0.0100   18.8770   15.3080 C.3     3  LYS3        0.0333
     23  CG        -1.0150   19.0060   14.1650 C.3     3  LYS3        0.0039
     24  CD        -1.7120   17.6980   13.9050 C.3     3  LYS3        0.0206
     25  CE        -2.6110   17.7110   12.6760 C.3     3  LYS3        0.1093
     26  NZ        -3.6990   18.7330   12.8060 N.3     3  LYS3       -0.1314
     27  OXT       -0.1140   21.6420   17.6580 O.co2   3  LYS3       -0.2437
@<TRIPOS>BOND
     1     8     9    1
     2     8     7    1
     3     7     6    1
     4    25    26    1
     5    25    24    1
     6     6     5    1
     7     5     2    1
     8    24    23    1
     9    23    22    1
    10    17    16    2
    11     2     1    1
    12     2     3    1
    13    22    19    1
    14     3    10   am
    15     3     4    2
    16    16    18   am
    17    16    11    1
    18    10    11    1
    19    19    18    1
    20    19    20    1
    21    11    12    1
    22    20    21   ar
    23    20    27   ar
    24    12    13    1
    25    13    14    1
    26    14    15    1
