@<TRIPOS>MOLECULE
1b2i_AMH_A_1.pdb
 26 26 0 0 0
SMALL
GASTEIGER

@<TRIPOS>ATOM
      1  C1         5.6330   -0.3560   -9.0440 C.3    84  AMH84       0.0607
      2  C2         5.0730    0.7890   -9.8920 C.3    84  AMH84      -0.0398
      3  C3         3.9840    0.2530  -10.8180 C.3    84  AMH84      -0.0512
      4  C4         2.7720   -0.3120  -10.0490 C.3    84  AMH84      -0.0568
      5  C5         3.2750   -1.3200   -9.0140 C.3    84  AMH84      -0.0512
      6  C6         4.4740   -0.8420   -8.1730 C.3    84  AMH84      -0.0398
      7  C7         1.7660   -0.9960  -11.0170 C.3    84  AMH84      -0.0934
      8  C8         6.8660    0.0820   -8.2090 C.2    84  AMH84       0.3590
      9  N          2.4750   -1.7890  -12.0240 N.4    84  AMH84       0.3783
     10  O1         7.4630    1.1180   -8.4980 O.co2  84  AMH84      -0.2461
     11  O2         7.2650   -0.6270   -7.2870 O.co2  84  AMH84      -0.2461
     12  H1         5.9690   -1.1730   -9.6840 H      84  AMH84       0.0415
     13  H21        5.8590    1.2340  -10.5020 H      84  AMH84       0.0273
     14  H22        4.6630    1.5480   -9.2210 H      84  AMH84       0.0273
     15  H31        3.6640    1.0250  -11.5180 H      84  AMH84       0.0267
     16  H32        4.4620   -0.5380  -11.3910 H      84  AMH84       0.0267
     17  H4         2.2600    0.5130   -9.5320 H      84  AMH84       0.0282
     18  H51        2.4430   -1.6140   -8.3710 H      84  AMH84       0.0267
     19  H52        3.5950   -2.1940   -9.5660 H      84  AMH84       0.0267
     20  H61        4.8080   -1.6340   -7.5160 H      84  AMH84       0.0273
     21  H62        4.1850   -0.0230   -7.5330 H      84  AMH84       0.0273
     22  H71        1.0900   -1.6540  -10.4560 H      84  AMH84       0.0052
     23  H72        1.1700   -0.2230  -11.5110 H      84  AMH84       0.0052
     24  HN1        3.2430   -2.2820  -11.6140 H      84  AMH84      -0.0901
     25  HN2        1.8420   -2.4490  -12.4270 H      84  AMH84      -0.0901
     26  HN3        2.8140   -1.1830  -12.7450 H      84  AMH84      -0.0901
@<TRIPOS>BOND
     1    26     9    1
     2    25     9    1
     3     9    24    1
     4     9     7    1
     5    15     3    1
     6    23     7    1
     7    16     3    1
     8     7    22    1
     9     7     4    1
    10     3     4    1
    11     3     2    1
    12    13     2    1
    13     4    17    1
    14     4     5    1
    15     2    14    1
    16     2     1    1
    17    12     1    1
    18    19     5    1
    19     1     8    1
    20     1     6    1
    21     5    18    1
    22     5     6    1
    23    10     8   ar
    24     8    11   ar
    25     6    21    1
    26     6    20    1
