@<TRIPOS>MOLECULE
1b2m_NUC_C_1.pdb
 40 44 0 0 0
SMALL
GASTEIGER

@<TRIPOS>ATOM
      1  O5'        4.0000   25.4710    3.6930 O.3   105  RG105      -0.2176
      2  C5'        3.8430   26.7000    2.9930 C.3   105  RG105       0.2141
      3  C4'        5.1760   27.4360    2.8030 C.3   105  RG105       0.1801
      4  O4'        5.7250   27.8660    4.0590 O.3   105  RG105      -0.3326
      5  C3'        6.2310   26.5610    2.1290 C.3   105  RG105       0.1883
      6  O3'        6.9650   27.3510    1.1700 O.3   105  RG105      -0.2869
      7  C2'        7.1510   26.1500    3.2390 C.3   105  RG105       0.2283
      8  O2'        8.4670   25.9580    2.7500 O.3   105  RG105      -0.2159
      9  C1'        7.0540   27.3140    4.2070 C.3   105  RG105       0.2292
     10  N9         7.3240   26.8890    5.6020 N.pl3 105  RG105      -0.2354
     11  C8         8.3680   27.1870    6.4010 C.3   105  RG105       0.2246
     12  N7         8.4500   26.6700    7.5650 N.2   105  RG105      -0.2322
     13  C5         7.2810   25.8950    7.5590 C.2   105  RG105       0.2182
     14  C6         6.7440   25.0900    8.5700 C.1   105  RG105       0.2372
     15  O6         7.1980   24.8890    9.6930 O.2   105  RG105      -0.2069
     16  N1         5.5490   24.5150    8.1910 N.2   105  RG105      -0.2485
     17  C2         4.9300   24.7060    6.9860 C.1   105  RG105       0.2531
     18  N2         3.7830   24.0920    6.7970 N.pl3 105  RG105      -0.0226
     19  N3         5.4180   25.4680    6.0230 N.2   105  RG105      -0.3074
     20  C4         6.5910   26.0400    6.3700 C.2   105  RG105       0.2300
     21  P          7.0510   27.0080   -0.3950 P.3   106  RU106       0.3922
     22  O1P        7.3140   25.5420   -0.5450 O.3   106  RU106      -0.1363
     23  O2P        8.0120   27.9420   -0.9840 O.2   106  RU106      -0.2507
     24  C5'        4.9120   28.7010   -1.3490 C.2   106  RU106       0.0133
     25  C4'        3.4810   28.7610   -1.7840 C.3   106  RU106       0.1723
     26  O4'        2.9340   30.0760   -1.5660 O.3   106  RU106      -0.3300
     27  C3'        3.3440   28.4330   -3.2770 C.3   106  RU106       0.2175
     28  O3'        2.5090   27.2780   -3.4600 O.3   106  RU106      -0.2173
     29  C2'        2.7130   29.6790   -3.8960 C.3   106  RU106       0.2322
     30  O2'        1.7350   29.3290   -4.8620 O.3   106  RU106      -0.2157
     31  C1'        2.1100   30.4060   -2.7020 C.3   106  RU106       0.2403
     32  N1         2.0450   31.8600   -2.8720 N.am  106  RU106      -0.1766
     33  C2         0.8400   32.4770   -2.5730 C.1   106  RU106       0.2845
     34  O2        -0.1800   31.8410   -2.3260 O.2   106  RU106      -0.1918
     35  N3         0.8370   33.8510   -2.5960 N.2   106  RU106      -0.2452
     36  C4         1.9140   34.6590   -2.8950 C.1   106  RU106       0.2182
     37  O4         1.8070   35.8730   -2.8170 O.2   106  RU106      -0.2085
     38  C5         3.1350   33.9390   -3.2160 C.2   106  RU106       0.1242
     39  C          5.4890   27.3490   -1.0960 C.2   106  RU106       0.0874
     40  C6         3.1630   32.5830   -3.1950 C.2   106  RU106       0.0929
@<TRIPOS>BOND
     1    30    29    1
     2    29    27    1
     3    29    31    1
     4    28    27    1
     5    27    25    1
     6    38    40    2
     7    38    36    1
     8    40    32    1
     9    36    37    2
    10    36    35    2
    11    32    31    1
    12    32    33   am
    13    31    26    1
    14    35    33    2
    15    33    34    2
    16    25    26    1
    17    25    24    1
    18    24    39    2
    19    39    21    1
    20    23    21    2
    21    22    21    1
    22    21     6    1
    23     6     5    1
    24     5     3    1
    25     5     7    1
    26     8     7    1
    27     3     2    1
    28     3     4    1
    29     2     1    1
    30     7     9    1
    31     4     9    1
    32     9    10    1
    33    10    20    1
    34    10    11    1
    35    19    20    2
    36    19    17    2
    37    20    13    1
    38    11    12    1
    39    18    17    1
    40    17    16    2
    41    13    12    2
    42    13    14    1
    43    16    14    2
    44    14    15    2
