@<TRIPOS>MOLECULE
1b2v_HEM_A_1.pdb
 43 50 0 0 0
SMALL
GASTEIGER

@<TRIPOS>ATOM
      1 FE          7.1590   11.6670   11.4580 Fe    200  HEM200      0.0000
      2  CHA        3.8010   12.0100   10.9190 C.2   200  HEM200      0.0000
      3  CHB        6.9660    8.4020   10.4540 C.2   200  HEM200      0.0000
      4  CHC       10.5090   11.2140   12.1990 C.2   200  HEM200      0.0000
      5  CHD        7.4220   14.9550   12.2030 C.2   200  HEM200      0.0000
      6  NA         5.6830   10.4450   10.8520 N.ar  200  HEM200      0.0000
      7  C1A        4.3580   10.7830   10.6380 C.ar  200  HEM200      0.0000
      8  C2A        3.6270    9.6490   10.0760 C.ar  200  HEM200      0.0000
      9  C3A        4.5200    8.6510    9.9480 C.ar  200  HEM200      0.0000
     10  C4A        5.7960    9.1230   10.4290 C.ar  200  HEM200      0.0000
     11  CMA        4.2580    7.2350    9.3860 C.3   200  HEM200      0.0000
     12  CAA        2.1710    9.7270    9.6810 C.2   200  HEM200      0.0000
     13  CBA        0.8320    9.3500   10.1050 C.2   200  HEM200      0.0000
     14  CGA        0.6080    8.6900   11.4360 C.2   200  HEM200      0.0000
     15  O1A       -0.5570    8.2730   11.7100 O.co2 200  HEM200      0.0000
     16  O2A        1.6700    8.6490   12.1310 O.co2 200  HEM200      0.0000
     17  NB         8.4660   10.1110   11.3680 N.2   200  HEM200      0.0000
     18  C1B        8.1820    8.8500   10.8760 C.2   200  HEM200      0.0000
     19  C2B        9.3930    8.0420   10.9270 C.2   200  HEM200      0.0000
     20  C3B       10.3660    8.8060   11.4230 C.2   200  HEM200      0.0000
     21  C4B        9.8020   10.1330   11.6910 C.2   200  HEM200      0.0000
     22  CMB        9.4890    6.5650   10.4620 C.3   200  HEM200      0.0000
     23  CAB       11.8430    8.4390   11.6520 C.2   200  HEM200      0.0000
     24  CBB       12.7860    9.1020   10.9750 C.2   200  HEM200      0.0000
     25  NC         8.6670   12.8340   12.0650 N.ar  200  HEM200      0.0000
     26  C1C        9.9810   12.4970   12.3350 C.ar  200  HEM200      0.0000
     27  C2C       10.6990   13.6680   12.7630 C.ar  200  HEM200      0.0000
     28  C3C        9.8460   14.7040   12.7490 C.ar  200  HEM200      0.0000
     29  C4C        8.5720   14.2040   12.3340 C.ar  200  HEM200      0.0000
     30  CMC       12.2040   13.7420   13.1430 C.3   200  HEM200      0.0000
     31  CAC       10.1680   16.1530   13.1410 C.2   200  HEM200      0.0000
     32  CBC        9.3590   17.1260   13.3930 C.2   200  HEM200      0.0000
     33  ND         5.8740   13.1910   11.5560 N.2   200  HEM200      0.0000
     34  C1D        6.1750   14.4940   11.8680 C.2   200  HEM200      0.0000
     35  C2D        4.9680   15.2940   11.7510 C.2   200  HEM200      0.0000
     36  C3D        3.9880   14.4730   11.3910 C.2   200  HEM200      0.0000
     37  C4D        4.5220   13.1330   11.2700 C.2   200  HEM200      0.0000
     38  CMD        4.9340   16.8200   12.0130 C.3   200  HEM200      0.0000
     39  CAD        2.4960   14.7840   11.1360 C.3   200  HEM200      0.0000
     40  CBD        1.6470   14.8180   12.4280 C.3   200  HEM200      0.0000
     41  CGD        0.2030   15.1120   12.1060 C.2   200  HEM200      0.0000
     42  O1D       -0.5810   15.3670   13.0350 O.co2 200  HEM200      0.0000
     43  O2D       -0.0890   15.0500   10.8690 O.co2 200  HEM200      0.0000
@<TRIPOS>BOND
     1    11     9    1
     2    12     8    1
     3    12    13    2
     4     9     8   ar
     5     9    10   ar
     6     8     7   ar
     7    13    14    1
     8    10     3    2
     9    10     6   ar
    10     3    18    1
    11    22    19    1
    12     7     6   ar
    13     7     2    2
    14     6     1    1
    15    43    41   ar
    16    18    19    1
    17    18    17    2
    18     2    37    1
    19    19    20    2
    20    24    23    2
    21    39    36    1
    22    39    40    1
    23    37    36    1
    24    37    33    2
    25    17     1    1
    26    17    21    1
    27    36    35    2
    28    20    23    1
    29    20    21    1
    30    14    15   ar
    31    14    16   ar
    32     1    33    1
    33     1    25    1
    34    33    34    1
    35    21     4    2
    36    35    34    1
    37    35    38    1
    38    34     5    2
    39    25    29   ar
    40    25    26   ar
    41    41    40    1
    42    41    42   ar
    43     4    26    1
    44     5    29    1
    45    29    28   ar
    46    26    27   ar
    47    28    27   ar
    48    28    31    1
    49    27    30    1
    50    31    32    2
