@<TRIPOS>MOLECULE
1b2y_GLC_A_1.pdb
 11 11 0 0 0
SMALL
GASTEIGER

@<TRIPOS>ATOM
      1  C1        22.4550    7.7130   46.2260 C.3   1991  GLC1991     0.1777
      2  C2        21.8560    7.0140   44.9430 C.3   1991  GLC1991     0.2141
      3  C3        21.8940    5.5440   44.8790 C.3   1991  GLC1991     0.2173
      4  C4        23.1350    4.9630   45.4930 C.3   1991  GLC1991     0.2142
      5  C5        23.2180    5.4650   46.9440 C.3   1991  GLC1991     0.1810
      6  C6        24.4350    4.9160   47.6290 C.3   1991  GLC1991     0.2141
      7  O2        20.5150    7.4680   44.7200 O.3   1991  GLC1991    -0.2176
      8  O3        21.8400    5.1150   43.5210 O.3   1991  GLC1991    -0.2175
      9  O4        23.2850    3.5250   45.4670 O.3   1991  GLC1991    -0.2176
     10  O5        23.3760    6.8500   46.9830 O.3   1991  GLC1991    -0.3481
     11  O6        25.6140    5.2280   46.8980 O.3   1991  GLC1991    -0.2176
@<TRIPOS>BOND
     1     8     3    1
     2     7     2    1
     3     3     2    1
     4     3     4    1
     5     2     1    1
     6     9     4    1
     7     4     5    1
     8     1    10    1
     9    11     6    1
    10     5    10    1
    11     5     6    1
