@<TRIPOS>MOLECULE
1b2y_AC1_A_1.pdb
 21 22 0 0 0
SMALL
GASTEIGER

@<TRIPOS>ATOM
      1  C1        14.9990    5.8100   48.3000 C.3   1992  AC11992     0.1775
      2  O2        14.0310    6.1830   50.4530 O.3   1992  AC11992    -0.2177
      3  C2        15.2570    6.2450   49.7520 C.3   1992  AC11992     0.2129
      4  C4        21.2790    8.4580   48.4570 C.3   1992  AC11992     0.2053
      5  C3A       15.8100    7.6760   49.8250 C.3   1992  AC11992     0.2028
      6  O3A       16.2120    7.9740   51.1510 O.3   1992  AC11992    -0.2187
      7  C4A       17.0030    7.8020   48.9050 C.3   1992  AC11992     0.1331
      8  N4A       17.6740    9.0870   48.9670 N.3   1992  AC11992    -0.2087
      9  C5A       16.5480    7.4680   47.4850 C.3   1992  AC11992     0.1339
     10  O5        16.1120    6.0970   47.4500 O.3   1992  AC11992    -0.3519
     11  C6A       17.6690    7.6840   46.4680 C.3   1992  AC11992     0.0336
     12  C1B       18.7550    9.1580   49.9400 C.3   1992  AC11992     0.1273
     13  C2B       19.8120   10.1710   49.5000 C.3   1992  AC11992     0.2049
     14  O2B       19.2130   11.4380   49.3130 O.3   1992  AC11992    -0.2184
     15  C3B       20.4960    9.7420   48.2140 C.3   1992  AC11992     0.2179
     16  O3B       21.3800   10.7720   47.8110 O.3   1992  AC11992    -0.2172
     17  O4        21.2430    7.8940   47.0430 O.3   1992  AC11992    -0.2157
     18  C5B       20.8090    7.6400   49.5810 C.2   1992  AC11992     0.0180
     19  C7B       19.5470    7.9470   50.3570 C.2   1992  AC11992    -0.0100
     20  C6B       21.6760    6.5050   50.0620 C.3   1992  AC11992     0.2066
     21  O6B       22.2760    7.0770   51.2230 O.3   1992  AC11992    -0.2155
@<TRIPOS>BOND
     1    11     9    1
     2    17     4    1
     3    10     9    1
     4    10     1    1
     5     9     7    1
     6    16    15    1
     7    15     4    1
     8    15    13    1
     9     1     3    1
    10     4    18    1
    11     7     8    1
    12     7     5    1
    13     8    12    1
    14    14    13    1
    15    13    12    1
    16    18    20    1
    17    18    19    2
    18     3     5    1
    19     3     2    1
    20     5     6    1
    21    12    19    1
    22    20    21    1
