@<TRIPOS>MOLECULE
1b2y_G6D_A_1.pdb
 10 10 0 0 0
SMALL
GASTEIGER

@<TRIPOS>ATOM
      1  C1        24.5220    3.0270   45.0320 C.3   1990  G6D1990     0.1776
      2  O2        23.8950    3.5070   42.7220 O.3   1990  G6D1990    -0.2176
      3  C2        24.4130    2.5020   43.5910 C.3   1990  G6D1990     0.2141
      4  C3A       23.5180    1.2760   43.5580 C.3   1990  G6D1990     0.2172
      5  O3A       23.4600    0.7470   42.2430 O.3   1990  G6D1990    -0.2175
      6  C4A       24.0930    0.2350   44.5000 C.3   1990  G6D1990     0.2116
      7  O4A       23.2440   -0.9030   44.5070 O.3   1990  G6D1990    -0.2177
      8  C5A       24.1830    0.8290   45.9030 C.3   1990  G6D1990     0.1483
      9  O5        25.0150    1.9990   45.8720 O.3   1990  G6D1990    -0.3508
     10  C6A       24.7280   -0.1840   46.9130 C.3   1990  G6D1990     0.0349
@<TRIPOS>BOND
     1     5     4    1
     2     2     3    1
     3     4     3    1
     4     4     6    1
     5     3     1    1
     6     6     7    1
     7     6     8    1
     8     1     9    1
     9     9     8    1
    10     8    10    1
