@<TRIPOS>MOLECULE
1b2y_BGC_A_1.pdb
 12 12 0 0 0
SMALL
GASTEIGER

@<TRIPOS>ATOM
      1  C2        10.3960    5.3590   47.4890 C.3   1993  BGC1993     0.2434
      2  C3        11.6280    6.0310   48.0550 C.3   1993  BGC1993     0.2199
      3  C4        12.8510    5.5140   47.3130 C.3   1993  BGC1993     0.2144
      4  C5        12.6920    5.7330   45.8070 C.3   1993  BGC1993     0.1836
      5  C6        13.7900    5.0810   44.9870 C.3   1993  BGC1993     0.2142
      6  C1        10.3170    5.7270   46.0330 C.3   1993  BGC1993     0.3024
      7  O1         9.1620    5.2110   45.4700 O.3   1993  BGC1993    -0.1869
      8  O2         9.2300    5.8060   48.1540 O.3   1993  BGC1993    -0.2148
      9  O3        11.7500    5.7680   49.4440 O.3   1993  BGC1993    -0.2174
     10  O4        13.8240    6.4020   47.8420 O.3   1993  BGC1993    -0.2176
     11  O5        11.4430    5.1840   45.3440 O.3   1993  BGC1993    -0.3236
     12  O6        13.5290    5.2000   43.5930 O.3   1993  BGC1993    -0.2176
@<TRIPOS>BOND
     1    12     5    1
     2     5     4    1
     3    11     4    1
     4    11     6    1
     5     7     6    1
     6     4     3    1
     7     6     1    1
     8     3    10    1
     9     3     2    1
    10     1     2    1
    11     1     8    1
    12     2     9    1
