@<TRIPOS>MOLECULE
1b30_XYP_A_2.pdb
 10 10 0 0 0
SMALL
GASTEIGER

@<TRIPOS>ATOM
      1  O4A       79.0940   40.8440   25.7650 O.3   550  XYP550     -0.1869
      2  C1B       78.6400   41.9430   25.0490 C.3   550  XYP550      0.3024
      3  C2B       79.8010   42.7790   24.4970 C.3   550  XYP550      0.2434
      4  C3B       79.1950   43.9920   23.6980 C.3   550  XYP550      0.2199
      5  C4B       78.3310   43.2740   22.6140 C.3   550  XYP550      0.2143
      6  C5B       77.1030   42.5440   23.2840 C.3   550  XYP550      0.1804
      7  O2B       80.6220   43.1650   25.6140 O.3   550  XYP550     -0.2148
      8  O3B       80.2600   44.7490   23.1220 O.3   550  XYP550     -0.2174
      9  O4B       77.9120   44.1760   21.5940 O.3   550  XYP550     -0.2176
     10  O5B       77.6290   41.5050   24.1580 O.3   550  XYP550     -0.3237
@<TRIPOS>BOND
     1     9     5    1
     2     5     6    1
     3     5     4    1
     4     8     4    1
     5     6    10    1
     6     4     3    1
     7    10     2    1
     8     3     2    1
     9     3     7    1
    10     2     1    1
