@<TRIPOS>MOLECULE
1b32_III_B_1.pdb
 27 26 0 0 0
SMALL
GASTEIGER

@<TRIPOS>ATOM
      1  N          6.9470   16.5650   15.2090 N.3     1  LYS1       -0.1231
      2  CA         6.4310   17.8370   14.5950 C.3     1  LYS1        0.1693
      3  C          5.2030   18.3330   15.3390 C.2     1  LYS1        0.2592
      4  O          4.4630   17.5300   15.9270 O.2     1  LYS1       -0.2718
      5  CB         6.2090   17.7120   13.0770 C.3     1  LYS1        0.0285
      6  CG         5.2150   16.6570   12.6240 C.3     1  LYS1        0.0035
      7  CD         5.1970   16.5260   11.0860 C.3     1  LYS1        0.0206
      8  CE         6.4140   15.8330   10.4910 C.3     1  LYS1        0.1093
      9  NZ         6.6320   14.4330   10.9630 N.3     1  LYS1       -0.1314
     10  N          5.0540   19.6500   15.3890 N.am    2  MET2       -0.1965
     11  CA         3.9230   20.2920   16.0830 C.3     2  MET2        0.1736
     12  C          2.6280   20.1380   15.3150 C.2     2  MET2        0.2617
     13  O          2.5970   20.3970   14.1110 O.2     2  MET2       -0.2715
     14  CB         4.2400   21.8120   16.1170 C.3     2  MET2        0.0427
     15  CG         5.4510   22.0780   17.0350 C.3     2  MET2        0.0599
     16  SD         5.0080   21.7180   18.7500 S.3     2  MET2       -0.1393
     17  CE         5.5970   23.1860   19.5800 C.3     2  MET2        0.0692
     18  N          1.5540   19.7940   16.0470 N.am    3  LYS3       -0.1942
     19  CA         0.2440   19.7000   15.4120 C.3     3  LYS3        0.1978
     20  C         -0.7890   20.5490   16.1700 C.2     3  LYS3        0.3842
     21  O         -1.7780   20.9220   15.4780 O.co2   3  LYS3       -0.2437
     22  CB        -0.3060   18.2710   15.3280 C.3     3  LYS3        0.0333
     23  CG        -1.3580   18.3550   14.1870 C.3     3  LYS3        0.0039
     24  CD        -2.1190   17.0690   14.0400 C.3     3  LYS3        0.0206
     25  CE        -3.3410   17.2780   13.1450 C.3     3  LYS3        0.1093
     26  NZ        -2.8640   16.9820   11.7550 N.3     3  LYS3       -0.1314
     27  OXT       -0.5490   20.9310   17.3190 O.co2   3  LYS3       -0.2437
@<TRIPOS>BOND
     1     8     9    1
     2     8     7    1
     3     7     6    1
     4    26    25    1
     5     6     5    1
     6     5     2    1
     7    25    24    1
     8    24    23    1
     9    13    12    2
    10    23    22    1
    11     2     1    1
    12     2     3    1
    13    12    18   am
    14    12    11    1
    15    22    19    1
    16     3    10   am
    17     3     4    2
    18    10    11    1
    19    19    18    1
    20    19    20    1
    21    21    20   ar
    22    11    14    1
    23    14    15    1
    24    20    27   ar
    25    15    16    1
    26    16    17    1
