@<TRIPOS>MOLECULE
1b33_BLA_A_1.pdb
 43 46 0 0 0
SMALL
GASTEIGER

@<TRIPOS>ATOM
      1  CHA       69.5280   74.3960   33.8700 C.3   201  BLA201      0.1170
      2  NA        69.7180   72.7200   35.6750 N.2   201  BLA201     -0.4104
      3  C1A       69.0120   73.6010   34.8920 C.2   201  BLA201      0.1114
      4  C2A       67.6270   73.5920   35.3130 C.2   201  BLA201      0.0024
      5  C3A       67.5080   72.7200   36.3910 C.2   201  BLA201      0.0021
      6  C4A       68.8620   72.2040   36.6330 C.2   201  BLA201      0.1114
      7  CMA       66.2030   72.4380   37.1380 C.3   201  BLA201      0.0331
      8  CAA       66.5400   74.4400   34.6640 C.3   201  BLA201      0.0402
      9  CBA       66.6730   75.8750   35.1520 C.3   201  BLA201      0.1188
     10  CGA       66.0520   76.0920   36.5120 C.2   201  BLA201      0.3652
     11  O1A       64.8150   76.0530   36.6150 O.co2 201  BLA201     -0.2456
     12  O2A       66.7960   76.3090   37.4900 O.co2 201  BLA201     -0.2456
     13  CHB       69.4170   71.3250   37.5850 C.3   201  BLA201      0.1181
     14  NB        67.7060   70.7030   39.2480 N.2   201  BLA201     -0.3375
     15  C1B       68.9860   70.6360   38.7320 C.2   201  BLA201      0.1254
     16  C2B       69.8000   69.6910   39.5240 C.2   201  BLA201      0.0128
     17  C3B       68.9890   69.2120   40.5190 C.2   201  BLA201      0.0706
     18  C4B       67.7010   69.8470   40.3110 C.1   201  BLA201      0.2000
     19  CMB       71.2600   69.2780   39.3410 C.3   201  BLA201      0.0339
     20  OB        66.6050   69.6750   41.0280 O.2   201  BLA201     -0.2096
     21  CAB       69.3350   68.3130   41.5240 C.3   201  BLA201      0.0390
     22  CBB       69.6980   68.8270   42.8010 C.3   201  BLA201      0.0058
     23  NC        75.1870   73.8950   30.9190 N.2   201  BLA201     -0.3448
     24  C1C       76.2740   73.2860   30.3130 C.1   201  BLA201      0.1788
     25  C2C       77.0460   72.5650   31.2950 C.3   201  BLA201      0.1246
     26  C3C       76.5910   72.9830   32.5230 C.3   201  BLA201      0.0660
     27  C4C       75.2770   73.5290   32.2630 C.2   201  BLA201      0.1070
     28  CMC       78.0530   71.5150   30.9800 C.3   201  BLA201      0.0192
     29  OC        76.5100   73.3230   29.0230 O.2   201  BLA201     -0.2142
     30  CAC       77.1890   73.2190   33.8930 C.3   201  BLA201      0.0078
     31  CBC       78.1540   72.1210   34.3090 C.3   201  BLA201      0.0005
     32  CHD       74.2710   73.6500   33.1760 C.3   201  BLA201      0.1138
     33  ND        71.9320   73.7170   33.7280 N.2   201  BLA201     -0.4104
     34  C1D       73.0190   74.1940   33.0090 C.2   201  BLA201      0.1111
     35  C2D       72.5900   75.3010   32.1650 C.2   201  BLA201      0.0021
     36  C3D       71.2330   75.4490   32.3880 C.2   201  BLA201      0.0024
     37  C4D       70.8260   74.4850   33.3750 C.2   201  BLA201      0.1114
     38  CMD       73.3840   76.1880   31.2180 C.3   201  BLA201      0.0331
     39  CAD       70.3320   76.4560   31.7390 C.3   201  BLA201      0.0402
     40  CBD       69.6630   75.7770   30.5820 C.3   201  BLA201      0.1188
     41  CGD       68.7290   76.6890   29.8200 C.2   201  BLA201      0.3652
     42  O1D       68.8100   76.6950   28.5740 O.co2 201  BLA201     -0.2456
     43  O2D       67.8920   77.3790   30.4450 O.co2 201  BLA201     -0.2456
@<TRIPOS>BOND
     1    42    41   ar
     2    29    24    2
     3    41    43   ar
     4    41    40    1
     5    24    23    2
     6    24    25    1
     7    40    39    1
     8    23    27    2
     9    28    25    1
    10    38    35    1
    11    25    26    1
    12    39    36    1
    13    35    36    2
    14    35    34    1
    15    27    26    1
    16    27    32    1
    17    36    37    1
    18    26    30    1
    19    34    32    1
    20    34    33    2
    21    37    33    2
    22    37     1    1
    23     1     3    1
    24    30    31    1
    25     8     9    1
    26     8     4    1
    27     3     4    1
    28     3     2    2
    29     9    10    1
    30     4     5    2
    31     2     6    2
    32     5     6    1
    33     5     7    1
    34    10    11   ar
    35    10    12   ar
    36     6    13    1
    37    13    15    1
    38    15    14    2
    39    15    16    1
    40    14    18    2
    41    19    16    1
    42    16    17    2
    43    18    17    1
    44    18    20    2
    45    17    21    1
    46    21    22    1
