@<TRIPOS>MOLECULE
1b38_ATP_A_1.pdb
 31 33 0 0 0
SMALL
GASTEIGER

@<TRIPOS>ATOM
      1  PG        -3.9040   24.9710   15.4350 P.3   381  ATP381      0.5373
      2  O1G       -4.4430   24.7710   16.7730 O.3   381  ATP381     -0.1143
      3  O2G       -3.5100   26.3670   15.1110 O.3   381  ATP381     -0.1143
      4  O3G       -5.0210   24.5800   14.4860 O.2   381  ATP381     -0.2221
      5  PB        -1.5390   24.1240   14.0510 P.3   381  ATP381      0.2277
      6  O1B       -1.0190   25.5070   14.0070 O.2   381  ATP381     -0.5168
      7  O2B       -0.5640   23.0450   14.1360 O.3   381  ATP381     -0.4368
      8  O3B       -2.7130   23.9850   15.1190 O.3   381  ATP381     -0.2258
      9  PA        -2.8080   25.0870   11.6450 P.3   381  ATP381      0.2189
     10  O1A       -3.9180   24.4130   10.8710 O.2   381  ATP381     -0.5170
     11  O2A       -3.0730   26.4080   12.1520 O.3   381  ATP381     -0.4371
     12  O3A       -2.4940   23.9450   12.7710 O.3   381  ATP381     -0.2700
     13  O5'       -1.5280   25.1160   10.7000 O.3   381  ATP381     -0.3112
     14  C5'       -1.3230   24.0470    9.7560 C.3   381  ATP381      0.1813
     15  C4'        0.1470   24.2240    9.3530 C.3   381  ATP381      0.1821
     16  O4'        0.2670   25.3240    8.4430 O.3   381  ATP381     -0.3135
     17  C3'        1.0020   24.5810   10.5740 C.3   381  ATP381      0.2184
     18  O3'        2.2980   23.9790   10.3950 O.3   381  ATP381     -0.2174
     19  C2'        1.1570   26.1370   10.4540 C.3   381  ATP381      0.2570
     20  O2'        2.5240   26.4140   10.8540 O.3   381  ATP381     -0.2130
     21  C1'        1.1040   26.3300    8.9230 C.3   381  ATP381      0.3186
     22  N9         0.4810   27.5940    8.5420 N.pl3 381  ATP381     -0.1439
     23  C8        -0.5280   28.1410    9.2580 C.3   381  ATP381      0.3377
     24  N7        -0.7080   29.3770    9.0570 N.2   381  ATP381     -0.2095
     25  C5         0.2000   29.7400    8.1750 C.2   381  ATP381      0.2526
     26  C6         0.4350   30.9830    7.5800 C.2   381  ATP381      0.4393
     27  N6        -0.1950   32.1280    7.7750 N.pl3 381  ATP381      0.2180
     28  N1         1.4530   31.0030    6.6910 N.2   381  ATP381      0.0021
     29  C2         2.1200   29.8590    6.3980 C.3   381  ATP381      0.5254
     30  N3         1.9780   28.6720    6.9310 N.2   381  ATP381     -0.0055
     31  C4         0.9630   28.6570    7.8040 C.2   381  ATP381      0.3518
@<TRIPOS>BOND
     1    29    28    1
     2    29    30    1
     3    28    26    2
     4    30    31    2
     5    26    27    1
     6    26    25    1
     7    31    25    1
     8    31    22    1
     9    25    24    2
    10    16    21    1
    11    16    15    1
    12    22    21    1
    13    22    23    1
    14    21    19    1
    15    24    23    1
    16    15    14    1
    17    15    17    1
    18    14    13    1
    19    18    17    1
    20    19    17    1
    21    19    20    1
    22    13     9    1
    23    10     9    2
    24     9    11    1
    25     9    12    1
    26    12     5    1
    27     6     5    2
    28     5     7    1
    29     5     8    1
    30     4     1    2
    31     3     1    1
    32     8     1    1
    33     1     2    1
