@<TRIPOS>MOLECULE
1b39_ATP_A_1.pdb
 31 33 0 0 0
SMALL
GASTEIGER

@<TRIPOS>ATOM
      1  PG        -3.8060   25.2170   15.7960 P.3   381  ATP381      0.5373
      2  O1G       -4.1470   25.2770   17.2230 O.3   381  ATP381     -0.1143
      3  O2G       -3.5140   26.5690   15.2590 O.3   381  ATP381     -0.1143
      4  O3G       -4.9980   24.7420   15.0250 O.2   381  ATP381     -0.2221
      5  PB        -1.4360   24.5350   14.4010 P.3   381  ATP381      0.2277
      6  O1B       -0.7930   25.8360   14.4390 O.3   381  ATP381     -0.4368
      7  O2B       -0.4340   23.4400   14.4360 O.2   381  ATP381     -0.5168
      8  O3B       -2.5790   24.2690   15.4730 O.3   381  ATP381     -0.2258
      9  PA        -2.8020   25.3650   11.8640 P.3   381  ATP381      0.2189
     10  O1A       -3.8840   24.6190   11.1230 O.2   381  ATP381     -0.5170
     11  O2A       -3.4190   26.6090   12.3770 O.3   381  ATP381     -0.4371
     12  O3A       -2.2630   24.3570   13.0150 O.3   381  ATP381     -0.2700
     13  O5'       -1.5540   25.6300   10.9420 O.3   381  ATP381     -0.3112
     14  C5'       -1.2960   24.5100   10.0350 C.3   381  ATP381      0.1813
     15  C4'        0.1480   24.6480    9.5540 C.3   381  ATP381      0.1821
     16  O4'        0.2470   25.7950    8.6900 O.3   381  ATP381     -0.3135
     17  C3'        1.0820   24.8900   10.7500 C.3   381  ATP381      0.2184
     18  O3'        2.3580   24.3110   10.3220 O.3   381  ATP381     -0.2174
     19  C2'        1.2020   26.4580   10.6800 C.3   381  ATP381      0.2570
     20  O2'        2.4490   26.8180   11.3240 O.3   381  ATP381     -0.2130
     21  C1'        1.1960   26.7160    9.1440 C.3   381  ATP381      0.3186
     22  N9         0.5880   27.9960    8.7420 N.pl3 381  ATP381     -0.1439
     23  C8        -0.4270   28.5920    9.4270 C.3   381  ATP381      0.3377
     24  N7        -0.6080   29.8390    9.2460 N.2   381  ATP381     -0.2095
     25  C5         0.2980   30.1600    8.3500 C.2   381  ATP381      0.2526
     26  C6         0.5590   31.3880    7.7830 C.2   381  ATP381      0.4393
     27  N6        -0.0550   32.5380    8.0200 N.pl3 381  ATP381      0.2180
     28  N1         1.5820   31.4330    6.8990 N.2   381  ATP381      0.0021
     29  C2         2.2910   30.2940    6.6180 C.3   381  ATP381      0.5254
     30  N3         2.1100   29.0770    7.1120 N.2   381  ATP381     -0.0055
     31  C4         1.0760   29.0740    7.9910 C.2   381  ATP381      0.3518
@<TRIPOS>BOND
     1    29    28    1
     2    29    30    1
     3    28    26    2
     4    30    31    2
     5    26    27    1
     6    26    25    1
     7    31    25    1
     8    31    22    1
     9    25    24    2
    10    16    21    1
    11    16    15    1
    12    22    21    1
    13    22    23    1
    14    21    19    1
    15    24    23    1
    16    15    14    1
    17    15    17    1
    18    14    13    1
    19    18    17    1
    20    19    17    1
    21    19    20    1
    22    13     9    1
    23    10     9    2
    24     9    11    1
    25     9    12    1
    26    12     5    1
    27     5     7    2
    28     5     6    1
    29     5     8    1
    30     4     1    2
    31     3     1    1
    32     8     1    1
    33     1     2    1
