@<TRIPOS>MOLECULE
1b3a_AOP_A_1.pdb
 10 9 0 0 0
SMALL
GASTEIGER

@<TRIPOS>ATOM
      1  O1        24.1150   23.8780   42.5890 O.2     1  AOP1       -0.2813
      2  C1        24.4530   23.7400   41.3900 C.2     1  AOP1        0.2582
      3  C2        23.4330   23.2940   40.3240 C.2     1  AOP1        0.1853
      4  N3        22.2410   22.9890   40.7030 N.2     1  AOP1       -0.0779
      5  O4        21.2550   22.7290   39.8810 O.2     1  AOP1       -0.3772
      6  C5        19.9330   22.4560   40.4000 C.3     1  AOP1        0.2385
      7  C6        18.8910   22.5050   39.2750 C.3     1  AOP1        0.0503
      8  C7        18.1560   23.8500   39.2910 C.3     1  AOP1        0.0039
      9  C8        18.9600   24.9080   40.0340 C.3     1  AOP1        0.0001
     10  C9        18.2510   26.2540   40.0130 C.3     1  AOP1        0.0000
@<TRIPOS>BOND
     1     7     8    1
     2     7     6    1
     3     8     9    1
     4     5     6    1
     5     5     4    1
     6    10     9    1
     7     3     4    2
     8     3     2    1
     9     2     1    2
