@<TRIPOS>MOLECULE
1b3d_S27_B_1.pdb
 26 27 0 0 0
SMALL
GASTEIGER

@<TRIPOS>ATOM
      1  C1       -21.9780   30.3140    1.8130 C.ar  401  S27401      0.0430
      2  C2       -22.1200   29.2620    2.8140 C.ar  401  S27401      0.0041
      3  C3       -21.8300   29.5540    4.2110 C.ar  401  S27401      0.0002
      4  C4       -21.3850   30.8630    4.6440 C.ar  401  S27401      0.0000
      5  C5       -21.2200   31.9020    3.6440 C.ar  401  S27401      0.0002
      6  C6       -21.5120   31.6270    2.2440 C.ar  401  S27401      0.0041
      7  P7       -22.6440   30.1410    0.0940 P.3   401  S27401      0.1919
      8  O8       -22.2880   31.3090   -0.7260 O.2   401  S27401     -0.2985
      9  C9       -24.4920   30.1970    0.2040 C.3   401  S27401      0.0883
     10  N10      -22.1750   28.7580   -0.8000 N.3   401  S27401     -0.2194
     11  C11      -22.6930   27.4270   -0.3620 C.3   401  S27401      0.1055
     12  C12      -23.8070   26.8670   -1.2180 C.ar  401  S27401     -0.0058
     13  C13      -24.3390   27.5030   -2.4030 C.ar  401  S27401     -0.0029
     14  C14      -25.4450   26.8970   -3.1260 C.ar  401  S27401     -0.0003
     15  C15      -26.0110   25.6460   -2.6490 C.ar  401  S27401     -0.0000
     16  C16      -25.4770   25.0010   -1.4610 C.ar  401  S27401     -0.0003
     17  C17      -24.3690   25.6120   -0.7400 C.ar  401  S27401     -0.0029
     18  C18      -20.7930   28.8990   -1.3380 C.3   401  S27401      0.1091
     19  C        -19.6960   29.0180   -0.2630 C.2   401  S27401      0.1016
     20  NA       -18.8530   30.0530   -0.3340 N.am  401  S27401     -0.2016
     21  OA       -17.5710   29.8190    0.2350 O.3   401  S27401     -0.4026
     22  OB       -19.4630   28.1160    0.5710 O.2   401  S27401     -0.5382
     23  C7       -20.5110   27.6980   -2.2630 C.3   401  S27401      0.0229
     24  C8       -19.2300   27.6820   -3.1030 C.3   401  S27401      0.0018
     25  C10      -19.1960   28.9140   -3.9880 C.3   401  S27401      0.0001
     26  C23      -19.1790   26.4210   -3.9540 C.3   401  S27401      0.0001
@<TRIPOS>BOND
     1    25    24    1
     2    26    24    1
     3    14    15   ar
     4    14    13   ar
     5    24    23    1
     6    15    16   ar
     7    13    12   ar
     8    23    18    1
     9    16    17   ar
    10    18    10    1
    11    18    19    1
    12    12    17   ar
    13    12    11    1
    14    10    11    1
    15    10     7    1
    16     8     7    2
    17    20    19   am
    18    20    21    1
    19    19    22    2
    20     7     9    1
    21     7     1    1
    22     1     6   ar
    23     1     2   ar
    24     6     5   ar
    25     2     3   ar
    26     5     4   ar
    27     3     4   ar
