@<TRIPOS>MOLECULE
1b3f_III_B_1.pdb
 29 29 0 0 0
SMALL
GASTEIGER

@<TRIPOS>ATOM
      1  N          6.9140   16.6450   15.2960 N.3     1  LYS1       -0.1231
      2  CA         6.4130   17.9440   14.7500 C.3     1  LYS1        0.1693
      3  C          5.1480   18.4300   15.4470 C.2     1  LYS1        0.2592
      4  O          4.3320   17.5910   15.8510 O.2     1  LYS1       -0.2718
      5  CB         6.2200   17.9060   13.2230 C.3     1  LYS1        0.0285
      6  CG         5.2860   16.7890   12.7530 C.3     1  LYS1        0.0035
      7  CD         5.2800   16.7040   11.2170 C.3     1  LYS1        0.0206
      8  CE         6.5930   16.0980   10.6610 C.3     1  LYS1        0.1093
      9  NZ         6.6160   14.6150   10.9480 N.3     1  LYS1       -0.1314
     10  N          5.0070   19.7440   15.6040 N.am    2  HIS2       -0.1962
     11  CA         3.8060   20.2520   16.2970 C.3     2  HIS2        0.1784
     12  C          2.5570   20.1930   15.4230 C.2     2  HIS2        0.2621
     13  O          2.6300   20.5190   14.2370 O.2     2  HIS2       -0.2715
     14  CB         3.9920   21.7460   16.6740 C.3     2  HIS2        0.0745
     15  CG         4.9770   21.8690   17.8130 C.2     2  HIS2        0.0653
     16  ND1        4.8140   21.3600   19.0710 N.2     2  HIS2       -0.2310
     17  CD2        6.1940   22.4580   17.7740 C.3     2  HIS2        0.1683
     18  CE1        5.8910   21.6470   19.7900 C.2     2  HIS2        0.1939
     19  NE2        6.7560   22.3220   19.0340 N.2     2  HIS2       -0.2440
     20  N          1.4200   19.8270   16.0570 N.am    3  LYS3       -0.1941
     21  CA         0.1640   19.8440   15.3010 C.3     3  LYS3        0.1978
     22  C         -0.8520   20.7630   16.0080 C.2     3  LYS3        0.3842
     23  O         -1.8330   21.1520   15.3540 O.co2   3  LYS3       -0.2437
     24  CB        -0.4780   18.4580   15.1660 C.3     3  LYS3        0.0333
     25  CG        -1.5920   18.4640   14.1110 C.3     3  LYS3        0.0039
     26  CD        -2.4430   17.2120   14.2930 C.3     3  LYS3        0.0206
     27  CE        -3.6670   17.2530   13.4280 C.3     3  LYS3        0.1093
     28  NZ        -3.3780   17.5310   11.9980 N.3     3  LYS3       -0.1314
     29  OXT       -0.6730   21.1220   17.1810 O.co2   3  LYS3       -0.2437
@<TRIPOS>BOND
     1     8     9    1
     2     8     7    1
     3     7     6    1
     4    28    27    1
     5     6     5    1
     6     5     2    1
     7    27    26    1
     8    25    26    1
     9    25    24    1
    10    13    12    2
    11     2     1    1
    12     2     3    1
    13    24    21    1
    14    21    22    1
    15    21    20    1
    16    23    22   ar
    17    12    20   am
    18    12    11    1
    19     3    10   am
    20     3     4    2
    21    10    11    1
    22    22    29   ar
    23    11    14    1
    24    14    15    1
    25    17    15    1
    26    17    19    1
    27    15    16    2
    28    19    18    2
    29    16    18    1
