@<TRIPOS>MOLECULE
1b3g_III_B_1.pdb
 27 26 0 0 0
SMALL
GASTEIGER

@<TRIPOS>ATOM
      1  N          7.0190   16.7670   15.2900 N.3     1  LYS1       -0.1182
      2  CA         6.5830   18.0800   14.6910 C.3     1  LYS1        0.1909
      3  C          5.3130   18.6050   15.3930 C.2     1  LYS1        0.2634
      4  O          4.6050   17.8200   16.0220 O.2     1  LYS1       -0.2714
      5  CB         6.3510   17.9640   13.1910 C.2     1  LYS1       -0.0028
      6  CG         5.3090   16.9790   12.6980 C.2     1  LYS1       -0.0272
      7  CD         5.2500   16.7760   11.1990 C.3     1  LYS1        0.0462
      8  CE         6.5560   16.1890   10.6030 C.3     1  LYS1        0.1140
      9  NZ         6.6030   14.7040   10.9230 N.3     1  LYS1       -0.1310
     10  N          5.1170   19.8870   15.4630 N.am    2  ILE2       -0.1963
     11  CA         3.9870   20.5050   16.1490 C.3     2  ILE2        0.1727
     12  C          2.7000   20.5130   15.3080 C.2     2  ILE2        0.2617
     13  O          2.6660   20.9040   14.1510 O.2     2  ILE2       -0.2715
     14  CB         4.2470   21.9150   16.6540 C.3     2  ILE2        0.0290
     15  CG1        5.4060   21.8220   17.6980 C.3     2  ILE2        0.0022
     16  CG2        3.0410   22.5230   17.4160 C.3     2  ILE2        0.0023
     17  CD1        5.9390   23.2060   18.0320 C.3     2  ILE2        0.0001
     18  N          1.6200   20.0180   15.9740 N.am    3  LYS3       -0.1942
     19  CA         0.3140   19.9840   15.3770 C.3     3  LYS3        0.1978
     20  C         -0.6770   20.8030   16.2530 C.2     3  LYS3        0.3842
     21  O         -1.5740   21.3820   15.6570 O.co2   3  LYS3       -0.2437
     22  CB        -0.3030   18.5920   15.2490 C.3     3  LYS3        0.0333
     23  CG        -1.4270   18.6790   14.1740 C.3     3  LYS3        0.0039
     24  CD        -2.2020   17.3580   14.1790 C.3     3  LYS3        0.0206
     25  CE        -3.0300   17.2910   12.8620 C.3     3  LYS3        0.1093
     26  NZ        -3.6650   18.6220   12.6160 N.3     3  LYS3       -0.1314
     27  OXT       -0.5280   20.9380   17.4690 O.co2   3  LYS3       -0.2437
@<TRIPOS>BOND
     1     8     9    1
     2     8     7    1
     3     7     6    1
     4    26    25    1
     5     6     5    2
     6    25    24    1
     7     5     2    1
     8    13    12    2
     9    23    24    1
    10    23    22    1
    11     2     1    1
    12     2     3    1
    13    22    19    1
    14    12    18   am
    15    12    11    1
    16    19    18    1
    17    19    20    1
    18     3    10   am
    19     3     4    2
    20    10    11    1
    21    21    20   ar
    22    11    14    1
    23    20    27   ar
    24    14    16    1
    25    14    15    1
    26    15    17    1
