@<TRIPOS>MOLECULE
1b3h_III_B_1.pdb
 30 30 0 0 0
SMALL
GASTEIGER

@<TRIPOS>ATOM
      1  N          6.9910   16.6240   15.2240 N.3     1  LYS1       -0.1231
      2  CA         6.6310   17.9840   14.6770 C.3     1  LYS1        0.1693
      3  C          5.3960   18.5290   15.3820 C.2     1  LYS1        0.2592
      4  O          4.6070   17.7360   15.8990 O.2     1  LYS1       -0.2718
      5  CB         6.4400   17.9170   13.1440 C.3     1  LYS1        0.0285
      6  CG         5.3720   16.9100   12.6970 C.3     1  LYS1        0.0035
      7  CD         5.3310   16.7550   11.1780 C.3     1  LYS1        0.0206
      8  CE         6.6420   16.2530   10.5790 C.3     1  LYS1        0.1093
      9  NZ         6.7580   14.7730   10.8530 N.3     1  LYS1       -0.1314
     10  N          5.2020   19.8410   15.4620 N.am    2  ALA2       -0.1966
     11  CA         4.0680   20.4700   16.0990 C.3     2  ALA2        0.1728
     12  C          2.7730   20.4260   15.2790 C.2     2  ALA2        0.2617
     13  O          2.6950   20.7490   14.0800 O.2     2  ALA2       -0.2715
     14  CB         4.3500   21.9470   16.4480 C.3     2  ALA2        0.0311
     15  CG         5.1730   22.0820   17.7930 C.3     2  ALA2        0.0022
     16  CD2        4.9840   23.5300   18.3200 C.3     2  ALA2        0.0001
     17  CE2        5.8770   23.8190   19.5390 C.3     2  ALA2        0.0000
     18  CZ         7.3610   23.5330   19.2530 C.3     2  ALA2        0.0000
     19  CE1        7.5790   22.1440   18.6200 C.3     2  ALA2        0.0000
     20  CD1        6.6740   21.9280   17.4160 C.3     2  ALA2        0.0001
     21  N          1.6840   20.0100   15.9440 N.am    3  LYS3       -0.1942
     22  CA         0.3890   19.9600   15.3340 C.3     3  LYS3        0.1978
     23  C         -0.5990   20.8560   16.1180 C.2     3  LYS3        0.3842
     24  O         -1.6080   21.2620   15.5260 O.co2   3  LYS3       -0.2437
     25  CB        -0.2140   18.5380   15.2960 C.3     3  LYS3        0.0333
     26  CG        -1.2060   18.5350   14.1010 C.3     3  LYS3        0.0039
     27  CD        -2.1920   17.4180   14.3230 C.3     3  LYS3        0.0206
     28  CE        -2.8130   16.8010   13.0950 C.3     3  LYS3        0.1093
     29  NZ        -3.1180   17.6700   11.9600 N.3     3  LYS3       -0.1314
     30  OXT       -0.3650   21.2090   17.2690 O.co2   3  LYS3       -0.2437
@<TRIPOS>BOND
     1     8     9    1
     2     8     7    1
     3     7     6    1
     4    29    28    1
     5     6     5    1
     6    28    27    1
     7     5     2    1
     8    13    12    2
     9    26    27    1
    10    26    25    1
    11     2     1    1
    12     2     3    1
    13    12    21   am
    14    12    11    1
    15    25    22    1
    16    22    21    1
    17    22    23    1
    18     3    10   am
    19     3     4    2
    20    10    11    1
    21    24    23   ar
    22    11    14    1
    23    23    30   ar
    24    14    15    1
    25    20    15    1
    26    20    19    1
    27    15    16    1
    28    16    17    1
    29    19    18    1
    30    18    17    1
