@<TRIPOS>MOLECULE
1b3l_III_B_1.pdb
 23 22 0 0 0
SMALL
GASTEIGER

@<TRIPOS>ATOM
      1  N         55.2420    6.2450   94.2520 N.3     1  LYS1       -0.1231
      2  CA        54.8870    4.8000   94.0990 C.3     1  LYS1        0.1693
      3  C         55.7900    4.1440   93.0250 C.2     1  LYS1        0.2593
      4  O         56.2220    4.8330   92.0790 O.2     1  LYS1       -0.2718
      5  CB        53.4070    4.6400   93.7230 C.3     1  LYS1        0.0285
      6  CG        52.9970    5.5020   92.5310 C.3     1  LYS1        0.0035
      7  CD        51.5180    5.2160   92.1420 C.3     1  LYS1        0.0206
      8  CE        50.6320    6.1100   92.9960 C.3     1  LYS1        0.1093
      9  NZ        50.9360    7.5370   92.8540 N.3     1  LYS1       -0.1314
     10  N         56.0520    2.8700   93.2420 N.am    2  GLY2       -0.1942
     11  CA        56.9980    2.1730   92.3600 C.3     2  GLY2        0.2014
     12  C         56.3340    1.7810   91.0490 C.2     2  GLY2        0.2639
     13  O         55.1590    1.4030   91.0950 O.2     2  GLY2       -0.2714
     14  N         57.0540    1.8450   89.9370 N.am    3  LYS3       -0.1941
     15  CA        56.5760    1.3980   88.6360 C.3     3  LYS3        0.1978
     16  C         57.4930    0.3690   87.9530 C.2     3  LYS3        0.3842
     17  O         56.9740   -0.4330   87.1210 O.co2   3  LYS3       -0.2437
     18  CB        56.4110    2.5450   87.6560 C.3     3  LYS3        0.0333
     19  CG        55.3690    2.0920   86.5410 C.3     3  LYS3        0.0039
     20  CD        55.3460    3.2130   85.5280 C.3     3  LYS3        0.0206
     21  CE        54.6270    2.7790   84.2340 C.3     3  LYS3        0.1093
     22  NZ        53.4400    1.9760   84.5750 N.3     3  LYS3       -0.1314
     23  OXT       58.7360    0.3540   88.1410 O.co2   3  LYS3       -0.2437
@<TRIPOS>BOND
     1    21    22    1
     2    21    20    1
     3    20    19    1
     4    19    18    1
     5    17    16   ar
     6    18    15    1
     7    16    23   ar
     8    16    15    1
     9    15    14    1
    10    14    12   am
    11    12    13    2
    12    12    11    1
    13     4     3    2
    14     7     6    1
    15     7     8    1
    16    11    10    1
    17     6     5    1
    18     9     8    1
    19     3    10   am
    20     3     2    1
    21     5     2    1
    22     2     1    1
