@<TRIPOS>MOLECULE
1b3n_CER_A_1.pdb
 16 15 0 0 0
SMALL
GASTEIGER

@<TRIPOS>ATOM
      1  C1        16.2700   27.0080   14.9390 C.2   413  CER413      0.2638
      2  N1        15.4050   28.0010   15.5490 N.am  413  CER413     -0.0877
      3  O1        16.7280   30.2710   11.6640 O.2   413  CER413     -0.2934
      4  C2        16.9250   27.3310   13.5610 C.3   413  CER413      0.1290
      5  O2        16.4930   25.9210   15.4810 O.2   413  CER413     -0.2715
      6  C3        15.9860   28.3540   12.8800 C.3   413  CER413      0.2178
      7  O3        14.8130   27.6620   12.4460 O.3   413  CER413     -0.2146
      8  C4        16.6610   29.0360   11.7030 C.2   413  CER413      0.1812
      9  C5        17.2260   28.2670   10.5070 C.3   413  CER413      0.0672
     10  C6        17.2650   29.2320    9.2970 C.3   413  CER413      0.0078
     11  C7        18.7110   29.6520    9.1030 C.3   413  CER413      0.0008
     12  C8        19.3830   29.4040    7.9820 C.3   413  CER413      0.0047
     13  C9        20.8330   29.9120    7.9690 C.3   413  CER413      0.0257
     14  C10       20.7660   31.4430    7.8670 C.2   413  CER413     -0.0307
     15  C11       21.5900   32.1600    8.6410 C.2   413  CER413     -0.0304
     16  C12       21.5500   33.6850    8.5290 C.3   413  CER413      0.0303
@<TRIPOS>BOND
     1    14    13    1
     2    14    15    2
     3    13    12    1
     4    12    11    1
     5    16    15    1
     6    11    10    1
     7    10     9    1
     8     9     8    1
     9     3     8    2
    10     8     6    1
    11     7     6    1
    12     6     4    1
    13     4     1    1
    14     1     5    2
    15     1     2   am
