@<TRIPOS>MOLECULE
1b3o_SAE_A_1.pdb
 43 47 0 0 0
SMALL
GASTEIGER

@<TRIPOS>ATOM
      1  PA       -17.2400   29.3430    0.2080 P.3   600  SAE600      0.0000
      2  O1A      -16.9890   29.8860    1.5610 O.3   600  SAE600     -0.5000
      3  O2A      -16.8670   30.1410   -0.9820 O.2   600  SAE600     -0.5000
      4  O5B      -18.7860   28.9300    0.1110 O.3   600  SAE600      0.0000
      5  C5B      -19.2870   28.1930   -1.0210 C.3   600  SAE600      0.0000
      6  C4B      -20.7880   28.0610   -0.8760 C.3   600  SAE600      0.0000
      7  O4B      -21.0050   29.5130   -0.7520 O.3   600  SAE600      0.0000
      8  C3B      -21.2700   27.5420   -2.2050 C.3   600  SAE600      0.0000
      9  O3B      -22.2540   26.4920   -2.0060 O.3   600  SAE600      0.0000
     10  C2B      -21.5430   28.8740   -2.9630 C.3   600  SAE600      0.0000
     11  O2B      -22.4400   28.8470   -4.0900 O.3   600  SAE600      0.0000
     12  C1B      -21.9620   29.8240   -1.8210 C.3   600  SAE600      0.0000
     13  N9A      -22.0120   31.2790   -2.2390 N.pl3 600  SAE600      0.5000
     14  C8A      -20.9460   32.1270   -2.3320 C.3   600  SAE600      0.0000
     15  N7A      -21.3280   33.3720   -2.6910 N.2   600  SAE600      0.0000
     16  C5A      -22.6680   33.2890   -2.7750 C.2   600  SAE600      0.0000
     17  C6A      -23.5760   34.3370   -3.0810 C.2   600  SAE600      0.0000
     18  N6A      -23.2120   35.6020   -3.2450 N.pl3 600  SAE600      0.5000
     19  N1A      -24.8920   33.9790   -3.2250 N.2   600  SAE600      0.5000
     20  C2A      -25.3450   32.7180   -3.0310 C.3   600  SAE600      0.0000
     21  N3A      -24.4680   31.7320   -2.7180 N.2   600  SAE600      0.5000
     22  C4A      -23.1260   31.9780   -2.5660 C.2   600  SAE600      0.0000
     23  O3       -16.5870   27.8830    0.0880 O.3   600  SAE600      0.0000
     24  PN       -17.0610   26.3950    0.4680 P.3   600  SAE600      0.0000
     25  O1N      -17.2790   25.7050   -0.8390 O.2   600  SAE600     -0.5000
     26  O2N      -18.2170   26.4810    1.3920 O.3   600  SAE600     -0.5000
     27  O5D      -15.7840   25.9770    1.3760 O.3   600  SAE600      0.0000
     28  C5D      -15.7300   26.5200    2.7260 C.3   600  SAE600      0.0000
     29  C4D      -14.4320   27.1820    3.2050 C.3   600  SAE600      0.0000
     30  O4D      -13.4600   26.1700    3.4930 O.3   600  SAE600      0.0000
     31  C3D      -13.8200   28.0500    2.1270 C.3   600  SAE600      0.0000
     32  O3D      -14.3260   29.3900    2.1840 O.3   600  SAE600      0.0000
     33  C2D      -12.3770   28.0850    2.5850 C.3   600  SAE600      0.0000
     34  O2D      -12.2050   29.1140    3.5740 O.3   600  SAE600      0.0000
     35  C1D      -12.1660   26.6920    3.1740 C.3   600  SAE600      0.0000
     36  C2N      -11.5820   25.6260    2.2760 C.2   600  SAE600      0.0000
     37  N3N      -10.7780   25.9480    1.2770 N.2   600  SAE600      0.0000
     38  C4N      -10.4360   24.8400    0.6310 C.2   600  SAE600      0.0000
     39  C5N      -10.9350   23.6860    1.1110 C.3   600  SAE600      0.0000
     40 SE1N      -11.9460   23.9480    2.4680 Se    600  SAE600      0.0000
     41  C6N       -9.5240   24.9420   -0.5910 C.2   600  SAE600      0.0000
     42  O6N       -9.5940   24.1360   -1.5150 O.2   600  SAE600      0.0000
     43  N6N       -8.6670   25.9450   -0.5790 N.am  600  SAE600      0.0000
@<TRIPOS>BOND
     1    11    10    1
     2    18    17    1
     3    19    17    2
     4    19    20    1
     5    17    16    1
     6    20    21    1
     7    10     8    1
     8    10    12    1
     9    16    15    2
    10    16    22    1
    11    21    22    2
    12    15    14    1
    13    22    13    1
    14    14    13    1
    15    13    12    1
    16     8     9    1
    17     8     6    1
    18    12     7    1
    19    42    41    2
    20     5     6    1
    21     5     4    1
    22     3     1    2
    23     6     7    1
    24    25    24    2
    25    41    43   am
    26    41    38    1
    27    23     1    1
    28    23    24    1
    29     4     1    1
    30     1     2    1
    31    24    27    1
    32    24    26    1
    33    38    39    1
    34    38    37    2
    35    39    40    1
    36    37    36    2
    37    27    28    1
    38    31    32    1
    39    31    33    1
    40    31    29    1
    41    36    40    1
    42    36    35    1
    43    33    35    1
    44    33    34    1
    45    28    29    1
    46    35    30    1
    47    29    30    1
