@<TRIPOS>MOLECULE
1b3o_CPR_A_1.pdb
 22 24 0 0 0
SMALL
GASTEIGER

@<TRIPOS>ATOM
      1  P         -1.7850   21.9890    4.2360 P.3   631  CPR631      0.5327
      2  O1P       -1.9390   22.0400    5.7030 O.3   631  CPR631     -0.1145
      3  O2P       -1.8050   20.6460    3.5940 O.2   631  CPR631     -0.2224
      4  O3P       -0.7280   22.9120    3.7120 O.3   631  CPR631     -0.1145
      5  O5'       -3.1960   22.4990    3.6640 O.3   631  CPR631     -0.2675
      6  C5'       -3.3070   23.8770    3.2870 C.3   631  CPR631      0.1860
      7  C4'       -4.5680   24.0990    2.5320 C.3   631  CPR631      0.1823
      8  O4'       -5.5480   23.3030    3.1870 O.3   631  CPR631     -0.3135
      9  C3'       -5.0870   25.4970    2.7300 C.3   631  CPR631      0.2184
     10  O3'       -4.4570   26.5820    2.0960 O.3   631  CPR631     -0.2174
     11  C2'       -6.5240   25.2370    2.3050 C.3   631  CPR631      0.2570
     12  O2'       -6.6840   25.2970    0.8800 O.3   631  CPR631     -0.2130
     13  C1'       -6.8450   23.8430    2.8690 C.3   631  CPR631      0.3186
     14  N9        -7.7890   23.7230    4.0460 N.pl3 631  CPR631     -0.1440
     15  C8        -7.7220   24.3950    5.2210 C.3   631  CPR631      0.3373
     16  N7        -8.6490   24.0300    6.0920 N.2   631  CPR631     -0.2187
     17  C5        -9.3850   23.1680    5.4140 C.2   631  CPR631      0.1644
     18  C6       -10.5650   22.5910    5.9520 C.3   631  CPR631      0.1822
     19  N1       -11.0220   21.6080    5.1360 N.2   631  CPR631     -0.2189
     20  C2       -10.4810   21.1610    3.9750 C.2   631  CPR631      0.3347
     21  N3        -9.4220   21.8620    3.4690 N.2   631  CPR631     -0.0132
     22  C4        -8.8160   22.8650    4.1770 C.2   631  CPR631      0.3444
@<TRIPOS>BOND
     1    12    11    1
     2    10     9    1
     3    11     9    1
     4    11    13    1
     5     7     9    1
     6     7     8    1
     7     7     6    1
     8    13     8    1
     9    13    14    1
    10     6     5    1
    11    21    20    1
    12    21    22    2
    13     3     1    2
    14     5     1    1
    15     4     1    1
    16    20    19    2
    17    14    22    1
    18    14    15    1
    19    22    17    1
    20     1     2    1
    21    19    18    1
    22    15    16    1
    23    17    18    1
    24    17    16    2
