@<TRIPOS>MOLECULE
1b3v_XYP_A_1.pdb
 10 10 0 0 0
SMALL
GASTEIGER

@<TRIPOS>ATOM
      1  O4A       78.3220   44.1990   21.7530 O.3   523  XYP523     -0.1869
      2  C1B       77.8720   43.6530   20.5590 C.3   523  XYP523      0.3024
      3  C2B       77.4390   44.7690   19.6140 C.3   523  XYP523      0.2434
      4  C3B       77.0710   44.2020   18.2380 C.3   523  XYP523      0.2199
      5  C4B       78.1830   43.3090   17.7020 C.3   523  XYP523      0.2143
      6  C5B       78.5710   42.2700   18.7500 C.3   523  XYP523      0.1804
      7  O2B       76.3100   45.4180   20.1760 O.3   523  XYP523     -0.2148
      8  O3B       76.8460   45.2600   17.3200 O.3   523  XYP523     -0.2174
      9  O4B       77.7230   42.6440   16.5350 O.3   523  XYP523     -0.2176
     10  O5B       78.9440   42.9060   19.9910 O.3   523  XYP523     -0.3237
@<TRIPOS>BOND
     1     9     5    1
     2     8     4    1
     3     5     4    1
     4     5     6    1
     5     4     3    1
     6     6    10    1
     7     3     7    1
     8     3     2    1
     9    10     2    1
    10     2     1    1
