@<TRIPOS>MOLECULE
1b3v_XYS_A_1.pdb
 10 10 0 0 0
SMALL
GASTEIGER

@<TRIPOS>ATOM
      1  C1        81.9500   44.4240   12.2820 C.3   525  XYS525      0.3024
      2  C2        83.0440   44.9350   13.2510 C.3   525  XYS525      0.2434
      3  C3        82.4080   46.1110   13.9600 C.3   525  XYS525      0.2199
      4  C4        80.9930   46.3850   13.2960 C.3   525  XYS525      0.2143
      5  C5        80.0720   45.2030   13.4470 C.3   525  XYS525      0.1804
      6  O1        82.5270   43.2270   11.8230 O.3   525  XYS525     -0.1869
      7  O2        83.5310   43.9030   14.1260 O.3   525  XYS525     -0.2148
      8  O3        83.2450   47.2380   13.7410 O.3   525  XYS525     -0.2174
      9  O4        80.4170   47.5410   13.9040 O.3   525  XYS525     -0.2176
     10  O5        80.7640   44.0210   13.0190 O.3   525  XYS525     -0.3237
@<TRIPOS>BOND
     1     6     1    1
     2     1    10    1
     3     1     2    1
     4    10     5    1
     5     2     3    1
     6     2     7    1
     7     4     5    1
     8     4     9    1
     9     4     3    1
    10     8     3    1
