@<TRIPOS>MOLECULE
1b3w_XYP_A_1.pdb
 10 10 0 0 0
SMALL
GASTEIGER

@<TRIPOS>ATOM
      1  O4A       78.8500   40.7030   25.4730 O.3   506  XYP506     -0.1869
      2  C1B       78.2510   41.8100   24.8700 C.3   506  XYP506      0.3024
      3  C2B       79.3780   42.8080   24.4650 C.3   506  XYP506      0.2434
      4  C3B       78.8540   43.8880   23.5390 C.3   506  XYP506      0.2199
      5  C4B       78.2300   43.1660   22.3630 C.3   506  XYP506      0.2143
      6  C5B       77.0160   42.4370   22.9410 C.3   506  XYP506      0.1804
      7  O2B       79.8560   43.4150   25.6840 O.3   506  XYP506     -0.2148
      8  O3B       79.8540   44.7580   23.1170 O.3   506  XYP506     -0.2174
      9  O4B       77.8640   44.0310   21.2990 O.3   506  XYP506     -0.2176
     10  O5B       77.4780   41.3560   23.7410 O.3   506  XYP506     -0.3237
@<TRIPOS>BOND
     1     9     5    1
     2     5     6    1
     3     5     4    1
     4     6    10    1
     5     8     4    1
     6     4     3    1
     7    10     2    1
     8     3     2    1
     9     3     7    1
    10     2     1    1
