@<TRIPOS>MOLECULE
1b3x_XYP_A_3.pdb
 10 10 0 0 0
SMALL
GASTEIGER

@<TRIPOS>ATOM
      1  O4A       79.3180   41.1620   25.9390 O.3   606  XYP606     -0.1869
      2  C1B       79.0190   42.1430   25.0010 C.3   606  XYP606      0.3024
      3  C2B       80.2090   42.9970   24.5310 C.3   606  XYP606      0.2434
      4  C3B       79.6490   44.1280   23.6580 C.3   606  XYP606      0.2199
      5  C4B       78.9100   43.4690   22.5010 C.3   606  XYP606      0.2143
      6  C5B       77.7270   42.6720   23.0840 C.3   606  XYP606      0.1804
      7  O2B       80.9000   43.6140   25.6730 O.3   606  XYP606     -0.2148
      8  O3B       80.7360   44.9400   23.2090 O.3   606  XYP606     -0.2174
      9  O4B       78.3940   44.3990   21.5620 O.3   606  XYP606     -0.2176
     10  O5B       78.2820   41.6050   23.9220 O.3   606  XYP606     -0.3237
@<TRIPOS>BOND
     1     9     5    1
     2     5     6    1
     3     5     4    1
     4     6    10    1
     5     8     4    1
     6     4     3    1
     7    10     2    1
     8     3     2    1
     9     3     7    1
    10     2     1    1
