@<TRIPOS>MOLECULE
1b3y_XYS_A_1.pdb
 10 10 0 0 0
SMALL
GASTEIGER

@<TRIPOS>ATOM
      1  C1        75.2330   36.3650   27.0450 C.3   560  XYS560      0.3024
      2  C2        74.1430   37.4740   27.0300 C.3   560  XYS560      0.2434
      3  C3        74.9790   38.7240   27.0310 C.3   560  XYS560      0.2199
      4  C4        76.4080   38.3620   26.5810 C.3   560  XYS560      0.2143
      5  C5        76.4360   37.4230   25.3640 C.3   560  XYS560      0.1804
      6  O1        74.4780   35.2280   27.2420 O.3   560  XYS560     -0.1869
      7  O2        73.1840   37.4390   25.9210 O.3   560  XYS560     -0.2148
      8  O3        75.0170   39.2150   28.3710 O.3   560  XYS560     -0.2174
      9  O4        77.1270   39.5030   26.3020 O.3   560  XYS560     -0.2176
     10  O5        75.7140   36.2550   25.7300 O.3   560  XYS560     -0.3237
@<TRIPOS>BOND
     1     5    10    1
     2     5     4    1
     3    10     1    1
     4     7     2    1
     5     9     4    1
     6     4     3    1
     7     2     3    1
     8     2     1    1
     9     3     8    1
    10     1     6    1
