@<TRIPOS>MOLECULE
1b3y_XYP_A_2.pdb
 10 10 0 0 0
SMALL
GASTEIGER

@<TRIPOS>ATOM
      1  O4A       79.0210   40.4020   25.3520 O.3   559  XYP559     -0.1869
      2  C1B       78.4790   41.6220   24.9360 C.3   559  XYP559      0.3024
      3  C2B       79.6100   42.5640   24.5180 C.3   559  XYP559      0.2434
      4  C3B       79.2130   43.7500   23.6450 C.3   559  XYP559      0.2199
      5  C4B       78.3650   43.1810   22.5040 C.3   559  XYP559      0.2143
      6  C5B       77.1630   42.5450   23.1920 C.3   559  XYP559      0.1804
      7  O2B       80.2600   43.0800   25.6950 O.3   559  XYP559     -0.2148
      8  O3B       80.3990   44.3560   23.1200 O.3   559  XYP559     -0.2174
      9  O4B       77.9140   44.1580   21.5770 O.3   559  XYP559     -0.2176
     10  O5B       77.6360   41.3390   23.8510 O.3   559  XYP559     -0.3237
@<TRIPOS>BOND
     1     9     5    1
     2     5     6    1
     3     5     4    1
     4     8     4    1
     5     6    10    1
     6     4     3    1
     7    10     2    1
     8     3     2    1
     9     3     7    1
    10     2     1    1
