@<TRIPOS>MOLECULE
1b3z_XYS_A_1.pdb
 10 10 0 0 0
SMALL
GASTEIGER

@<TRIPOS>ATOM
      1  C1        72.9460   36.9080   25.8710 C.3   657  XYS657      0.3024
      2  C2        72.5530   35.6480   26.6540 C.3   657  XYS657      0.2434
      3  C3        73.8960   35.0510   27.1350 C.3   657  XYS657      0.2199
      4  C4        75.0110   35.8850   26.4480 C.3   657  XYS657      0.2143
      5  C5        74.9490   37.2950   26.9850 C.3   657  XYS657      0.1804
      6  O1        71.7760   37.5220   25.4800 O.3   657  XYS657     -0.1869
      7  O2        71.6850   35.9380   27.7390 O.3   657  XYS657     -0.2148
      8  O3        73.9920   33.6800   26.7580 O.3   657  XYS657     -0.2174
      9  O4        76.3220   35.3220   26.5870 O.3   657  XYS657     -0.2176
     10  O5        73.6210   37.8050   26.7520 O.3   657  XYS657     -0.3237
@<TRIPOS>BOND
     1     6     1    1
     2     1     2    1
     3     1    10    1
     4     4     9    1
     5     4     5    1
     6     4     3    1
     7     2     3    1
     8     2     7    1
     9    10     5    1
    10     8     3    1
