@<TRIPOS>MOLECULE
1b3z_XYP_A_3.pdb
 10 10 0 0 0
SMALL
GASTEIGER

@<TRIPOS>ATOM
      1  O4A       79.7210   40.7020   25.0530 O.3   655  XYP655     -0.1869
      2  C1B       78.9600   41.8510   24.9460 C.3   655  XYP655      0.3024
      3  C2B       79.9490   42.9540   24.4140 C.3   655  XYP655      0.2434
      4  C3B       79.3370   44.0860   23.5920 C.3   655  XYP655      0.2199
      5  C4B       78.5760   43.3320   22.4950 C.3   655  XYP655      0.2143
      6  C5B       77.3730   42.5680   23.1740 C.3   655  XYP655      0.1804
      7  O2B       80.6000   43.5500   25.5000 O.3   655  XYP655     -0.2148
      8  O3B       80.3900   44.8920   23.1030 O.3   655  XYP655     -0.2174
      9  O4B       78.1580   44.2050   21.4370 O.3   655  XYP655     -0.2176
     10  O5B       77.8410   41.4920   24.0700 O.3   655  XYP655     -0.3237
@<TRIPOS>BOND
     1     9     5    1
     2     5     6    1
     3     5     4    1
     4     8     4    1
     5     6    10    1
     6     4     3    1
     7    10     2    1
     8     3     2    1
     9     3     7    1
    10     2     1    1
