@<TRIPOS>MOLECULE
1b40_III_B_1.pdb
 29 29 0 0 0
SMALL
GASTEIGER

@<TRIPOS>ATOM
      1  N          6.9560   16.5790   15.1480 N.3     1  LYS1       -0.1231
      2  CA         6.5760   17.9380   14.6390 C.3     1  LYS1        0.1693
      3  C          5.3270   18.4650   15.3500 C.2     1  LYS1        0.2592
      4  O          4.4760   17.6870   15.8460 O.2     1  LYS1       -0.2718
      5  CB         6.3520   17.8970   13.1250 C.3     1  LYS1        0.0285
      6  CG         5.4560   16.7990   12.6030 C.3     1  LYS1        0.0035
      7  CD         5.2730   16.8330   11.0980 C.3     1  LYS1        0.0206
      8  CE         6.4560   16.2780   10.3050 C.3     1  LYS1        0.1093
      9  NZ         6.7210   14.8680   10.7620 N.3     1  LYS1       -0.1314
     10  N          5.2000   19.7800   15.4660 N.am    2  PHE2       -0.1962
     11  CA         4.0710   20.3970   16.1250 C.3     2  PHE2        0.1771
     12  C          2.7630   20.2960   15.3130 C.2     2  PHE2        0.2619
     13  O          2.7880   20.6020   14.1150 O.2     2  PHE2       -0.2715
     14  CB         4.3790   21.8900   16.3530 C.3     2  PHE2        0.0574
     15  CG         5.4870   22.1170   17.3760 C.ar    2  PHE2       -0.0200
     16  CD1        6.8160   21.9900   17.0010 C.ar    2  PHE2       -0.0042
     17  CD2        5.1730   22.4340   18.6650 C.ar    2  PHE2       -0.0042
     18  CE1        7.8090   22.2020   17.9270 C.ar    2  PHE2       -0.0003
     19  CE2        6.1840   22.6350   19.6000 C.ar    2  PHE2       -0.0003
     20  CZ         7.5210   22.5190   19.2480 C.ar    2  PHE2       -0.0000
     21  N          1.6540   19.9130   15.9560 N.am    3  LYS3       -0.1977
     22  CA         0.3810   19.8730   15.2810 C.3     3  LYS3        0.1596
     23  C         -0.6880   20.6340   16.0880 C.2     3  LYS3        0.2287
     24  O         -1.7850   20.8460   15.5250 O.2     3  LYS3       -0.2864
     25  CB        -0.1240   18.4180   15.1220 C.3     3  LYS3        0.0298
     26  CG        -1.1290   18.3540   13.9710 C.3     3  LYS3        0.0038
     27  CD        -2.2490   17.3730   14.2250 C.3     3  LYS3        0.0206
     28  CE        -3.3240   17.3910   13.1230 C.3     3  LYS3        0.1093
     29  NZ        -2.7190   16.9480   11.8380 N.3     3  LYS3       -0.1314
@<TRIPOS>BOND
     1     8     9    1
     2     8     7    1
     3     7     6    1
     4    29    28    1
     5     6     5    1
     6    28    27    1
     7     5     2    1
     8    26    27    1
     9    26    25    1
    10    13    12    2
    11     2     1    1
    12     2     3    1
    13    25    22    1
    14    22    21    1
    15    22    23    1
    16    12    21   am
    17    12    11    1
    18     3    10   am
    19     3     4    2
    20    10    11    1
    21    24    23    2
    22    11    14    1
    23    14    15    1
    24    16    15   ar
    25    16    18   ar
    26    15    17   ar
    27    18    20   ar
    28    17    19   ar
    29    20    19   ar
