@<TRIPOS>MOLECULE
1b42_SAH_A_1.pdb
 30 32 0 0 0
SMALL
GASTEIGER

@<TRIPOS>ATOM
      1  N         -4.1340   12.9150   24.0770 N.3   400  SAH400     -0.2362
      2  CA        -4.2420   11.9130   25.1350 C.3   400  SAH400      0.1728
      3  CB        -2.9440   11.0940   25.1830 C.3   400  SAH400      0.0403
      4  CG        -2.6210   10.3440   23.8890 C.3   400  SAH400      0.0596
      5  SD        -1.2060    9.2280   23.9850 S.3   400  SAH400     -0.1375
      6  C         -4.5720   12.5420   26.5120 C.2   400  SAH400      0.3800
      7  O         -5.0540   13.6950   26.5500 O.co2 400  SAH400     -0.2441
      8  OXT       -4.2770   11.9150   27.5500 O.co2 400  SAH400     -0.2441
      9  C5'       -1.2370    8.5710   22.2930 C.3   400  SAH400      0.0899
     10  C4'       -2.5250    7.8270   21.9480 C.3   400  SAH400      0.1629
     11  O4'       -2.5630    7.6780   20.4830 O.3   400  SAH400     -0.3154
     12  C3'       -2.6690    6.4120   22.6370 C.3   400  SAH400      0.2132
     13  O3'       -3.8270    6.3460   23.4880 O.3   400  SAH400     -0.2176
     14  C2'       -2.9260    5.5430   21.4230 C.3   400  SAH400      0.2171
     15  O2'       -3.9150    4.4570   21.6210 O.3   400  SAH400     -0.3762
     16  C1'       -3.4510    6.5760   20.4380 C.3   400  SAH400      0.3149
     17  N9        -3.4430    6.1150   19.1060 N.pl3 400  SAH400     -0.1440
     18  C8        -2.4040    5.6060   18.3980 C.3   400  SAH400      0.3377
     19  N7        -2.7120    5.3760   17.1470 N.2   400  SAH400     -0.2098
     20  C5        -4.0640    5.7630   17.0490 C.2   400  SAH400      0.2438
     21  C6        -4.9850    5.7330   16.0070 C.2   400  SAH400      0.3428
     22  N6        -4.7420    5.3230   14.7590 N.pl3 400  SAH400     -0.2449
     23  N1        -6.1840    6.1270   16.3050 N.2   400  SAH400     -0.0059
     24  C2        -6.4900    6.5200   17.5050 C.3   400  SAH400      0.5252
     25  N3        -5.7390    6.5990   18.5470 N.2   400  SAH400     -0.0055
     26  C4        -4.5080    6.2010   18.2480 C.2   400  SAH400      0.3515
     27  HN1       -4.3400   12.6310   23.1630 H     400  SAH400      0.1419
     28 HO2'       -3.7820    3.8820   20.8680 H     400  SAH400      0.2107
     29 HN61       -3.8190    5.0160   14.4990 H     400  SAH400      0.2885
     30 HN62       -5.4540    5.3040   14.0410 H     400  SAH400      0.2885
@<TRIPOS>BOND
     1    30    22    1
     2    29    22    1
     3    22    21    1
     4    21    23    2
     5    21    20    1
     6    23    24    1
     7    20    19    2
     8    20    26    1
     9    19    18    1
    10    24    25    1
    11    26    25    2
    12    26    17    1
    13    18    17    1
    14    17    16    1
    15    16    11    1
    16    16    14    1
    17    11    10    1
    18    28    15    1
    19    14    15    1
    20    14    12    1
    21    10     9    1
    22    10    12    1
    23     9     5    1
    24    12    13    1
    25    27     1    1
    26     4     5    1
    27     4     3    1
    28     1     2    1
    29     2     3    1
    30     2     6    1
    31     6     7   ar
    32     6     8   ar
