@<TRIPOS>MOLECULE
1b42_M1A_A_1.pdb
 11 12 0 0 0
SMALL
GASTEIGER

@<TRIPOS>ATOM
      1  N9        18.5840   12.3140   19.6800 N.2   600  M1A600     -0.1914
      2  C8        18.9520   13.3950   18.9240 C.3   600  M1A600      0.2618
      3  N7        18.3390   14.5040   19.2460 N.2   600  M1A600     -0.2268
      4  C5        17.4970   14.1420   20.3050 C.2   600  M1A600      0.2268
      5  C6        16.5740   14.8800   21.1070 C.2   600  M1A600      0.4045
      6  N6        16.3460   16.1760   20.9850 N.2   600  M1A600      0.1958
      7  N1        15.9140   14.2170   22.0590 N.pl3 600  M1A600     -0.1588
      8  C2        16.1580   12.9120   22.2200 C.3   600  M1A600      0.3445
      9  N3        16.9980   12.0940   21.5610 N.2   600  M1A600     -0.1693
     10  C4        17.6440   12.7980   20.5810 C.1   600  M1A600      0.0575
     11  CN1       14.9780   14.9840   22.8580 C.3   600  M1A600      0.2553
@<TRIPOS>BOND
     1     2     3    1
     2     2     1    1
     3     3     4    2
     4     1    10    2
     5     4    10    1
     6     4     5    1
     7    10     9    2
     8     6     5    2
     9     5     7    1
    10     9     8    1
    11     7     8    1
    12     7    11    1
