@<TRIPOS>MOLECULE
1b46_III_B_1.pdb
 26 26 0 0 0
SMALL
GASTEIGER

@<TRIPOS>ATOM
      1  N          6.7660   16.3870   15.1390 N.3     1  LYS1       -0.1231
      2  CA         6.3140   17.7280   14.6600 C.3     1  LYS1        0.1678
      3  C          5.0830   18.1570   15.4200 C.2     1  LYS1        0.2434
      4  O          4.1450   17.3810   15.6580 O.2     1  LYS1       -0.2733
      5  CB         6.0390   17.6230   13.1280 C.3     1  LYS1        0.0284
      6  CG         5.0770   16.5230   12.6910 C.3     1  LYS1        0.0035
      7  CD         4.9850   16.4040   11.1500 C.3     1  LYS1        0.0206
      8  CE         6.2050   15.7360   10.5340 C.3     1  LYS1        0.1093
      9  NZ         6.3720   14.3080   10.9700 N.3     1  LYS1       -0.1314
     10  N          4.9700   19.4160   15.8200 N.am    2  PRO2       -0.2718
     11  CA         3.7360   19.9220   16.4280 C.3     2  PRO2        0.1535
     12  C          2.5470   19.8630   15.4810 C.2     2  PRO2        0.2599
     13  O          2.6260   20.1430   14.2660 O.2     2  PRO2       -0.2715
     14  CB         4.0770   21.3960   16.7230 C.3     2  PRO2        0.0310
     15  CG         5.5800   21.3400   16.8930 C.3     2  PRO2        0.0237
     16  CD         6.0190   20.4540   15.7250 C.3     2  PRO2        0.0939
     17  N          1.3760   19.5380   16.0320 N.am    3  LYS3       -0.1942
     18  CA         0.1360   19.4660   15.3030 C.3     3  LYS3        0.1978
     19  C         -0.9460   20.2840   16.0330 C.2     3  LYS3        0.3842
     20  O         -1.9040   20.6800   15.3660 O.co2   3  LYS3       -0.2437
     21  CB        -0.4030   18.0340   15.1640 C.3     3  LYS3        0.0333
     22  CG        -1.4620   18.0400   14.0310 C.3     3  LYS3        0.0039
     23  CD        -2.1740   16.6980   14.0750 C.3     3  LYS3        0.0206
     24  CE        -3.4740   16.7950   13.2670 C.3     3  LYS3        0.1093
     25  NZ        -3.0760   16.7440   11.8380 N.3     3  LYS3       -0.1314
     26  OXT       -0.7610   20.6360   17.2110 O.co2   3  LYS3       -0.2437
@<TRIPOS>BOND
     1     8     9    1
     2     8     7    1
     3     7     6    1
     4    25    24    1
     5     6     5    1
     6     5     2    1
     7    24    23    1
     8    22    23    1
     9    22    21    1
    10    13    12    2
    11     2     1    1
    12     2     3    1
    13    21    18    1
    14    18    17    1
    15    18    19    1
    16    20    19   ar
    17     3     4    2
    18     3    10   am
    19    12    17   am
    20    12    11    1
    21    16    10    1
    22    16    15    1
    23    10    11    1
    24    19    26   ar
    25    11    14    1
    26    14    15    1
