@<TRIPOS>MOLECULE
1b48_GSH_B_1.pdb
 20 19 0 0 0
SMALL
GASTEIGER

@<TRIPOS>ATOM
      1  N1        39.8070   30.1300   23.4360 N.3   223  GSH223     -0.1208
      2  CA1       39.8830   31.0240   22.1500 C.3   223  GSH223      0.1948
      3  C1        40.4850   30.2460   21.0280 C.2   223  GSH223      0.3819
      4  O11       40.8840   30.6350   19.8630 O.co2 223  GSH223     -0.2441
      5  O12       40.7010   28.8850   21.1490 O.co2 223  GSH223     -0.2441
      6  CB1       40.8300   32.2290   22.6160 C.3   223  GSH223      0.0402
      7  CG1       40.3740   32.7260   24.0080 C.3   223  GSH223      0.0889
      8  CD1       41.4330   33.5670   24.7050 C.2   223  GSH223      0.2418
      9  OE1       41.4870   33.8780   25.9570 O.2   223  GSH223     -0.2733
     10  N2        42.4400   34.0230   23.8680 N.am  223  GSH223     -0.1968
     11  CA2       43.2190   35.1750   24.3580 C.3   223  GSH223      0.1843
     12  C2        43.1020   36.2680   23.2450 C.2   223  GSH223      0.2627
     13  O2        43.2460   35.7750   22.1290 O.2   223  GSH223     -0.2714
     14  CB2       44.6970   34.7590   24.5470 C.3   223  GSH223      0.0997
     15  SG2       44.8350   34.4790   26.2920 S.3   223  GSH223     -0.0797
     16  N3        42.8640   37.4680   23.7380 N.am  223  GSH223     -0.1917
     17  CA3       41.5130   37.8980   24.1870 C.3   223  GSH223      0.2285
     18  C3        41.0180   39.0260   23.2870 C.2   223  GSH223      0.3865
     19  O31       40.6740   38.7790   22.0650 O.co2 223  GSH223     -0.2437
     20  O32       40.9840   40.2540   23.8670 O.co2 223  GSH223     -0.2437
@<TRIPOS>BOND
     1     4     3   ar
     2     3     5   ar
     3     3     2    1
     4    19    18   ar
     5    13    12    2
     6     2     6    1
     7     2     1    1
     8     6     7    1
     9    12    16   am
    10    12    11    1
    11    18    20   ar
    12    18    17    1
    13    16    17    1
    14    10    11    1
    15    10     8   am
    16     7     8    1
    17    11    14    1
    18    14    15    1
    19     8     9    2
