@<TRIPOS>MOLECULE
1b48_HAG_A_1.pdb
 31 31 0 0 0
SMALL
GASTEIGER

@<TRIPOS>ATOM
      1  C1        34.3580   16.8880   30.1630 C.2   223  HAG223      0.3819
      2  C2        32.4890   17.4790   36.0980 C.2   223  HAG223      0.2626
      3  C3        35.2570   17.5880   38.3290 C.2   223  HAG223      0.3865
      4  N1        35.1460   19.0510   29.0720 N.3   223  HAG223     -0.1208
      5  CA1       35.2050   18.1420   30.3250 C.3   223  HAG223      0.1948
      6  O11       33.8920   16.0930   31.0610 O.co2 223  HAG223     -0.2441
      7  O12       33.9660   16.4040   28.8980 O.co2 223  HAG223     -0.2441
      8  CB1       34.7330   19.1240   31.4630 C.3   223  HAG223      0.0402
      9  CG1       35.1600   18.4890   32.7700 C.3   223  HAG223      0.0889
     10  CD1       34.4300   19.0240   33.9620 C.2   223  HAG223      0.2418
     11  OE1       34.9140   19.7520   34.8830 O.2   223  HAG223     -0.2733
     12  N2        33.1030   18.6700   34.0450 N.am  223  HAG223     -0.1969
     13  CA2       32.4730   18.8820   35.3860 C.3   223  HAG223      0.1834
     14  O2        32.0340   16.6200   35.3440 O.2   223  HAG223     -0.2714
     15  CB2       31.0200   19.4060   35.2060 C.3   223  HAG223      0.0886
     16  SG2       30.8010   20.5700   36.5340 S.3   223  HAG223     -0.1361
     17  N3        32.9950   17.5150   37.3460 N.am  223  HAG223     -0.1917
     18  CA3       34.1080   18.4100   37.7540 C.3   223  HAG223      0.2285
     19  O31       35.2680   17.2580   39.5730 O.co2 223  HAG223     -0.2437
     20  O32       36.2170   17.2570   37.4510 O.co2 223  HAG223     -0.2437
     21  C41       31.2530   22.3010   36.2080 C.3   223  HAG223      0.0800
     22  C42       32.6530   22.5860   35.7730 C.3   223  HAG223      0.0776
     23  O42       33.5040   23.5860   33.5810 O.3   223  HAG223     -0.1899
     24  C43       32.5900   22.5930   34.2230 C.3   223  HAG223      0.2698
     25  O43       31.2370   22.9170   33.9020 O.3   223  HAG223     -0.3301
     26  C44       30.3200   22.7810   35.0550 C.3   223  HAG223      0.1279
     27  C45       29.7380   24.1870   35.4140 C.3   223  HAG223      0.0305
     28  C46       28.7690   24.7630   34.3050 C.3   223  HAG223      0.0025
     29  C47       27.8670   23.8980   33.3660 C.3   223  HAG223      0.0001
     30  C48       27.0810   22.7490   34.0020 C.3   223  HAG223      0.0000
     31  C49       26.5510   22.8470   35.4070 C.3   223  HAG223      0.0000
@<TRIPOS>BOND
     1     7     1   ar
     2     4     5    1
     3     1     5    1
     4     1     6   ar
     5     5     8    1
     6     8     9    1
     7     9    10    1
     8    29    30    1
     9    29    28    1
    10    23    24    1
    11    25    24    1
    12    25    26    1
    13    10    12   am
    14    10    11    2
    15    30    31    1
    16    12    13    1
    17    24    22    1
    18    28    27    1
    19    26    27    1
    20    26    21    1
    21    15    13    1
    22    15    16    1
    23    14     2    2
    24    13     2    1
    25    22    21    1
    26     2    17   am
    27    21    16    1
    28    17    18    1
    29    20     3   ar
    30    18     3    1
    31     3    19   ar
