@<TRIPOS>MOLECULE
1b4b_ARG_A_1.pdb
 12 11 0 0 0
SMALL
GASTEIGER

@<TRIPOS>ATOM
      1  N         32.0400   37.9840    9.6560 N.3     1  ARG1       -0.1208
      2  CA        32.4360   38.3840   11.0360 C.3     1  ARG1        0.1944
      3  C         31.8660   39.7550   11.3760 C.2     1  ARG1        0.3819
      4  O         31.8120   40.0890   12.5790 O.co2   1  ARG1       -0.2441
      5  CB        33.9580   38.4200   11.1520 C.3     1  ARG1        0.0343
      6  CG        34.6390   39.3780   10.1790 C.3     1  ARG1        0.0490
      7  CD        36.1420   39.2990   10.3400 C.3     1  ARG1        0.2205
      8  NE        36.8800   40.1490    9.4110 N.pl3   1  ARG1       -0.0865
      9  CZ        37.3850   41.3380    9.7250 C.cat   1  ARG1        0.5346
     10  NH1       37.2270   41.8190   10.9500 N.pl3   1  ARG1        0.1354
     11  NH2       38.0840   42.0280    8.8280 N.pl3   1  ARG1        0.1354
     12  OXT       31.4850   40.4820   10.4330 O.co2   1  ARG1       -0.2441
@<TRIPOS>BOND
     1    11     9    1
     2     8     9    2
     3     8     7    1
     4     1     2    1
     5     9    10    1
     6     6     7    1
     7     6     5    1
     8    12     3   ar
     9     2     5    1
    10     2     3    1
    11     3     4   ar
