@<TRIPOS>MOLECULE
1b4d_IMP_A_1.pdb
 23 25 0 0 0
SMALL
GASTEIGER

@<TRIPOS>ATOM
      1  P         30.8520    1.8230   50.7400 P.3   930  IMP930      0.5327
      2  O1P       31.0430    1.3760   49.3160 O.2   930  IMP930     -0.2224
      3  O2P       30.3140    3.2360   50.7950 O.3   930  IMP930     -0.1145
      4  O3P       32.0760    1.6720   51.5250 O.3   930  IMP930     -0.1145
      5  O5'       29.6820    0.9420   51.3760 O.3   930  IMP930     -0.2675
      6  C5'       28.9970   -0.0850   50.5700 C.3   930  IMP930      0.1860
      7  C4'       27.8610   -0.8790   51.3620 C.3   930  IMP930      0.1823
      8  O4'       28.4890   -2.1920   51.5320 O.3   930  IMP930     -0.3135
      9  C3'       27.5980   -0.5200   52.8160 C.3   930  IMP930      0.2184
     10  O3'       26.5650    0.4660   52.9490 O.3   930  IMP930     -0.2174
     11  C2'       27.0570   -1.8910   53.3320 C.3   930  IMP930      0.2570
     12  O2'       25.7820   -2.3130   52.8210 O.3   930  IMP930     -0.2130
     13  C1'       28.0570   -2.8500   52.7430 C.3   930  IMP930      0.3186
     14  N9        29.2850   -3.0870   53.6120 N.pl3 930  IMP930     -0.1435
     15  C8        30.3840   -2.3010   53.6060 C.3   930  IMP930      0.3382
     16  N7        31.3250   -2.8080   54.5550 N.2   930  IMP930     -0.2054
     17  C5        30.6640   -3.9170   55.1020 C.2   930  IMP930      0.2446
     18  C6        31.2020   -4.7970   56.1280 C.1   930  IMP930      0.1792
     19  O6        32.2840   -4.7410   56.7000 O.2   930  IMP930     -0.2203
     20  N1        30.2440   -5.7910   56.3830 N.2   930  IMP930     -0.1458
     21  C2        28.9860   -5.9030   55.7570 C.3   930  IMP930      0.4017
     22  N3        28.5780   -5.0750   54.8520 N.2   930  IMP930     -0.0334
     23  C4        29.4450   -4.1150   54.5380 C.2   930  IMP930      0.3528
@<TRIPOS>BOND
     1     2     1    2
     2     6     7    1
     3     6     5    1
     4     1     3    1
     5     1     5    1
     6     1     4    1
     7     7     8    1
     8     7     9    1
     9     8    13    1
    10    13    11    1
    11    13    14    1
    12     9    10    1
    13     9    11    1
    14    12    11    1
    15    15    14    1
    16    15    16    1
    17    14    23    1
    18    23    22    2
    19    23    17    1
    20    16    17    2
    21    22    21    1
    22    17    18    1
    23    21    20    1
    24    18    20    2
    25    18    19    2
