@<TRIPOS>MOLECULE
1b4d_CRA_A_1.pdb
 19 19 0 0 0
SMALL
GASTEIGER

@<TRIPOS>ATOM
      1  N1        33.3630   25.2410   28.1040 N.am  998  CRA998     -0.0841
      2  C2        33.9560   23.1370   25.8820 C.3   998  CRA998      0.2374
      3  O2        34.1310   24.4680   25.5230 O.3   998  CRA998     -0.2153
      4  C4        32.3710   21.1550   25.6640 C.3   998  CRA998      0.2144
      5  C5        32.2940   21.0510   27.2240 C.3   998  CRA998      0.1831
      6  C6        32.1090   19.6110   27.6020 C.3   998  CRA998      0.2142
      7  C1        33.9520   22.9090   27.4640 C.3   998  CRA998      0.2773
      8  C3        32.6680   22.6480   25.2640 C.3   998  CRA998      0.2194
      9  O3        32.7830   22.7610   23.8650 O.3   998  CRA998     -0.2174
     10  O4        31.1550   20.7510   25.0820 O.3   998  CRA998     -0.2176
     11  O5        33.5270   21.5500   27.8120 O.3   998  CRA998     -0.3280
     12  N2        35.3250   22.9710   27.9110 N.am  998  CRA998     -0.1337
     13  O6        33.2170   18.8720   27.1250 O.3   998  CRA998     -0.2176
     14  C7        35.7640   23.3140   29.1180 C.2   998  CRA998      0.4237
     15  O7        35.0150   23.5810   30.0650 O.2   998  CRA998     -0.2245
     16  C8        37.6990   23.6180   30.5550 C.3   998  CRA998      0.2574
     17  O8        37.1620   23.3150   29.2510 O.3   998  CRA998     -0.4294
     18  C9        33.0630   23.9520   28.2370 C.2   998  CRA998      0.3077
     19  O9        31.9930   23.5720   28.7320 O.2   998  CRA998     -0.2671
@<TRIPOS>BOND
     1     9     8    1
     2    10     4    1
     3     8     4    1
     4     8     2    1
     5     3     2    1
     6     4     5    1
     7     2     7    1
     8    13     6    1
     9     5     6    1
    10     5    11    1
    11     7    11    1
    12     7    12    1
    13     7    18    1
    14    12    14   am
    15     1    18   am
    16    18    19    2
    17    14    17    1
    18    14    15    2
    19    17    16    1
