@<TRIPOS>MOLECULE
1b4d_PLP_A_1.pdb
 15 15 0 0 0
SMALL
GASTEIGER

@<TRIPOS>ATOM
      1  N1        24.5070   25.7550   30.0420 N.ar  999  PLP999     -0.2452
      2  C2        23.4440   24.9810   30.3000 C.ar  999  PLP999      0.0978
      3  C2A       22.4620   25.5090   31.3580 C.3   999  PLP999      0.0555
      4  C3        23.2800   23.8390   29.5790 C.ar  999  PLP999      0.2049
      5  O3        22.1110   23.0150   29.7430 O.3   999  PLP999     -0.2857
      6  C4        24.2530   23.5390   28.6120 C.ar  999  PLP999      0.0182
      7  C4A       24.1270   22.3070   27.8420 C.3   999  PLP999      0.0342
      8  C5        25.3670   24.3540   28.3710 C.ar  999  PLP999      0.0261
      9  C6        25.4490   25.4730   29.1070 C.ar  999  PLP999      0.0965
     10  C5A       26.4690   24.0490   27.2190 C.3   999  PLP999      0.1815
     11  O4P       25.8410   24.5410   26.0060 O.3   999  PLP999     -0.2653
     12  P         26.7500   24.7960   24.7190 P.3   999  PLP999      0.5329
     13  O1P       25.8130   25.5240   23.8280 O.2   999  PLP999     -0.2224
     14  O2P       27.8150   25.7510   25.3460 O.3   999  PLP999     -0.1145
     15  O3P       27.3890   23.5600   24.3290 O.3   999  PLP999     -0.1145
@<TRIPOS>BOND
     1    13    12    2
     2    15    12    1
     3    12    14    1
     4    12    11    1
     5    11    10    1
     6    10     8    1
     7     7     6    1
     8     8     6   ar
     9     8     9   ar
    10     6     4   ar
    11     9     1   ar
    12     4     5    1
    13     4     2   ar
    14     1     2   ar
    15     2     3    1
