@<TRIPOS>MOLECULE
1b4h_III_B_1.pdb
 26 25 0 0 0
SMALL
GASTEIGER

@<TRIPOS>ATOM
      1  N          6.9040   16.5060   15.2410 N.3     1  LYS1       -0.1231
      2  CA         6.4100   17.7980   14.6260 C.3     1  LYS1        0.1693
      3  C          5.1890   18.2950   15.3860 C.2     1  LYS1        0.2592
      4  O          4.4070   17.5010   15.9320 O.2     1  LYS1       -0.2718
      5  CB         6.1910   17.6980   13.1300 C.3     1  LYS1        0.0285
      6  CG         5.1980   16.6440   12.6470 C.3     1  LYS1        0.0035
      7  CD         5.1970   16.5160   11.1200 C.3     1  LYS1        0.0206
      8  CE         6.4830   15.8710   10.5660 C.3     1  LYS1        0.1093
      9  NZ         6.5800   14.4150   10.9420 N.3     1  LYS1       -0.1314
     10  N          5.0230   19.6170   15.4400 N.am    2  ALA2       -0.1965
     11  CA         3.9130   20.2380   16.1670 C.3     2  ALA2        0.1742
     12  C          2.6180   20.2370   15.3780 C.2     2  ALA2        0.2617
     13  O          2.6140   20.4860   14.1800 O.2     2  ALA2       -0.2715
     14  CB         4.2460   21.7250   16.4190 C.3     2  ALA2        0.0516
     15  CG         5.3280   21.7390   17.5140 C.3     2  ALA2        0.1116
     16  ND         4.8950   21.6090   18.8560 N.3     2  ALA2       -0.1313
     17  N          1.5270   19.8830   16.0720 N.am    3  LYS3       -0.1942
     18  CA         0.2520   19.8540   15.4020 C.3     3  LYS3        0.1978
     19  C         -0.7500   20.7010   16.2050 C.2     3  LYS3        0.3842
     20  O         -1.7660   21.0200   15.5720 O.co2   3  LYS3       -0.2437
     21  CB        -0.3560   18.4420   15.2850 C.3     3  LYS3        0.0333
     22  CG        -1.3050   18.4360   14.0740 C.3     3  LYS3        0.0039
     23  CD        -2.2080   17.2240   14.1400 C.3     3  LYS3        0.0206
     24  CE        -2.6000   16.7050   12.7880 C.3     3  LYS3        0.1093
     25  NZ        -3.6240   17.4370   12.0800 N.3     3  LYS3       -0.1314
     26  OXT       -0.5670   21.0090   17.3870 O.co2   3  LYS3       -0.2437
@<TRIPOS>BOND
     1     8     9    1
     2     8     7    1
     3     7     6    1
     4    25    24    1
     5     6     5    1
     6    24    23    1
     7     5     2    1
     8    22    23    1
     9    22    21    1
    10    13    12    2
    11     2     1    1
    12     2     3    1
    13    21    18    1
    14    12    17   am
    15    12    11    1
    16     3    10   am
    17     3     4    2
    18    18    17    1
    19    18    19    1
    20    10    11    1
    21    20    19   ar
    22    11    14    1
    23    19    26   ar
    24    14    15    1
    25    15    16    1
