@<TRIPOS>MOLECULE
1b4n_PTE_A_1.pdb
 50 58 0 0 0
SMALL
GASTEIGER

@<TRIPOS>ATOM
      1  C1        60.7460   72.5610  129.5440 C.3   623  PTE623      0.0000
      2  C2        60.7420   73.6830  128.4900 C.3   623  PTE623      0.0000
      3  C3        59.6180   74.7450  128.1940 C.3   623  PTE623      0.0000
      4  S3        58.6730   75.2370  129.5660 S.3   623  PTE623      0.0000
      5  C4        59.1680   75.0070  126.8520 C.3   623  PTE623      0.0000
      6  S4        57.5480   75.5180  126.5060 S.3   623  PTE623      0.0000
      7  W1        56.6270   76.2010  128.7560 W     623  PTE623      0.0000
      8  C5        59.8000   74.1960  125.7130 C.3   623  PTE623      0.0000
      9  N6        59.1690   72.9620  125.1530 N.2   623  PTE623      0.0000
     10  C7        59.6150   72.4300  123.9900 C.2   623  PTE623      0.0000
     11  C8        58.8350   72.0390  122.8630 C.1   623  PTE623      0.0000
     12  O8        57.4790   72.2140  122.9460 O.2   623  PTE623      0.0000
     13  N9        59.4490   71.5870  121.7240 N.2   623  PTE623      0.0000
     14  C10       60.8150   71.5650  121.5810 C.1   623  PTE623      0.0000
     15  N10       61.4350   70.9960  120.5530 N.pl3 623  PTE623      0.0000
     16  N11       61.5910   72.0870  122.5790 N.2   623  PTE623      0.0000
     17  C12       61.0520   72.4690  123.7690 C.1   623  PTE623      0.0000
     18  N13       61.7760   73.2320  124.6320 N.2   623  PTE623      0.0000
     19  C14       61.2720   73.6730  125.9520 C.2   623  PTE623      0.0000
     20  O2        61.2500   73.2140  127.2750 O.2   623  PTE623      0.0000
     21  C21       55.1710   71.4070  128.3790 C.3   623  PTE623      0.0000
     22  C22       54.2770   72.2770  129.2540 C.3   623  PTE623      0.0000
     23  C23       55.1360   73.5460  129.3910 C.3   623  PTE623      0.0000
     24  S23       54.7950   74.7730  128.2140 S.3   623  PTE623      0.0000
     25  C24       55.5410   73.8630  130.7120 C.3   623  PTE623      0.0000
     26  S24       56.1840   75.3910  131.0480 S.3   623  PTE623      0.0000
     27  C25       55.1980   73.0780  131.9900 C.3   623  PTE623      0.0000
     28  N26       56.2670   72.1700  132.4320 N.2   623  PTE623      0.0000
     29  C27       56.1250   71.1730  133.3660 C.2   623  PTE623      0.0000
     30  C28       57.1870   70.4950  133.9910 C.1   623  PTE623      0.0000
     31  O28       58.4970   70.8850  133.7680 O.2   623  PTE623      0.0000
     32  N29       56.9000   69.4870  134.8530 N.2   623  PTE623      0.0000
     33  C30       55.6450   69.1500  135.2890 C.1   623  PTE623      0.0000
     34  N30       55.5320   68.4090  136.3960 N.pl3 623  PTE623      0.0000
     35  N31       54.5790   69.6630  134.5900 N.2   623  PTE623      0.0000
     36  C32       54.7810   70.6990  133.7020 C.1   623  PTE623      0.0000
     37  N33       53.7530   71.3760  133.0810 N.2   623  PTE623      0.0000
     38  C34       53.9670   72.1510  131.8180 C.3   623  PTE623      0.0000
     39  O22       54.0770   71.6540  130.5010 O.3   623  PTE623      0.0000
     40  P1        61.6450   70.1180  129.6450 P.3   623  PTE623      0.0000
     41  O1P       60.6840   69.7600  128.3910 O.3   623  PTE623      0.0000
     42  O2P       63.1260   69.5320  129.5830 O.2   623  PTE623     -0.5000
     43  O3P       60.9840   69.6140  130.8860 O.3   623  PTE623     -0.5000
     44  O4P       61.9010   71.6850  129.5470 O.3   623  PTE623      0.0000
     45  P2        55.4960   69.1410  127.4560 P.3   623  PTE623      0.0000
     46  O5P       56.7730   68.7530  128.3260 O.3   623  PTE623      0.0000
     47  O6P       54.4960   67.9010  127.2230 O.3   623  PTE623     -0.5000
     48  O7P       56.0250   69.7520  126.2030 O.2   623  PTE623     -0.5000
     49  O8P       54.5620   70.1430  128.2480 O.3   623  PTE623      0.0000
     50 MG1        58.7420   69.2040  128.2640 Mg    623  PTE623      0.0000
@<TRIPOS>BOND
     1    15    14    1
     2    14    13    2
     3    14    16    2
     4    13    11    2
     5    16    17    2
     6    11    12    2
     7    11    10    1
     8    17    10    1
     9    17    18    2
    10    10     9    2
    11    18    19    2
    12     9     8    1
    13     8    19    1
    14     8     5    1
    15    19    20    1
    16    48    45    2
    17     6     5    1
    18     6     7    1
    19     5     3    1
    20    47    45    1
    21    20     2    1
    22    45    49    1
    23    45    46    1
    24     3     2    1
    25     3     4    1
    26    24     7    1
    27    24    23    1
    28    49    21    1
    29    50    46    1
    30    50    41    1
    31    21    22    1
    32    41    40    1
    33     2     1    1
    34     7     4    1
    35     7    26    1
    36    22    23    1
    37    22    39    1
    38    23    25    1
    39     1    44    1
    40    44    40    1
    41    42    40    2
    42    40    43    1
    43    39    38    1
    44    25    26    1
    45    25    27    1
    46    38    27    1
    47    38    37    1
    48    27    28    1
    49    28    29    2
    50    37    36    2
    51    29    36    1
    52    29    30    1
    53    36    35    2
    54    31    30    2
    55    30    32    2
    56    35    33    2
    57    32    33    2
    58    33    34    1
