@<TRIPOS>MOLECULE
1b4p_GPS_A_1.pdb
 35 37 0 0 0
SMALL
GASTEIGER

@<TRIPOS>ATOM
      1  C1        29.4760   22.1100   22.0410 C.2   218  GPS218      0.3819
      2  N1        31.0540   21.2160   20.3260 N.3   218  GPS218     -0.1208
      3  C2        24.4100   16.5510   22.5200 C.2   218  GPS218      0.2626
      4  N2        26.2840   18.0470   22.5420 N.am  218  GPS218     -0.1969
      5  O2        23.8410   15.6240   23.0920 O.2   218  GPS218     -0.2714
      6  C3        22.4120   16.4400   19.7360 C.2   218  GPS218      0.3865
      7  N3        24.0250   17.2350   21.4200 N.am  218  GPS218     -0.1917
      8  O5        28.7980   13.2580   25.1290 O.3   218  GPS218     -0.2170
      9  O11       28.4940   22.7740   22.4190 O.co2 218  GPS218     -0.2441
     10  O12       30.6360   22.5220   22.6460 O.co2 218  GPS218     -0.2441
     11  O31       23.4140   15.7880   19.2770 O.co2 218  GPS218     -0.2437
     12  O32       21.2330   16.2710   19.1950 O.co2 218  GPS218     -0.2437
     13  CA1       29.6360   21.0960   20.9570 C.3   218  GPS218      0.1948
     14  CA2       25.8860   16.7120   23.0040 C.3   218  GPS218      0.1834
     15  CA3       22.5770   17.1260   21.0410 C.3   218  GPS218      0.2285
     16  CA4       28.5630   15.8260   25.2430 C.3   218  GPS218      0.1044
     17  CA5       27.9080   14.4130   25.2860 C.3   218  GPS218      0.1881
     18  CB1       29.4670   19.6110   21.3690 C.3   218  GPS218      0.0402
     19  CB2       25.8940   16.7710   24.5890 C.3   218  GPS218      0.0890
     20  CB4       29.4610   15.7520   26.5120 C.ar  218  GPS218     -0.0097
     21  CB5       27.1780   14.2850   26.5820 C.ar  218  GPS218      0.0089
     22  CD1       27.5350   18.1600   21.9650 C.2   218  GPS218      0.2418
     23  CD4       31.6090   16.2850   27.4770 C.ar  218  GPS218     -0.0003
     24  CD5       25.1260   13.6510   27.7070 C.ar  218  GPS218     -0.0002
     25  OE1       28.3150   17.1920   21.8070 O.2   218  GPS218     -0.2733
     26  CE4       31.1620   15.8400   28.7600 C.ar  218  GPS218     -0.0000
     27  CE5       25.6730   14.1440   28.9210 C.ar  218  GPS218     -0.0000
     28  CG1       27.9470   19.5360   21.6860 C.3   218  GPS218      0.0889
     29  SG2       27.4950   17.1840   25.2220 S.3   218  GPS218     -0.1314
     30  CG4       30.7690   16.2880   26.3850 C.ar  218  GPS218     -0.0034
     31  CG5       25.8680   13.7110   26.5090 C.ar  218  GPS218     -0.0018
     32  CH4       29.0220   15.2730   27.7500 C.ar  218  GPS218     -0.0033
     33  CH5       27.7020   14.7540   27.7560 C.ar  218  GPS218     -0.0018
     34  CZ4       29.8800   15.2900   28.8690 C.ar  218  GPS218     -0.0003
     35  CZ5       26.9520   14.6560   28.9660 C.ar  218  GPS218     -0.0002
@<TRIPOS>BOND
     1    12     6   ar
     2    11     6   ar
     3     6    15    1
     4     2    13    1
     5    13    18    1
     6    13     1    1
     7    15     7    1
     8    18    28    1
     9     7     3   am
    10    28    22    1
    11    25    22    2
    12    22     4   am
    13     1     9   ar
    14     1    10   ar
    15     3    14    1
    16     3     5    2
    17     4    14    1
    18    14    19    1
    19    19    29    1
    20     8    17    1
    21    29    16    1
    22    16    17    1
    23    16    20    1
    24    17    21    1
    25    30    20   ar
    26    30    23   ar
    27    31    21   ar
    28    31    24   ar
    29    20    32   ar
    30    21    33   ar
    31    23    26   ar
    32    24    27   ar
    33    32    33    1
    34    32    34   ar
    35    33    35   ar
    36    26    34   ar
    37    27    35   ar
