@<TRIPOS>MOLECULE
1b4q_GSH_A_1.pdb
 35 34 0 0 0
SMALL
GASTEIGER

@<TRIPOS>ATOM
      1  N1        14.4020   27.5460   19.8200 N.4   106  GSH106      0.3871
      2  CA1       14.1600   28.6200   18.8150 C.3   106  GSH106      0.0209
      3  C1        13.8270   27.9960   17.4570 C.2   106  GSH106      0.3420
      4  O11       13.0670   28.6030   16.7190 O.co2 106  GSH106     -0.2483
      5  O12       14.3410   26.9260   17.1760 O.co2 106  GSH106     -0.2483
      6  CB1       15.4220   29.4740   18.6870 C.3   106  GSH106     -0.0477
      7  CG1       15.8590   29.9640   20.0750 C.3   106  GSH106      0.0230
      8  CD1       16.0330   31.4880   20.0840 C.2   106  GSH106      0.2136
      9  OE1       16.6280   32.0650   19.1980 O.2   106  GSH106     -0.2758
     10  N2        15.5820   32.1310   21.1250 N.am  106  GSH106     -0.3032
     11  CA2       15.8960   33.5770   21.3080 C.3   106  GSH106      0.1091
     12  C2        15.2930   34.4190   20.1780 C.2   106  GSH106      0.2346
     13  O2        15.3580   34.0490   19.0260 O.2   106  GSH106     -0.2737
     14  CB2       17.4170   33.7500   21.3200 C.3   106  GSH106      0.0309
     15  SG2       18.1860   32.2120   21.8930 S.3   106  GSH106     -0.0907
     16  N3        15.0170   35.6640   20.4710 N.am  106  GSH106     -0.3031
     17  CA3       14.6750   36.6430   19.3970 C.3   106  GSH106      0.1133
     18  C3        14.9480   38.0630   19.9030 C.2   106  GSH106      0.3727
     19  O31       15.6970   38.1970   20.8570 O.co2 106  GSH106     -0.2446
     20  O32       14.4380   38.9960   19.3010 O.co2 106  GSH106     -0.2446
     21 HN11       15.3970   27.2450   19.7700 H     106  GSH106     -0.0889
     22 HN12       14.1990   27.9110   20.7730 H     106  GSH106     -0.0889
     23  HA1       13.3380   29.2390   19.1400 H     106  GSH106      0.0198
     24 HB12       16.2150   28.8760   18.2520 H     106  GSH106      0.0259
     25 HB13       15.2210   30.3200   18.0510 H     106  GSH106      0.0259
     26 HG12       15.1140   29.6870   20.8080 H     106  GSH106      0.0358
     27 HG13       16.8000   29.5010   20.3320 H     106  GSH106      0.0358
     28  HN2       15.1550   31.6320   21.8520 H     106  GSH106      0.1495
     29  HA2       15.4950   33.9100   22.2520 H     106  GSH106      0.0603
     30 HB22       17.7640   33.9740   20.3210 H     106  GSH106      0.0407
     31 HB23       17.6850   34.5570   21.9840 H     106  GSH106      0.0407
     32  HN3       15.0810   35.9690   21.4000 H     106  GSH106      0.1493
     33 HA31       13.6310   36.5540   19.1400 H     106  GSH106      0.0579
     34 HA32       15.2800   36.4490   18.5220 H     106  GSH106      0.0579
     35 HN13       13.7840   26.7350   19.6190 H     106  GSH106     -0.0889
@<TRIPOS>BOND
     1     4     3   ar
     2     5     3   ar
     3     3     2    1
     4    25     6    1
     5    24     6    1
     6    34    17    1
     7     6     2    1
     8     6     7    1
     9     2    23    1
    10     2     1    1
    11    13    12    2
    12    33    17    1
    13     9     8    2
    14    20    18   ar
    15    17    18    1
    16    17    16    1
    17    35     1    1
    18    21     1    1
    19     1    22    1
    20    18    19   ar
    21     7     8    1
    22     7    27    1
    23     7    26    1
    24     8    10   am
    25    12    16   am
    26    12    11    1
    27    30    14    1
    28    16    32    1
    29    10    11    1
    30    10    28    1
    31    11    14    1
    32    11    29    1
    33    14    15    1
    34    14    31    1
