@<TRIPOS>MOLECULE
1b4s_ADP_A_1.pdb
 27 29 0 0 0
SMALL
GASTEIGER

@<TRIPOS>ATOM
      1  PB        65.2280   28.7070    0.3250 P.3   160  ADP160      0.5373
      2  O1B       65.9840   27.5310   -0.2530 O.2   160  ADP160     -0.2221
      3  O2B       63.7490   28.5630    0.1880 O.3   160  ADP160     -0.1143
      4  O3B       65.5940   29.0520    1.7190 O.3   160  ADP160     -0.1143
      5  PA        66.6370   30.2420   -1.7900 P.3   160  ADP160      0.2231
      6  O1A       67.6170   29.1270   -1.7490 O.3   160  ADP160     -0.4370
      7  O2A       65.7850   30.4830   -2.9740 O.2   160  ADP160     -0.5169
      8  O3A       65.6490   30.0290   -0.5320 O.3   160  ADP160     -0.2261
      9  O5'       67.3900   31.6260   -1.4430 O.3   160  ADP160     -0.3111
     10  C5'       68.3760   31.7100   -0.4290 C.3   160  ADP160      0.1813
     11  C4'       68.0350   32.7810    0.5100 C.3   160  ADP160      0.1821
     12  O4'       67.9880   33.9300   -0.2610 O.3   160  ADP160     -0.3135
     13  C3'       66.5430   32.8190    0.9400 C.3   160  ADP160      0.2184
     14  O3'       65.9180   31.7920    1.6680 O.3   160  ADP160     -0.2174
     15  C2'       66.2820   34.2080    1.4390 C.3   160  ADP160      0.2570
     16  O2'       66.9610   34.7520    2.6240 O.3   160  ADP160     -0.2130
     17  C1'       66.8840   34.7360    0.1850 C.3   160  ADP160      0.3186
     18  N9        65.8100   34.9070   -0.7780 N.pl3 160  ADP160     -0.1439
     19  C8        65.2840   34.0610   -1.7210 C.3   160  ADP160      0.3377
     20  N7        64.5190   34.7060   -2.5430 N.2   160  ADP160     -0.2095
     21  C5        64.7240   36.0720   -2.2720 C.2   160  ADP160      0.2526
     22  C6        64.2270   37.3000   -2.8250 C.2   160  ADP160      0.4393
     23  N6        63.4040   37.3820   -3.8740 N.pl3 160  ADP160      0.2180
     24  N1        64.5090   38.4480   -2.2040 N.2   160  ADP160      0.0021
     25  C2        65.2140   38.4080   -1.0830 C.3   160  ADP160      0.5254
     26  N3        65.8100   37.3720   -0.5090 N.2   160  ADP160     -0.0055
     27  C4        65.4240   36.1950   -1.1230 C.2   160  ADP160      0.3518
@<TRIPOS>BOND
     1    23    22    1
     2     7     5    2
     3    22    21    1
     4    22    24    2
     5    20    21    2
     6    20    19    1
     7    21    27    1
     8    24    25    1
     9     5     6    1
    10     5     9    1
    11     5     8    1
    12    19    18    1
    13     9    10    1
    14    27    18    1
    15    27    26    2
    16    25    26    1
    17    18    17    1
    18     8     1    1
    19    10    11    1
    20    12    17    1
    21    12    11    1
    22     2     1    2
    23    17    15    1
    24     3     1    1
    25     1     4    1
    26    11    13    1
    27    13    15    1
    28    13    14    1
    29    15    16    1
