@<TRIPOS>MOLECULE
1b4u_DHB_B_1.pdb
 11 11 0 0 0
SMALL
GASTEIGER

@<TRIPOS>ATOM
      1  C1        49.8160   51.5840    1.7880 C.ar  503  DHB503      0.0832
      2  C2        49.5250   52.7200    2.5170 C.ar  503  DHB503      0.0520
      3  C3        49.8740   52.7390    3.8710 C.ar  503  DHB503      0.2345
      4  O3        49.5860   53.8330    4.6630 O.3   503  DHB503     -0.2831
      5  C4        50.4780   51.6080    4.4170 C.ar  503  DHB503      0.2343
      6  O4        50.8560   51.6570    5.7240 O.3   503  DHB503     -0.2831
      7  C5        50.7310   50.4500    3.6730 C.ar  503  DHB503      0.0456
      8  C6        50.3930   50.4350    2.3350 C.ar  503  DHB503      0.0101
      9  C         49.5700   51.6390    0.3680 C.2   503  DHB503      0.3879
     10  O1        48.9890   52.5090   -0.1740 O.co2 503  DHB503     -0.2406
     11  O2        49.9540   50.6260   -0.3900 O.co2 503  DHB503     -0.2406
@<TRIPOS>BOND
     1    11     9   ar
     2    10     9   ar
     3     9     1    1
     4     1     8   ar
     5     1     2   ar
     6     8     7   ar
     7     2     3   ar
     8     7     5   ar
     9     3     5   ar
    10     3     4    1
    11     5     6    1
