@<TRIPOS>MOLECULE
1b4w_BOG_A_1.pdb
 20 20 0 0 0
SMALL
GASTEIGER

@<TRIPOS>ATOM
      1  C1        35.9490   -7.7200   14.5060 C.3   200  BOG200      0.2695
      2  O1        35.8170   -7.9150   13.1390 O.3   200  BOG200     -0.3286
      3  C2        35.4620   -6.3200   14.8760 C.3   200  BOG200      0.2406
      4  O2        36.2510   -5.3460   14.2010 O.3   200  BOG200     -0.2149
      5  C3        35.5560   -6.1190   16.3980 C.3   200  BOG200      0.2198
      6  O3        34.9550   -4.8790   16.7530 O.3   200  BOG200     -0.2174
      7  C4        34.8560   -7.2630   17.1550 C.3   200  BOG200      0.2144
      8  O4        35.1390   -7.1650   18.5510 O.3   200  BOG200     -0.2176
      9  C5        35.3270   -8.6300   16.6290 C.3   200  BOG200      0.1835
     10  O5        35.1590   -8.7030   15.1930 O.3   200  BOG200     -0.3256
     11  C6        34.5650   -9.7980   17.2420 C.3   200  BOG200      0.2142
     12  O6        34.2490  -10.7890   16.2720 O.3   200  BOG200     -0.2176
     13  C1'       36.3450   -9.1410   12.5940 C.3   200  BOG200      0.1449
     14  C2'       36.1850   -9.1370   11.0720 C.3   200  BOG200      0.0322
     15  C3'       37.0520   -8.0390   10.4610 C.3   200  BOG200      0.0026
     16  C4'       36.9320   -8.0240    8.9400 C.3   200  BOG200      0.0001
     17  C5'       37.7800   -6.8920    8.3490 C.3   200  BOG200      0.0000
     18  C6'       37.1440   -5.5270    8.6130 C.3   200  BOG200      0.0000
     19  C7'       38.1370   -4.4000    8.3320 C.3   200  BOG200      0.0000
     20  C8'       37.5120   -3.0360    8.6540 C.3   200  BOG200      0.0000
@<TRIPOS>BOND
     1    19    18    1
     2    19    20    1
     3    17    18    1
     4    17    16    1
     5    16    15    1
     6    15    14    1
     7    14    13    1
     8    13     2    1
     9     2     1    1
    10     4     3    1
    11     1     3    1
    12     1    10    1
    13     3     5    1
    14    10     9    1
    15    12    11    1
    16     5     6    1
    17     5     7    1
    18     9     7    1
    19     9    11    1
    20     7     8    1
