@<TRIPOS>MOLECULE
1b4x_PLP_A_1.pdb
 15 15 0 0 0
SMALL
GASTEIGER

@<TRIPOS>ATOM
      1  N1        26.7350   -5.1770   15.1550 N.ar  458  PLP458     -0.2452
      2  C2        26.2470   -6.2670   15.7760 C.ar  458  PLP458      0.0978
      3  C2A       26.8930   -6.7480   17.1100 C.3   458  PLP458      0.0555
      4  C3        25.1600   -6.8710   15.2660 C.ar  458  PLP458      0.2049
      5  O3        24.6480   -7.9810   15.8840 O.3   458  PLP458     -0.2857
      6  C4        24.5800   -6.4190   14.0920 C.ar  458  PLP458      0.0182
      7  C4A       23.3410   -7.1720   13.5640 C.3   458  PLP458      0.0342
      8  C5        25.1070   -5.2890   13.4710 C.ar  458  PLP458      0.0261
      9  C6        26.1990   -4.7020   14.0090 C.ar  458  PLP458      0.0965
     10  C5A       24.5520   -4.6730   12.1610 C.3   458  PLP458      0.1815
     11  O4P       23.6580   -5.3760   11.3080 O.3   458  PLP458     -0.2653
     12  P         23.0490   -4.6720   10.0200 P.3   458  PLP458      0.5329
     13  O1P       22.4440   -3.4950   10.5750 O.3   458  PLP458     -0.1145
     14  O2P       22.0350   -5.8170    9.5800 O.3   458  PLP458     -0.1145
     15  O3P       24.0240   -4.5470    8.9650 O.2   458  PLP458     -0.2224
@<TRIPOS>BOND
     1    15    12    2
     2    14    12    1
     3    12    13    1
     4    12    11    1
     5    11    10    1
     6    10     8    1
     7     8     9   ar
     8     8     6   ar
     9     7     6    1
    10     9     1   ar
    11     6     4   ar
    12     1     2   ar
    13     4     2   ar
    14     4     5    1
    15     2     3    1
