@<TRIPOS>MOLECULE
1b4z_III_B_1.pdb
 27 26 0 0 0
SMALL
GASTEIGER

@<TRIPOS>ATOM
      1  N          6.8430   16.4610   15.1510 N.3     1  LYS1       -0.1231
      2  CA         6.3600   17.7530   14.5610 C.3     1  LYS1        0.1693
      3  C          5.1230   18.2170   15.3170 C.2     1  LYS1        0.2592
      4  O          4.3410   17.3900   15.8060 O.2     1  LYS1       -0.2718
      5  CB         6.1290   17.6090   13.0430 C.3     1  LYS1        0.0285
      6  CG         5.1650   16.5030   12.6280 C.3     1  LYS1        0.0035
      7  CD         5.0720   16.4120   11.0800 C.3     1  LYS1        0.0206
      8  CE         6.3360   15.7660   10.4920 C.3     1  LYS1        0.1093
      9  NZ         6.5170   14.3530   10.9100 N.3     1  LYS1       -0.1314
     10  N          4.9300   19.5190   15.4010 N.am    2  ASP2       -0.1960
     11  CA         3.7770   20.0580   16.1510 C.3     2  ASP2        0.1840
     12  C          2.5030   20.0030   15.3290 C.2     2  ASP2        0.2623
     13  O          2.5070   20.2760   14.1350 O.2     2  ASP2       -0.2715
     14  CB         4.0510   21.5350   16.4890 C.3     2  ASP2        0.1450
     15  CG         4.9830   21.6400   17.6930 C.2     2  ASP2        0.3671
     16  OD1        4.7230   21.1780   18.8070 O.co2   2  ASP2       -0.2456
     17  OD2        6.0800   22.1670   17.4940 O.co2   2  ASP2       -0.2456
     18  N          1.3980   19.5840   15.9740 N.am    3  LYS3       -0.1941
     19  CA         0.1230   19.5560   15.2960 C.3     3  LYS3        0.1978
     20  C         -0.9150   20.3790   16.0710 C.2     3  LYS3        0.3842
     21  O         -1.8880   20.7810   15.3890 O.co2   3  LYS3       -0.2437
     22  CB        -0.4060   18.1220   15.1890 C.3     3  LYS3        0.0333
     23  CG        -1.4530   18.1470   14.0330 C.3     3  LYS3        0.0039
     24  CD        -2.1310   16.7980   14.0290 C.3     3  LYS3        0.0206
     25  CE        -3.4120   16.8340   13.1800 C.3     3  LYS3        0.1093
     26  NZ        -2.9850   16.6100   11.7730 N.3     3  LYS3       -0.1314
     27  OXT       -0.6910   20.7590   17.2370 O.co2   3  LYS3       -0.2437
@<TRIPOS>BOND
     1     8     9    1
     2     8     7    1
     3     7     6    1
     4    26    25    1
     5     6     5    1
     6     5     2    1
     7    25    24    1
     8    24    23    1
     9    23    22    1
    10    13    12    2
    11     2     1    1
    12     2     3    1
    13    22    19    1
    14    19    18    1
    15    19    20    1
    16     3    10   am
    17     3     4    2
    18    12    18   am
    19    12    11    1
    20    21    20   ar
    21    10    11    1
    22    20    27   ar
    23    11    14    1
    24    14    15    1
    25    17    15   ar
    26    15    16   ar
