@<TRIPOS>MOLECULE
1b51_III_B_1.pdb
 25 24 0 0 0
SMALL
GASTEIGER

@<TRIPOS>ATOM
      1  N          6.8910   16.4790   15.0950 N.3     1  LYS1       -0.1231
      2  CA         6.3900   17.7900   14.5770 C.3     1  LYS1        0.1693
      3  C          5.1740   18.2680   15.3430 C.2     1  LYS1        0.2593
      4  O          4.4150   17.4750   15.8880 O.2     1  LYS1       -0.2718
      5  CB         6.1120   17.7260   13.0640 C.3     1  LYS1        0.0285
      6  CG         5.2320   16.5440   12.6860 C.3     1  LYS1        0.0035
      7  CD         5.1210   16.4580   11.1480 C.3     1  LYS1        0.0206
      8  CE         6.3950   15.8780   10.5460 C.3     1  LYS1        0.1093
      9  NZ         6.5490   14.4230   10.8820 N.3     1  LYS1       -0.1314
     10  N          5.0030   19.5780   15.4000 N.am    2  SER2       -0.1938
     11  CA         3.9490   20.2090   16.1900 C.3     2  SER2        0.2055
     12  C          2.6020   20.2310   15.5050 C.2     2  SER2        0.2644
     13  O          2.5430   20.5580   14.3230 O.2     2  SER2       -0.2714
     14  CB         4.4210   21.6540   16.4120 C.3     2  SER2        0.2130
     15  OG         3.8300   22.1840   17.5950 O.3     2  SER2       -0.2179
     16  N          1.4950   19.9330   16.2360 N.am    3  LYS3       -0.1941
     17  CA         0.2360   19.8690   15.5110 C.3     3  LYS3        0.1978
     18  C         -0.8680   20.6600   16.2440 C.2     3  LYS3        0.3842
     19  O         -0.7500   20.9240   17.4390 O.co2   3  LYS3       -0.2437
     20  CB        -0.3000   18.4420   15.3170 C.3     3  LYS3        0.0333
     21  CG        -1.3690   18.4670   14.1820 C.3     3  LYS3        0.0039
     22  CD        -1.9810   17.1150   13.9430 C.3     3  LYS3        0.0206
     23  CE        -2.9390   17.0470   12.7500 C.3     3  LYS3        0.1093
     24  NZ        -3.7030   18.3150   12.6290 N.3     3  LYS3       -0.1314
     25  OXT       -1.8020   21.0200   15.5080 O.co2   3  LYS3       -0.2437
@<TRIPOS>BOND
     1     8     9    1
     2     8     7    1
     3     7     6    1
     4    24    23    1
     5     6     5    1
     6    23    22    1
     7     5     2    1
     8    22    21    1
     9    21    20    1
    10    13    12    2
    11     2     1    1
    12     2     3    1
    13    20    17    1
    14     3    10   am
    15     3     4    2
    16    10    11    1
    17    12    11    1
    18    12    16   am
    19    25    18   ar
    20    17    16    1
    21    17    18    1
    22    11    14    1
    23    18    19   ar
    24    14    15    1
