@<TRIPOS>MOLECULE
1b52_III_B_1.pdb
 26 25 0 0 0
SMALL
GASTEIGER

@<TRIPOS>ATOM
      1  N          8.5460   31.6430   12.5700 N.3     1  LYS1       -0.1231
      2  CA         8.6540   33.0990   12.8650 C.3     1  LYS1        0.1693
      3  C          9.6220   33.8570   11.9360 C.2     1  LYS1        0.2593
      4  O         10.6870   33.3830   11.4410 O.2     1  LYS1       -0.2718
      5  CB         8.9700   33.3030   14.3830 C.3     1  LYS1        0.0285
      6  CG        10.3210   32.7220   14.7820 C.3     1  LYS1        0.0035
      7  CD        10.6790   32.8080   16.2700 C.3     1  LYS1        0.0206
      8  CE         9.8270   31.9030   17.1300 C.3     1  LYS1        0.1093
      9  NZ        10.2280   30.4530   16.9580 N.3     1  LYS1       -0.1314
     10  N          9.2240   35.1250   11.7480 N.am    2  THR2       -0.1939
     11  CA         9.9110   35.9830   10.8200 C.3     2  THR2        0.2028
     12  C         11.1750   36.5860   11.4360 C.2     2  THR2        0.2643
     13  O         11.0840   37.1320   12.5030 O.2     2  THR2       -0.2714
     14  CB         9.0780   37.1370   10.2500 C.3     2  THR2        0.1808
     15  OG1        8.4520   37.8700   11.3030 O.3     2  THR2       -0.2208
     16  CG2        7.9720   36.6750    9.3020 C.3     2  THR2        0.0379
     17  N         12.2760   36.5670   10.7210 N.am    3  LYS3       -0.1941
     18  CA        13.4830   37.2390   11.1340 C.3     3  LYS3        0.1978
     19  C         13.8510   38.3120   10.1360 C.2     3  LYS3        0.3842
     20  O         14.6420   39.2030   10.4880 O.co2   3  LYS3       -0.2437
     21  CB        14.7040   36.3080   11.2360 C.3     3  LYS3        0.0333
     22  CG        15.6240   36.7990   12.3910 C.3     3  LYS3        0.0039
     23  CD        16.8680   35.9170   12.3510 C.3     3  LYS3        0.0206
     24  CE        17.8000   36.0860   13.5760 C.3     3  LYS3        0.1093
     25  NZ        17.8600   37.5350   13.9730 N.3     3  LYS3       -0.1314
     26  OXT       13.5510   38.2660    8.9650 O.co2   3  LYS3       -0.2437
@<TRIPOS>BOND
     1    26    19   ar
     2    16    14    1
     3    19    20   ar
     4    19    18    1
     5    14    11    1
     6    14    15    1
     7    17    18    1
     8    17    12   am
     9    11    12    1
    10    11    10    1
    11    18    21    1
    12    21    22    1
    13    12    13    2
    14     4     3    2
    15    10     3   am
    16     3     2    1
    17    23    22    1
    18    23    24    1
    19     1     2    1
    20     2     5    1
    21    24    25    1
    22     5     6    1
    23     6     7    1
    24     7     8    1
    25     9     8    1
