@<TRIPOS>MOLECULE
1b54_PLP_A_1.pdb
 15 15 0 0 0
SMALL
GASTEIGER

@<TRIPOS>ATOM
      1  N1        18.9580   25.5390   16.6690 N.2   258  PLP258     -0.2505
      2  C2        20.0110   25.0980   17.4580 C.2   258  PLP258      0.0675
      3  C2A       20.6460   26.0710   18.5000 C.3   258  PLP258      0.0499
      4  C3        20.4670   23.7730   17.3180 C.3   258  PLP258      0.1913
      5  O3        21.3940   23.2780   18.2300 O.3   258  PLP258     -0.2167
      6  C4        19.8680   22.9020   16.3720 C.3   258  PLP258      0.0581
      7  C4A       20.5910   21.5400   16.0170 C.3   258  PLP258      0.0075
      8  C5        18.7440   23.3580   15.6300 C.2   258  PLP258      0.0073
      9  C6        18.3510   24.6630   15.7830 C.2   258  PLP258      0.0921
     10  C5A       17.7920   22.4270   14.7570 C.3   258  PLP258      0.1776
     11  O4P       16.8540   21.3770   15.2240 O.3   258  PLP258     -0.2656
     12  P         16.4730   20.1650   14.1320 P.3   258  PLP258      0.5329
     13  O1P       15.6990   20.7850   13.0400 O.2   258  PLP258     -0.2224
     14  O2P       15.5530   19.0010   14.6990 O.3   258  PLP258     -0.1145
     15  O3P       17.7670   19.5170   13.8090 O.3   258  PLP258     -0.1145
@<TRIPOS>BOND
     1    13    12    2
     2    15    12    1
     3    12    14    1
     4    12    11    1
     5    10    11    1
     6    10     8    1
     7     8     9    2
     8     8     6    1
     9     9     1    1
    10     7     6    1
    11     6     4    1
    12     1     2    2
    13     4     2    1
    14     4     5    1
    15     2     3    1
