@<TRIPOS>MOLECULE
1b55_4IP_A_1.pdb
 28 28 0 0 0
SMALL
GASTEIGER

@<TRIPOS>ATOM
      1  C1        -1.9790    4.5500   38.7310 C.3   171  4IP171      0.1917
      2  O1        -3.3050    4.6200   39.4460 O.3   171  4IP171     -0.2673
      3  C2        -0.8500    5.4250   39.1840 C.3   171  4IP171      0.2120
      4  O2        -1.0420    6.8380   38.8990 O.3   171  4IP171     -0.2177
      5  C3         0.3240    4.8690   38.4730 C.3   171  4IP171      0.1890
      6  O3         1.5010    5.4200   39.0040 O.3   171  4IP171     -0.2674
      7  C4         0.1820    5.0170   36.9230 C.3   171  4IP171      0.1865
      8  O4         1.3610    4.5130   36.3190 O.3   171  4IP171     -0.2675
      9  C5        -0.9050    4.1360   36.4760 C.3   171  4IP171      0.1890
     10  O5        -1.1120    4.3720   35.0380 O.3   171  4IP171     -0.2674
     11  C6        -2.1860    4.5000   37.2100 C.3   171  4IP171      0.2120
     12  O6        -3.0420    3.4270   36.9930 O.3   171  4IP171     -0.2177
     13  P1        -3.8130    3.6270   40.6700 P.3   171  4IP171      0.5327
     14  O1P       -4.9810    4.2240   41.3230 O.3   171  4IP171     -0.1145
     15  O2P       -2.6980    3.4600   41.6390 O.3   171  4IP171     -0.1145
     16  O3P       -4.0120    2.4480   39.7660 O.2   171  4IP171     -0.2224
     17  P3         2.6050    4.5510   39.6380 P.3   171  4IP171      0.5327
     18  O4P        3.4630    5.5730   40.0730 O.3   171  4IP171     -0.1145
     19  O5P        1.8060    3.7860   40.5730 O.3   171  4IP171     -0.1145
     20  O6P        3.0900    3.7480   38.5600 O.2   171  4IP171     -0.2224
     21  P4         2.3810    5.3220   35.5530 P.3   171  4IP171      0.5327
     22  O7P        1.8910    6.7140   35.6780 O.3   171  4IP171     -0.1145
     23  O8P        3.6580    5.0400   36.2540 O.3   171  4IP171     -0.1145
     24  O9P        2.2820    4.7790   34.2290 O.2   171  4IP171     -0.2224
     25  P5        -0.7220    3.4620   33.7510 P.3   171  4IP171      0.5327
     26  OPF        0.3140    4.2970   33.1410 O.3   171  4IP171     -0.1145
     27  OPG       -0.3560    2.1590   34.2350 O.3   171  4IP171     -0.1145
     28  OPH       -1.9840    3.4660   33.0630 O.2   171  4IP171     -0.2224
@<TRIPOS>BOND
     1    28    25    2
     2    26    25    1
     3    25    27    1
     4    25    10    1
     5    24    21    2
     6    10     9    1
     7    21    22    1
     8    21    23    1
     9    21     8    1
    10     8     7    1
    11     9     7    1
    12     9    11    1
    13     7     5    1
    14    12    11    1
    15    11     1    1
    16     5     6    1
    17     5     3    1
    18    20    17    2
    19     1     3    1
    20     1     2    1
    21     4     3    1
    22     6    17    1
    23     2    13    1
    24    17    18    1
    25    17    19    1
    26    16    13    2
    27    13    14    1
    28    13    15    1
