@<TRIPOS>MOLECULE
1b56_PLM_A_1.pdb
 18 17 0 0 0
SMALL
GASTEIGER

@<TRIPOS>ATOM
      1  C1        46.9440   22.4560   32.6530 C.2   136  PLM136      0.3649
      2  O1        47.6130   21.6520   32.0150 O.co2 136  PLM136     -0.2457
      3  O2        45.7460   22.2220   32.7550 O.co2 136  PLM136     -0.2457
      4  C2        47.4950   23.6320   33.1280 C.3   136  PLM136      0.1141
      5  C3        47.4530   24.6280   32.1700 C.3   136  PLM136      0.0118
      6  C4        48.6580   24.6830   31.5030 C.3   136  PLM136      0.0006
      7  C5        48.3540   25.0960   30.2210 C.3   136  PLM136      0.0000
      8  C6        49.0230   26.2680   29.9430 C.3   136  PLM136      0.0000
      9  C7        48.9680   26.4820   28.5830 C.3   136  PLM136      0.0000
     10  C8        47.7520   27.0350   28.2800 C.3   136  PLM136      0.0000
     11  C9        47.9110   27.5620   27.0260 C.3   136  PLM136      0.0000
     12  CA        46.7070   28.1150   26.6530 C.3   136  PLM136      0.0000
     13  CB        46.1320   27.2050   25.8000 C.3   136  PLM136      0.0000
     14  CC        44.9410   27.7410   25.3400 C.3   136  PLM136      0.0000
     15  CD        44.3090   26.8400   24.4940 C.3   136  PLM136      0.0000
     16  CE        43.5990   25.9230   25.2540 C.3   136  PLM136      0.0000
     17  CF        44.2780   24.7150   25.2800 C.3   136  PLM136      0.0000
     18  CG        43.6350   23.8680   26.1590 C.3   136  PLM136      0.0000
@<TRIPOS>BOND
     1    15    16    1
     2    15    14    1
     3    16    17    1
     4    17    18    1
     5    14    13    1
     6    13    12    1
     7    12    11    1
     8    11    10    1
     9    10     9    1
    10     9     8    1
    11     8     7    1
    12     7     6    1
    13     6     5    1
    14     2     1   ar
    15     5     4    1
    16     1     3   ar
    17     1     4    1
