@<TRIPOS>MOLECULE
1b58_III_B_1.pdb
 31 31 0 0 0
SMALL
GASTEIGER

@<TRIPOS>ATOM
      1  N          6.9150   17.0380   15.3930 N.3     1  LYS1       -0.1231
      2  CA         6.4760   18.3740   14.8690 C.3     1  LYS1        0.1693
      3  C          5.2090   18.8230   15.5770 C.2     1  LYS1        0.2592
      4  O          4.3540   17.9690   15.9280 O.2     1  LYS1       -0.2718
      5  CB         6.2380   18.3740   13.3360 C.3     1  LYS1        0.0285
      6  CG         5.3130   17.2940   12.8190 C.3     1  LYS1        0.0035
      7  CD         5.2260   17.1990   11.3010 C.3     1  LYS1        0.0206
      8  CE         6.4950   16.6350   10.6400 C.3     1  LYS1        0.1093
      9  NZ         6.6610   15.2160   11.0780 N.3     1  LYS1       -0.1314
     10  N          5.0340   20.1190   15.7240 N.am    2  TYR2       -0.1962
     11  CA         3.8450   20.7030   16.3620 C.3     2  TYR2        0.1771
     12  C          2.5900   20.6220   15.5040 C.2     2  TYR2        0.2620
     13  O          2.5840   20.9110   14.2970 O.2     2  TYR2       -0.2715
     14  CB         4.0340   22.2090   16.7220 C.3     2  TYR2        0.0574
     15  CG         5.1690   22.3880   17.7110 C.ar    2  TYR2       -0.0198
     16  CD1        5.0000   22.2060   19.0650 C.ar    2  TYR2       -0.0009
     17  CD2        6.4310   22.7480   17.2570 C.ar    2  TYR2       -0.0009
     18  CE1        6.0240   22.3470   19.9870 C.ar    2  TYR2        0.0417
     19  CE2        7.4550   22.9090   18.1560 C.ar    2  TYR2        0.0417
     20  CZ         7.2430   22.7030   19.5100 C.ar    2  TYR2        0.1957
     21  OH         8.3200   22.8540   20.3430 O.3     2  TYR2       -0.2866
     22  N          1.4820   20.2830   16.1640 N.am    3  LYS3       -0.1941
     23  CA         0.2100   20.1790   15.4820 C.3     3  LYS3        0.1978
     24  C         -0.8450   21.0560   16.1900 C.2     3  LYS3        0.3842
     25  O         -1.8140   21.4040   15.5080 O.co2   3  LYS3       -0.2437
     26  CB        -0.3390   18.7550   15.3730 C.3     3  LYS3        0.0333
     27  CG        -1.3620   18.7940   14.1820 C.3     3  LYS3        0.0039
     28  CD        -2.1300   17.5010   14.0680 C.3     3  LYS3        0.0206
     29  CE        -3.3530   17.6770   13.1380 C.3     3  LYS3        0.1093
     30  NZ        -2.8580   17.3570   11.7770 N.3     3  LYS3       -0.1314
     31  OXT       -0.6940   21.4150   17.3600 O.co2   3  LYS3       -0.2437
@<TRIPOS>BOND
     1     8     9    1
     2     8     7    1
     3     7     6    1
     4    30    29    1
     5     6     5    1
     6    29    28    1
     7     5     2    1
     8    28    27    1
     9    27    26    1
    10    13    12    2
    11     2     1    1
    12     2     3    1
    13    26    23    1
    14    23    22    1
    15    23    24    1
    16    12    22   am
    17    12    11    1
    18    25    24   ar
    19     3    10   am
    20     3     4    2
    21    10    11    1
    22    24    31   ar
    23    11    14    1
    24    14    15    1
    25    17    15   ar
    26    17    19   ar
    27    15    16   ar
    28    19    20   ar
    29    16    18   ar
    30    20    18   ar
    31    20    21    1
