@<TRIPOS>MOLECULE
1b59_OVA_A_1.pdb
 21 22 0 0 0
SMALL
GASTEIGER

@<TRIPOS>ATOM
      1  C5        17.6700   27.4310   20.9740 C.3   480  OVA480      0.0698
      2  C4        16.2180   27.8810   20.9580 C.2   480  OVA480      0.1802
      3  C3        15.7710   28.4430   19.5940 C.3   480  OVA480      0.2044
      4  C2        16.7080   29.6260   19.2260 C.3   480  OVA480      0.2079
      5  C1        18.1600   29.1560   19.1370 C.3   480  OVA480      0.1575
      6  C6        18.5880   28.5720   20.4750 C.3   480  OVA480      0.0409
      7  O11       18.2250   28.1370   18.2290 O.3   480  OVA480     -0.2229
      8  C11       19.2050   30.2030   18.6780 C.3   480  OVA480      0.0357
      9  C21       16.2140   30.2120   17.8920 C.3   480  OVA480      0.1484
     10  C22       16.3780   31.7350   17.7160 C.3   480  OVA480      0.1467
     11  C23       16.5040   32.3050   16.3030 C.3   480  OVA480      0.0574
     12  C24       17.8900   31.9910   15.7230 C.2   480  OVA480     -0.0320
     13  C25       18.9960   32.7290   15.6960 C.2   480  OVA480     -0.0478
     14  C2A       15.9370   29.3790   16.6490 C.3   480  OVA480      0.0349
     15  O2A       15.1510   31.1840   18.0150 O.3   480  OVA480     -0.3532
     16  C2B       20.2940   32.0990   15.2370 C.3   480  OVA480      0.0260
     17  C2C       19.1280   34.0930   16.3520 C.3   480  OVA480      0.0260
     18  O31       14.4270   28.9280   19.6360 O.3   480  OVA480     -0.3435
     19  C31       13.4830   27.8660   19.5480 C.3   480  OVA480      0.1747
     20  O41       15.4900   27.8360   21.9150 O.2   480  OVA480     -0.2934
     21  O1        16.5220   30.5380   20.1960 O.3   480  OVA480     -0.2176
@<TRIPOS>BOND
     1    16    13    1
     2    13    12    2
     3    13    17    1
     4    12    11    1
     5    11    10    1
     6    14     9    1
     7    10     9    1
     8    10    15    1
     9     9    15    1
    10     9     4    1
    11     7     5    1
    12     8     5    1
    13     5     4    1
    14     5     6    1
    15     4     3    1
    16     4    21    1
    17    19    18    1
    18     3    18    1
    19     3     2    1
    20     6     1    1
    21     2     1    1
    22     2    20    2
