@<TRIPOS>MOLECULE
1b5d_DCM_A_1.pdb
 20 21 0 0 0
SMALL
GASTEIGER

@<TRIPOS>ATOM
      1  N1        17.6650    5.4610   24.8580 N.am  300  DCM300     -0.1802
      2  C2        17.1070    6.3260   23.8940 C.1   300  DCM300      0.2756
      3  N3        17.8100    7.3940   23.4860 N.2   300  DCM300     -0.3024
      4  C4        18.9860    7.6890   24.0580 C.2   300  DCM300      0.2346
      5  C5        19.5650    6.8530   25.0640 C.2   300  DCM300      0.0687
      6  C6        18.8780    5.7580   25.4260 C.2   300  DCM300      0.0835
      7  O2        15.9690    6.0860   23.4600 O.2   300  DCM300     -0.1925
      8  N4        19.6040    8.8120   23.6850 N.pl3 300  DCM300     -0.0921
      9  C1'       16.8280    4.3690   25.3920 C.3   300  DCM300      0.2090
     10  C2'       16.5060    3.2690   24.3830 C.3   300  DCM300      0.0874
     11  C3'       16.2180    2.1030   25.3200 C.3   300  DCM300      0.1857
     12  C4'       17.2650    2.2960   26.4120 C.3   300  DCM300      0.1774
     13  O4'       17.5220    3.7310   26.4510 O.3   300  DCM300     -0.3339
     14  O3'       14.9180    2.2090   25.8830 O.3   300  DCM300     -0.2203
     15  C5'       18.5680    1.5520   26.1960 C.3   300  DCM300      0.1858
     16  O5'       18.4200    0.1590   26.5830 O.3   300  DCM300     -0.2675
     17  P         19.0990   -1.0210   25.7450 P.3   300  DCM300      0.5327
     18  O1P       18.4690   -0.8110   24.4120 O.2   300  DCM300     -0.2224
     19  O2P       20.5430   -0.6600   25.8740 O.3   300  DCM300     -0.1145
     20  O3P       18.6110   -2.1670   26.5610 O.3   300  DCM300     -0.1145
@<TRIPOS>BOND
     1     7     2    2
     2     3     2    2
     3     3     4    2
     4     8     4    1
     5     2     1   am
     6     4     5    1
     7    10    11    1
     8    10     9    1
     9    18    17    2
    10     1     9    1
    11     1     6    1
    12     5     6    2
    13    11    14    1
    14    11    12    1
    15     9    13    1
    16    17    19    1
    17    17    20    1
    18    17    16    1
    19    15    12    1
    20    15    16    1
    21    12    13    1
