@<TRIPOS>MOLECULE
1b5e_DCM_A_1.pdb
 20 21 0 0 0
SMALL
GASTEIGER

@<TRIPOS>ATOM
      1  N1        17.5340    5.6150   24.8170 N.am  300  DCM300     -0.1802
      2  C2        17.0210    6.4590   23.8090 C.1   300  DCM300      0.2756
      3  N3        17.7350    7.5250   23.4160 N.2   300  DCM300     -0.3024
      4  C4        18.8940    7.8250   24.0230 C.2   300  DCM300      0.2346
      5  C5        19.4580    6.9760   25.0310 C.2   300  DCM300      0.0687
      6  C6        18.7360    5.9100   25.4090 C.2   300  DCM300      0.0835
      7  O2        15.9010    6.2070   23.3400 O.2   300  DCM300     -0.1925
      8  N4        19.5180    8.9520   23.6720 N.pl3 300  DCM300     -0.0921
      9  C1'       16.6860    4.5230   25.3220 C.3   300  DCM300      0.2090
     10  C2'       16.3620    3.4390   24.2980 C.3   300  DCM300      0.0874
     11  C3'       16.0430    2.2690   25.2240 C.3   300  DCM300      0.1857
     12  C4'       17.0900    2.4280   26.3160 C.3   300  DCM300      0.1774
     13  O4'       17.3780    3.8580   26.3710 O.3   300  DCM300     -0.3339
     14  O3'       14.7400    2.3940   25.7910 O.3   300  DCM300     -0.2203
     15  C5'       18.3670    1.6520   26.0870 C.3   300  DCM300      0.1858
     16  O5'       18.1480    0.2530   26.3900 O.3   300  DCM300     -0.2675
     17  P         18.8240   -0.9120   25.5270 P.3   300  DCM300      0.5327
     18  O1P       18.1530   -0.7270   24.2000 O.2   300  DCM300     -0.2224
     19  O2P       20.2700   -0.5590   25.5970 O.3   300  DCM300     -0.1145
     20  O3P       18.3660   -2.0590   26.3670 O.3   300  DCM300     -0.1145
@<TRIPOS>BOND
     1     7     2    2
     2     3     2    2
     3     3     4    2
     4     8     4    1
     5     2     1   am
     6     4     5    1
     7    18    17    2
     8    10    11    1
     9    10     9    1
    10     1     9    1
    11     1     6    1
    12     5     6    2
    13    11    14    1
    14    11    12    1
    15     9    13    1
    16    17    19    1
    17    17    20    1
    18    17    16    1
    19    15    12    1
    20    15    16    1
    21    12    13    1
