@<TRIPOS>MOLECULE
1b5f_BMA_A_1.pdb
 11 11 0 0 0
SMALL
GASTEIGER

@<TRIPOS>ATOM
      1  C1        42.0970   16.7840   11.6950 C.3   404  BMA404      0.1777
      2  C2        41.8650   16.2880   13.0960 C.3   404  BMA404      0.2141
      3  C3        42.9430   16.9850   13.9800 C.3   404  BMA404      0.2173
      4  C4        44.2900   16.4240   13.4740 C.3   404  BMA404      0.2142
      5  C5        44.5070   16.8890   12.0520 C.3   404  BMA404      0.1810
      6  C6        45.8410   16.3920   11.4760 C.3   404  BMA404      0.2141
      7  O2        42.1560   14.8590   13.1680 O.3   404  BMA404     -0.2176
      8  O3        42.8450   16.4350   15.3110 O.3   404  BMA404     -0.2175
      9  O4        45.3200   16.9450   14.2960 O.3   404  BMA404     -0.2176
     10  O5        43.4090   16.4400   11.2290 O.3   404  BMA404     -0.3481
     11  O6        46.0440   14.9560   11.4680 O.3   404  BMA404     -0.2176
@<TRIPOS>BOND
     1    10     1    1
     2    10     5    1
     3    11     6    1
     4     6     5    1
     5     1     2    1
     6     5     4    1
     7     2     7    1
     8     2     3    1
     9     4     3    1
    10     4     9    1
    11     3     8    1
