@<TRIPOS>MOLECULE
1b5g_0ZE_H_1.pdb
 40 44 0 0 0
SMALL
GASTEIGER

@<TRIPOS>ATOM
      1  C1        16.4090  -12.7630   20.1670 C.2   372  0ZE372      0.2598
      2  O1        15.9940  -13.7530   19.5710 O.2   372  0ZE372     -0.2715
      3  C2        17.7970  -12.7800   20.8170 C.3   372  0ZE372      0.1535
      4  C3        18.9650  -12.7520   19.8060 C.3   372  0ZE372      0.0310
      5  C4        19.4410  -14.2310   19.7100 C.3   372  0ZE372      0.0220
      6  C5        19.3420  -14.6980   21.1760 C.3   372  0ZE372      0.0759
      7  C6        19.3860  -16.2100   21.4240 C.3   372  0ZE372      0.0218
      8  C7        18.7590  -16.6540   22.7340 C.3   372  0ZE372      0.0285
      9  C8        17.4970  -15.8880   23.1740 C.3   372  0ZE372      0.1493
     10  C9        17.2390  -14.5030   22.5070 C.2   372  0ZE372      0.2418
     11  O2        16.1710  -13.9540   22.7370 O.2   372  0ZE372     -0.2734
     12  N1        18.0630  -14.0350   21.5470 N.am  372  0ZE372     -0.2735
     13  N2        17.4410  -15.7980   24.6440 N.3   372  0ZE372     -0.1247
     14  C10       16.2530  -16.6920   22.7090 C.3   372  0ZE372      0.0528
     15  C11       16.4480  -18.1420   23.1610 C.ar  372  0ZE372     -0.0203
     16  C12       17.3280  -18.9820   22.4920 C.ar  372  0ZE372     -0.0042
     17  C13       17.5160  -20.3040   22.9380 C.ar  372  0ZE372     -0.0003
     18  C14       16.8030  -20.7720   24.0410 C.ar  372  0ZE372     -0.0000
     19  C15       15.8810  -19.9380   24.6970 C.ar  372  0ZE372     -0.0003
     20  C16       15.6990  -18.6270   24.2420 C.ar  372  0ZE372     -0.0042
     21  N         15.6720  -11.6230   20.2770 N.am  372  0ZE372     -0.1978
     22  CA        14.3470  -11.5840   19.6000 C.3   372  0ZE372      0.1599
     23  C         14.5720  -10.7420   18.3200 C.2   372  0ZE372      0.2281
     24  O         13.5590  -10.2060   17.7980 O.2   372  0ZE372     -0.2862
     25  CB        13.3210  -10.7920   20.4900 C.3   372  0ZE372      0.0334
     26  CG        13.0360  -11.7540   21.6670 C.3   372  0ZE372      0.0492
     27  CD        12.0530  -11.2570   22.6120 C.3   372  0ZE372      0.2205
     28  NE        11.6180  -12.3610   23.4780 N.pl3 372  0ZE372     -0.0865
     29  CZ        10.6290  -12.1130   24.3290 C.cat 372  0ZE372      0.5346
     30  NH1       10.4870  -10.8120   24.6690 N.pl3 372  0ZE372      0.1354
     31  NH2        9.8180  -13.0660   24.7960 N.pl3 372  0ZE372      0.1354
     32  C17       15.6140  -11.2400   17.2720 C.2   372  0ZE372      0.1969
     33  N11       16.8080  -10.9240   17.1060 N.2   372  0ZE372     -0.3959
     34  C21       17.4220  -11.6190   16.0750 C.2   372  0ZE372      0.1201
     35  C31       18.7580  -11.4790   15.6340 C.3   372  0ZE372      0.0855
     36  C41       19.2140  -12.2400   14.5300 C.2   372  0ZE372     -0.0186
     37  C51       18.3480  -13.1380   13.8870 C.2   372  0ZE372     -0.0036
     38  C61       17.0050  -13.2580   14.3220 C.2   372  0ZE372      0.0085
     39  C71       16.5980  -12.4800   15.4120 C.2   372  0ZE372      0.0576
     40  S1        15.0320  -12.4580   16.0840 S.3   372  0ZE372     -0.0503
@<TRIPOS>BOND
     1    37    38    1
     2    37    36    2
     3    38    39    2
     4    36    35    1
     5    39    34    1
     6    39    40    1
     7    35    34    1
     8    34    33    2
     9    40    32    1
    10    33    32    2
    11    32    23    1
    12    24    23    2
    13    23    22    1
    14     2     1    2
    15    22    21    1
    16    22    25    1
    17     5     4    1
    18     5     6    1
    19     4     3    1
    20     1    21   am
    21     1     3    1
    22    25    26    1
    23     3    12    1
    24     6     7    1
    25     6    12    1
    26     7     8    1
    27    12    10   am
    28    26    27    1
    29    16    17   ar
    30    16    15   ar
    31    10    11    2
    32    10     9    1
    33    27    28    1
    34    14    15    1
    35    14     9    1
    36     8     9    1
    37    17    18   ar
    38    15    20   ar
    39     9    13    1
    40    28    29    2
    41    18    19   ar
    42    20    19   ar
    43    29    30    1
    44    29    31    1
