@<TRIPOS>MOLECULE
1b5h_III_B_1.pdb
 25 24 0 0 0
SMALL
GASTEIGER

@<TRIPOS>ATOM
      1  N          6.8510   16.4590   15.1270 N.3     1  LYS1       -0.1231
      2  CA         6.3990   17.7750   14.5860 C.3     1  LYS1        0.1693
      3  C          5.1800   18.3030   15.3350 C.2     1  LYS1        0.2592
      4  O          4.3960   17.5280   15.8720 O.2     1  LYS1       -0.2718
      5  CB         6.1500   17.7010   13.0690 C.3     1  LYS1        0.0285
      6  CG         5.1600   16.6480   12.6150 C.3     1  LYS1        0.0035
      7  CD         5.0520   16.5520   11.0840 C.3     1  LYS1        0.0206
      8  CE         6.3270   15.9790   10.4570 C.3     1  LYS1        0.1093
      9  NZ         6.5300   14.5420   10.8510 N.3     1  LYS1       -0.1314
     10  N          5.0290   19.6060   15.4070 N.am    2  ALA2       -0.1950
     11  CA         3.9730   20.2810   16.1400 C.3     2  ALA2        0.1916
     12  C          2.6380   20.2790   15.4270 C.2     2  ALA2        0.2632
     13  O          2.6220   20.5680   14.2230 O.2     2  ALA2       -0.2714
     14  CB         4.3340   21.7650   16.3790 C.3     2  ALA2        0.1403
     15  NG         5.2700   21.7450   17.5120 N.3     2  ALA2       -0.1290
     16  N          1.5580   19.9130   16.1280 N.am    3  LYS3       -0.1938
     17  CA         0.2770   19.8620   15.4450 C.3     3  LYS3        0.2021
     18  C         -0.8060   20.6720   16.1850 C.2     3  LYS3        0.3845
     19  O         -1.7740   21.0270   15.4930 O.co2   3  LYS3       -0.2437
     20  CB        -0.2610   18.4320   15.2570 C.3     3  LYS3        0.0590
     21  CG        -1.3260   18.4390   14.1370 C.2     3  LYS3       -0.0269
     22  CD        -1.8600   17.1080   13.7590 C.2     3  LYS3       -0.0102
     23  CE        -2.9320   17.0490   12.6730 C.3     3  LYS3        0.1350
     24  NZ        -3.6490   18.3570   12.6010 N.3     3  LYS3       -0.1262
     25  OXT       -0.6430   20.9740   17.3660 O.co2   3  LYS3       -0.2437
@<TRIPOS>BOND
     1     8     9    1
     2     8     7    1
     3     7     6    1
     4    24    23    1
     5     6     5    1
     6    23    22    1
     7     5     2    1
     8    22    21    2
     9    21    20    1
    10    13    12    2
    11     2     1    1
    12     2     3    1
    13    20    17    1
    14     3    10   am
    15     3     4    2
    16    10    11    1
    17    12    16   am
    18    12    11    1
    19    17    16    1
    20    17    18    1
    21    19    18   ar
    22    11    14    1
    23    18    25   ar
    24    14    15    1
