@<TRIPOS>MOLECULE
1b5i_III_B_1.pdb
 27 26 0 0 0
SMALL
GASTEIGER

@<TRIPOS>ATOM
      1  N          6.8880   16.5850   15.2370 N.3     1  LYS1       -0.1231
      2  CA         6.4120   17.8710   14.6290 C.3     1  LYS1        0.1693
      3  C          5.2240   18.4200   15.4180 C.2     1  LYS1        0.2592
      4  O          4.4480   17.6480   15.9690 O.2     1  LYS1       -0.2718
      5  CB         6.0570   17.8000   13.1500 C.3     1  LYS1        0.0285
      6  CG         5.1710   16.6660   12.6790 C.3     1  LYS1        0.0035
      7  CD         5.1470   16.5360   11.1470 C.3     1  LYS1        0.0206
      8  CE         6.4820   16.0900   10.5660 C.3     1  LYS1        0.1093
      9  NZ         6.8160   14.6790   10.9490 N.3     1  LYS1       -0.1314
     10  N          5.1150   19.7310   15.5020 N.am    2  ASN2       -0.1960
     11  CA         3.9960   20.3660   16.2000 C.3     2  ASN2        0.1819
     12  C          2.7140   20.3480   15.3810 C.2     2  ASN2        0.2622
     13  O          2.6990   20.6480   14.1900 O.2     2  ASN2       -0.2715
     14  CB         4.3040   21.8440   16.5010 C.3     2  ASN2        0.1195
     15  CG         4.9860   21.8890   17.8790 C.2     2  ASN2        0.2630
     16  OD1        4.4780   21.2970   18.8270 O.2     2  ASN2       -0.2716
     17  ND2        6.1080   22.5410   18.0450 N.am    2  ASN2       -0.0877
     18  N          1.5940   19.9770   16.0020 N.am    3  LYS3       -0.1941
     19  CA         0.3310   19.9140   15.3150 C.3     3  LYS3        0.1978
     20  C         -0.7100   20.7810   16.0510 C.2     3  LYS3        0.3842
     21  O         -1.7460   21.1160   15.4950 O.co2   3  LYS3       -0.2437
     22  CB        -0.2470   18.4830   15.2680 C.3     3  LYS3        0.0333
     23  CG        -1.3900   18.4580   14.2440 C.3     3  LYS3        0.0039
     24  CD        -1.6500   17.0610   13.7100 C.3     3  LYS3        0.0206
     25  CE        -2.5540   17.1150   12.4690 C.3     3  LYS3        0.1093
     26  NZ        -3.9330   17.4300   12.9680 N.3     3  LYS3       -0.1314
     27  OXT       -0.5210   21.1280   17.2120 O.co2   3  LYS3       -0.2437
@<TRIPOS>BOND
     1     8     9    1
     2     8     7    1
     3     7     6    1
     4    25    26    1
     5    25    24    1
     6     6     5    1
     7     5     2    1
     8    24    23    1
     9    13    12    2
    10    23    22    1
    11     2     1    1
    12     2     3    1
    13    22    19    1
    14    19    18    1
    15    19    20    1
    16    12    18   am
    17    12    11    1
    18     3    10   am
    19     3     4    2
    20    21    20   ar
    21    10    11    1
    22    20    27   ar
    23    11    14    1
    24    14    15    1
    25    15    17   am
    26    15    16    2
