@<TRIPOS>MOLECULE
1b5j_III_B_1.pdb
 28 27 0 0 0
SMALL
GASTEIGER

@<TRIPOS>ATOM
      1  N          6.9140   16.4940   15.1200 N.3     1  LYS1       -0.1231
      2  CA         6.4250   17.7690   14.5330 C.3     1  LYS1        0.1693
      3  C          5.1810   18.2630   15.2420 C.2     1  LYS1        0.2592
      4  O          4.4250   17.4650   15.8020 O.2     1  LYS1       -0.2718
      5  CB         6.2210   17.6860   13.0080 C.3     1  LYS1        0.0285
      6  CG         5.2760   16.5630   12.5730 C.3     1  LYS1        0.0035
      7  CD         5.1850   16.4610   11.0510 C.3     1  LYS1        0.0206
      8  CE         6.4310   15.8590   10.4010 C.3     1  LYS1        0.1093
      9  NZ         6.6880   14.4600   10.8540 N.3     1  LYS1       -0.1314
     10  N          5.0240   19.5860   15.2760 N.am    2  GLN2       -0.1966
     11  CA         3.8710   20.2000   15.9420 C.3     2  GLN2        0.1733
     12  C          2.5810   20.0540   15.1670 C.2     2  GLN2        0.2617
     13  O          2.4670   20.2870   13.9640 O.2     2  GLN2       -0.2715
     14  CB         4.1160   21.7310   16.0430 C.3     2  GLN2        0.0408
     15  CG         5.3340   22.0100   16.9260 C.3     2  GLN2        0.0908
     16  CD         5.3010   21.7160   18.3800 C.2     2  GLN2        0.2608
     17  OE1        4.3940   21.1620   18.9820 O.2     2  GLN2       -0.2717
     18  NE2        6.3900   22.0720   19.0740 N.am    2  GLN2       -0.0878
     19  N          1.5280   19.6590   15.9010 N.am    3  LYS3       -0.1942
     20  CA         0.2110   19.4900   15.3510 C.3     3  LYS3        0.1978
     21  C         -0.8060   20.3950   16.0690 C.2     3  LYS3        0.3842
     22  O         -1.8000   20.6880   15.3750 O.co2   3  LYS3       -0.2437
     23  CB        -0.1970   18.0150   15.5780 C.3     3  LYS3        0.0333
     24  CG        -1.6010   17.7200   15.1130 C.3     3  LYS3        0.0039
     25  CD        -1.6070   17.3160   13.6490 C.3     3  LYS3        0.0206
     26  CE        -3.0610   16.9250   13.2890 C.3     3  LYS3        0.1093
     27  NZ        -3.1060   16.9290   11.7960 N.3     3  LYS3       -0.1314
     28  OXT       -0.6160   20.7860   17.2430 O.co2   3  LYS3       -0.2437
@<TRIPOS>BOND
     1     8     9    1
     2     8     7    1
     3     7     6    1
     4    27    26    1
     5     6     5    1
     6     5     2    1
     7    26    25    1
     8    25    24    1
     9    13    12    2
    10     2     1    1
    11     2     3    1
    12    24    23    1
    13    12    19   am
    14    12    11    1
    15     3    10   am
    16     3     4    2
    17    10    11    1
    18    20    23    1
    19    20    19    1
    20    20    21    1
    21    22    21   ar
    22    11    14    1
    23    14    15    1
    24    21    28   ar
    25    15    16    1
    26    16    17    2
    27    16    18   am
