@<TRIPOS>MOLECULE
1b5m_HEM_A_1.pdb
 43 50 0 0 0
SMALL
GASTEIGER

@<TRIPOS>ATOM
      1 FE        -21.9390   34.2120   78.4040 Fe    201  HEM201      0.0000
      2  CHA      -21.4310   33.5380   81.7020 C.2   201  HEM201      0.0000
      3  CHB      -18.5840   35.0200   78.0970 C.2   201  HEM201      0.0000
      4  CHC      -22.4560   35.1030   75.1980 C.2   201  HEM201      0.0000
      5  CHD      -25.2720   33.6240   78.8050 C.2   201  HEM201      0.0000
      6  NA       -20.3260   34.2540   79.6690 N.ar  201  HEM201      0.0000
      7  C1A      -20.3210   33.9710   81.0160 C.ar  201  HEM201      0.0000
      8  C2A      -19.0040   34.2180   81.5700 C.ar  201  HEM201      0.0000
      9  C3A      -18.2310   34.6360   80.5710 C.ar  201  HEM201      0.0000
     10  C4A      -19.0380   34.6620   79.3650 C.ar  201  HEM201      0.0000
     11  CMA      -16.7480   35.0150   80.6050 C.3   201  HEM201      0.0000
     12  CAA      -18.6420   34.0250   83.0550 C.2   201  HEM201      0.0000
     13  CBA      -18.6980   35.2490   84.0040 C.2   201  HEM201      0.0000
     14  CGA      -18.7640   36.6040   83.3620 C.2   201  HEM201      0.0000
     15  O1A      -17.6940   36.9950   82.8270 O.co2 201  HEM201      0.0000
     16  O2A      -19.8640   37.2400   83.4150 O.co2 201  HEM201      0.0000
     17  NB       -20.7620   34.9750   76.9550 N.2   201  HEM201      0.0000
     18  C1B      -19.3840   35.1670   76.9520 C.2   201  HEM201      0.0000
     19  C2B      -18.9580   35.4780   75.5820 C.2   201  HEM201      0.0000
     20  C3B      -20.0370   35.4810   74.8190 C.2   201  HEM201      0.0000
     21  C4B      -21.1620   35.1840   75.6550 C.2   201  HEM201      0.0000
     22  CMB      -17.4810   35.7610   75.1610 C.3   201  HEM201      0.0000
     23  CAB      -20.1140   35.7050   73.3060 C.2   201  HEM201      0.0000
     24  CBB      -19.0060   35.5370   72.5810 C.2   201  HEM201      0.0000
     25  NC       -23.5280   34.3270   77.2330 N.ar  201  HEM201      0.0000
     26  C1C      -23.5610   34.7820   75.9350 C.ar  201  HEM201      0.0000
     27  C2C      -24.9260   34.8590   75.4780 C.ar  201  HEM201      0.0000
     28  C3C      -25.6920   34.4570   76.4800 C.ar  201  HEM201      0.0000
     29  C4C      -24.8420   34.1060   77.5860 C.ar  201  HEM201      0.0000
     30  CMC      -25.3460   35.3150   74.0630 C.3   201  HEM201      0.0000
     31  CAC      -27.2210   34.3190   76.5270 C.2   201  HEM201      0.0000
     32  CBC      -27.8830   34.1840   75.3740 C.2   201  HEM201      0.0000
     33  ND       -23.1260   33.7870   79.9550 N.2   201  HEM201      0.0000
     34  C1D      -24.4460   33.3400   79.8670 C.2   201  HEM201      0.0000
     35  C2D      -24.7970   32.5950   81.0590 C.2   201  HEM201      0.0000
     36  C3D      -23.7120   32.5900   81.8370 C.2   201  HEM201      0.0000
     37  C4D      -22.6760   33.3260   81.1760 C.2   201  HEM201      0.0000
     38  CMD      -26.1920   31.9740   81.3260 C.3   201  HEM201      0.0000
     39  CAD      -23.4630   31.9400   83.2020 C.3   201  HEM201      0.0000
     40  CBD      -24.6420   31.8210   84.1620 C.3   201  HEM201      0.0000
     41  CGD      -24.9960   33.1630   84.6700 C.2   201  HEM201      0.0000
     42  O1D      -24.0320   33.8910   85.0400 O.co2 201  HEM201      0.0000
     43  O2D      -26.2160   33.4420   84.6450 O.co2 201  HEM201      0.0000
@<TRIPOS>BOND
     1    24    23    2
     2    23    20    1
     3    30    27    1
     4    20    19    2
     5    20    21    1
     6    22    19    1
     7     4    21    2
     8     4    26    1
     9    32    31    2
    10    27    26   ar
    11    27    28   ar
    12    19    18    1
    13    21    17    1
    14    26    25   ar
    15    28    31    1
    16    28    29   ar
    17    18    17    2
    18    18     3    1
    19    17     1    1
    20    25    29   ar
    21    25     1    1
    22    29     5    1
    23     3    10    2
    24     1     6    1
    25     1    33    1
    26     5    34    2
    27    10     6   ar
    28    10     9   ar
    29     6     7   ar
    30    34    33    1
    31    34    35    1
    32    33    37    2
    33     9    11    1
    34     9     8   ar
    35     7     8   ar
    36     7     2    2
    37    35    38    1
    38    35    36    2
    39    37     2    1
    40    37    36    1
    41     8    12    1
    42    36    39    1
    43    15    14   ar
    44    12    13    2
    45    39    40    1
    46    14    16   ar
    47    14    13    1
    48    40    41    1
    49    43    41   ar
    50    41    42   ar
