@<TRIPOS>MOLECULE
1b5o_PLP_A_1.pdb
 15 15 0 0 0
SMALL
GASTEIGER

@<TRIPOS>ATOM
      1  N1        31.3990   47.7940   62.7560 N.ar  413  PLP413     -0.2452
      2  C2        31.6810   47.4430   61.4750 C.ar  413  PLP413      0.0978
      3  C2A       32.3110   46.0810   61.2010 C.3   413  PLP413      0.0555
      4  C3        31.3950   48.3050   60.4670 C.ar  413  PLP413      0.2049
      5  O3        31.6770   47.9560   59.1890 O.3   413  PLP413     -0.2857
      6  C4        30.8200   49.5480   60.7570 C.ar  413  PLP413      0.0182
      7  C4A       30.5150   50.4800   59.5970 C.3   413  PLP413      0.0342
      8  C5        30.5420   49.8850   62.1030 C.ar  413  PLP413      0.0261
      9  C6        30.8430   48.9910   63.0730 C.ar  413  PLP413      0.0965
     10  C5A       29.9290   51.1990   62.5850 C.3   413  PLP413      0.1815
     11  O4P       29.8370   52.3440   61.7530 O.3   413  PLP413     -0.2653
     12  P         29.2180   53.7210   62.2440 P.3   413  PLP413      0.5329
     13  O1P       27.8090   53.4450   62.5910 O.3   413  PLP413     -0.1145
     14  O2P       29.3600   54.5630   60.9380 O.2   413  PLP413     -0.2224
     15  O3P       30.0820   54.3170   63.2770 O.3   413  PLP413     -0.1145
@<TRIPOS>BOND
     1     5     4    1
     2     7     6    1
     3     4     6   ar
     4     4     2   ar
     5     6     8   ar
     6    14    12    2
     7     3     2    1
     8     2     1   ar
     9    11    12    1
    10    11    10    1
    11     8    10    1
    12     8     9   ar
    13    12    13    1
    14    12    15    1
    15     1     9   ar
