@<TRIPOS>MOLECULE
1b5p_PLP_A_1.pdb
 15 15 0 0 0
SMALL
GASTEIGER

@<TRIPOS>ATOM
      1  N1        31.2260   47.3420   62.5150 N.ar  413  PLP413     -0.2452
      2  C2        31.5500   47.0150   61.2280 C.ar  413  PLP413      0.0978
      3  C2A       32.1890   45.6600   60.9470 C.3   413  PLP413      0.0555
      4  C3        31.2950   47.9000   60.2300 C.ar  413  PLP413      0.2049
      5  O3        31.6220   47.5850   58.9590 O.3   413  PLP413     -0.2857
      6  C4        30.7020   49.1300   60.5370 C.ar  413  PLP413      0.0182
      7  C4A       30.4250   50.0840   59.4080 C.3   413  PLP413      0.0342
      8  C5        30.3850   49.4330   61.8860 C.ar  413  PLP413      0.0261
      9  C6        30.6530   48.5250   62.8440 C.ar  413  PLP413      0.0965
     10  C5A       29.7610   50.7240   62.3700 C.3   413  PLP413      0.1815
     11  O4P       29.7210   51.8480   61.5060 O.3   413  PLP413     -0.2653
     12  P         29.1500   53.2440   61.9490 P.3   413  PLP413      0.5329
     13  O1P       27.7310   53.0580   62.3010 O.3   413  PLP413     -0.1145
     14  O2P       29.3560   54.0240   60.5930 O.2   413  PLP413     -0.2224
     15  O3P       30.0570   53.8000   62.9540 O.3   413  PLP413     -0.1145
@<TRIPOS>BOND
     1     5     4    1
     2     7     6    1
     3     4     6   ar
     4     4     2   ar
     5     6     8   ar
     6    14    12    2
     7     3     2    1
     8     2     1   ar
     9    11    12    1
    10    11    10    1
    11     8    10    1
    12     8     9   ar
    13    12    13    1
    14    12    15    1
    15     1     9   ar
