@<TRIPOS>MOLECULE
1b5q_MD2_A_1.pdb
 14 13 0 0 0
SMALL
GASTEIGER

@<TRIPOS>ATOM
      1  C1       132.7260   64.9910   -4.8570 C.3   590  MD2590      0.0000
      2  C6       131.0990   60.5010   -6.6660 C.3   590  MD2590      0.0887
      3  C7       130.1230   59.4620   -7.1890 C.3   590  MD2590      0.0203
      4  C11      126.7980   57.4520   -4.6310 C.3   590  MD2590      0.0887
      5  C12      125.5450   56.6120   -4.8860 C.3   590  MD2590      0.0188
      6  C2       131.9940   64.5400   -5.8670 C.3   590  MD2590      0.0015
      7  C3       131.2250   64.1150   -6.8570 C.3   590  MD2590      0.0188
      8  C4       130.4540   62.8180   -6.6660 C.3   590  MD2590      0.0887
      9  N5       131.0790   61.7390   -7.4310 N.3   590  MD2590     -0.2181
     10  C8       129.6180   58.6620   -5.9750 C.3   590  MD2590      0.0203
     11  C9       128.1610   58.2990   -6.2610 C.3   590  MD2590      0.0887
     12  N10      127.9600   57.0880   -5.4660 N.3   590  MD2590     -0.2181
     13  C13      124.9300   56.7460   -6.0550 C.3   590  MD2590      0.0015
     14  C14      124.3410   56.8800   -7.2360 C.3   590  MD2590      0.0000
@<TRIPOS>BOND
     1     9     2    1
     2     9     8    1
     3    14    13    1
     4     3     2    1
     5     3    10    1
     6     7     8    1
     7     7     6    1
     8    11    10    1
     9    11    12    1
    10    13     5    1
    11     6     1    1
    12    12     4    1
    13     5     4    1
