@<TRIPOS>MOLECULE
1b62_ADP_A_1.pdb
 27 29 0 0 0
SMALL
GASTEIGER

@<TRIPOS>ATOM
      1  PB        -4.4690   24.8680   54.9540 P.3   380  ADP380      0.5373
      2  O1B       -5.4250   24.8730   53.8060 O.2   380  ADP380     -0.2221
      3  O2B       -4.6080   23.6740   55.7800 O.3   380  ADP380     -0.1143
      4  O3B       -4.7290   26.1490   55.8930 O.3   380  ADP380     -0.1143
      5  PA        -1.6340   24.2340   54.1890 P.3   380  ADP380      0.2231
      6  O1A       -1.4550   23.4490   55.3940 O.3   380  ADP380     -0.4370
      7  O2A       -0.5140   25.0580   53.6720 O.2   380  ADP380     -0.5169
      8  O3A       -3.0120   25.0720   54.3210 O.3   380  ADP380     -0.2261
      9  O5'       -1.7690   23.2580   52.9520 O.3   380  ADP380     -0.3111
     10  C5'       -3.0710   22.7950   52.7640 C.3   380  ADP380      0.1813
     11  C4'       -3.5600   22.1140   51.5530 C.3   380  ADP380      0.1821
     12  O4'       -2.7630   20.9360   51.3070 O.3   380  ADP380     -0.3135
     13  C3'       -4.7890   21.6220   52.2960 C.3   380  ADP380      0.2184
     14  O3'       -5.8280   22.6010   52.1280 O.3   380  ADP380     -0.2174
     15  C2'       -5.0320   20.2410   51.7210 C.3   380  ADP380      0.2570
     16  O2'       -5.7790   20.3840   50.5340 O.3   380  ADP380     -0.2130
     17  C1'       -3.5700   19.7880   51.4510 C.3   380  ADP380      0.3186
     18  N9        -2.8480   18.9700   52.4490 N.pl3 380  ADP380     -0.1439
     19  C8        -1.8020   19.3110   53.2790 C.3   380  ADP380      0.3377
     20  N7        -1.3520   18.3620   54.0340 N.2   380  ADP380     -0.2095
     21  C5        -2.1530   17.2930   53.6940 C.2   380  ADP380      0.2526
     22  C6        -2.2010   15.9130   54.0960 C.2   380  ADP380      0.4393
     23  N6        -1.3340   15.4300   54.9860 N.pl3 380  ADP380      0.2180
     24  N1        -3.1470   15.0750   53.5490 N.2   380  ADP380      0.0021
     25  C2        -4.0210   15.5510   52.6250 C.3   380  ADP380      0.5254
     26  N3        -4.0510   16.8280   52.1750 N.2   380  ADP380     -0.0055
     27  C4        -3.1070   17.6430   52.7320 C.2   380  ADP380      0.3518
@<TRIPOS>BOND
     1    16    15    1
     2    12    17    1
     3    12    11    1
     4    17    15    1
     5    17    18    1
     6    11    13    1
     7    11    10    1
     8    15    13    1
     9    14    13    1
    10    26    25    1
    11    26    27    2
    12    18    27    1
    13    18    19    1
    14    25    24    1
    15    27    21    1
    16    10     9    1
    17     9     5    1
    18    19    20    1
    19    24    22    2
    20     7     5    2
    21    21    20    2
    22    21    22    1
    23     2     1    2
    24    22    23    1
    25     5     8    1
    26     5     6    1
    27     8     1    1
    28     1     3    1
    29     1     4    1
