@<TRIPOS>MOLECULE
1b63_ANP_A_1.pdb
 31 33 0 0 0
SMALL
GASTEIGER

@<TRIPOS>ATOM
      1  PG        -3.1580   26.1900   56.5090 P.3   380  ANP380      0.4884
      2  O1G       -2.1340   26.9780   55.8000 O.2   380  ANP380     -0.2331
      3  O2G       -2.6010   25.0370   57.1760 O.3   380  ANP380     -0.1240
      4  O3G       -4.1160   26.9360   57.3860 O.3   380  ANP380     -0.1240
      5  PB        -3.9160   24.2150   54.4660 P.3   380  ANP380      0.4669
      6  O1B       -4.8850   24.2200   53.3340 O.2   380  ANP380     -0.2351
      7  O2B       -3.8170   22.9700   55.2120 O.3   380  ANP380     -0.1253
      8  N3B       -4.1190   25.5650   55.3410 N.3   380  ANP380     -0.0163
      9  PA        -1.1210   23.7470   53.6470 P.3   380  ANP380      0.2220
     10  O1A       -0.8720   22.9360   54.8280 O.3   380  ANP380     -0.4370
     11  O2A       -0.0240   24.5820   53.0840 O.2   380  ANP380     -0.5170
     12  O3A       -2.5040   24.5260   53.7800 O.3   380  ANP380     -0.2360
     13  O5'       -1.2900   22.8160   52.3650 O.3   380  ANP380     -0.3111
     14  C5'       -2.5660   22.2910   52.1690 C.3   380  ANP380      0.1813
     15  C4'       -3.0480   21.5270   50.9990 C.3   380  ANP380      0.1821
     16  O4'       -2.2140   20.3680   50.8020 O.3   380  ANP380     -0.3135
     17  C3'       -4.2300   21.0120   51.7960 C.3   380  ANP380      0.2184
     18  O3'       -5.3010   21.9460   51.6520 O.3   380  ANP380     -0.2174
     19  C2'       -4.4530   19.5950   51.3230 C.3   380  ANP380      0.2570
     20  O2'       -5.2720   19.6390   50.1760 O.3   380  ANP380     -0.2130
     21  C1'       -2.9780   19.1920   51.0420 C.3   380  ANP380      0.3186
     22  N9        -2.2310   18.4530   52.0820 N.pl3 380  ANP380     -0.1439
     23  C8        -1.2200   18.8630   52.9370 C.3   380  ANP380      0.3377
     24  N7        -0.7310   17.9570   53.7310 N.2   380  ANP380     -0.2095
     25  C5        -1.4830   16.8410   53.3890 C.2   380  ANP380      0.2526
     26  C6        -1.4930   15.4790   53.8260 C.2   380  ANP380      0.4393
     27  N6        -0.6520   15.0480   54.7690 N.pl3 380  ANP380      0.2180
     28  N1        -2.3780   14.5780   53.2750 N.2   380  ANP380      0.0021
     29  C2        -3.2440   14.9890   52.3100 C.3   380  ANP380      0.5254
     30  N3        -3.3130   16.2450   51.8240 N.2   380  ANP380     -0.0055
     31  C4        -2.4190   17.1220   52.3910 C.2   380  ANP380      0.3518
@<TRIPOS>BOND
     1    20    19    1
     2    16    15    1
     3    16    21    1
     4    15    17    1
     5    15    14    1
     6    21    19    1
     7    21    22    1
     8    19    17    1
     9    18    17    1
    10    30    29    1
    11    30    31    2
    12    22    31    1
    13    22    23    1
    14    14    13    1
    15    29    28    1
    16    13     9    1
    17    31    25    1
    18    23    24    1
    19    11     9    2
    20    28    26    2
    21     6     5    2
    22    25    24    2
    23    25    26    1
    24     9    12    1
    25     9    10    1
    26    12     5    1
    27    26    27    1
    28     5     7    1
    29     5     8    1
    30     8     1    1
    31     2     1    2
    32     1     3    1
    33     1     4    1
