@<TRIPOS>MOLECULE
1b66_BIO_A_1.pdb
 17 18 0 0 0
SMALL
GASTEIGER

@<TRIPOS>ATOM
      1  N1        43.3870   45.4650   10.4870 N.2   700  BIO700     -0.2672
      2  N2        44.2520   44.8780   12.6780 N.pl3 700  BIO700     -0.0220
      3  C2        43.7310   44.5060   11.4140 C.1   700  BIO700      0.2609
      4  N3        43.5690   43.1890   11.1170 N.2   700  BIO700     -0.2466
      5  C4        43.0740   42.7920    9.9120 C.1   700  BIO700      0.2569
      6  O4        42.9110   41.4500    9.6260 O.2   700  BIO700     -0.2052
      7  C4A       42.7170   43.7370    8.9460 C.2   700  BIO700      0.2989
      8  C8A       42.8770   45.1040    9.2460 C.1   700  BIO700      0.1401
      9  N8        42.5010   46.0880    8.2550 N.2   700  BIO700     -0.1992
     10  C7        41.9770   45.6430    6.9170 C.3   700  BIO700      0.1940
     11  C6        41.8710   44.1260    6.7860 C.2   700  BIO700      0.1466
     12  N5        42.2260   43.3170    7.7560 N.2   700  BIO700     -0.3830
     13  C9        41.3060   43.4850    5.5160 C.3   700  BIO700      0.2313
     14  O9        41.2170   42.0580    5.7200 O.3   700  BIO700     -0.2130
     15  C10       42.1150   43.8410    4.2110 C.3   700  BIO700      0.1888
     16  O10       41.5250   43.1820    3.0780 O.3   700  BIO700     -0.2200
     17  C11       43.5940   43.4080    4.2940 C.3   700  BIO700      0.0387
@<TRIPOS>BOND
     1    16    15    1
     2    15    17    1
     3    15    13    1
     4    13    14    1
     5    13    11    1
     6    11    10    1
     7    11    12    2
     8    10     9    1
     9    12     7    2
    10     9     8    2
    11     7     8    1
    12     7     5    1
    13     8     1    2
    14     6     5    2
    15     5     4    2
    16     1     3    2
    17     4     3    2
    18     3     2    1
