@<TRIPOS>MOLECULE
1b6a_TN4_A_1.pdb
 27 28 0 0 0
SMALL
GASTEIGER

@<TRIPOS>ATOM
      1  C1        18.3910   29.2090   18.9750 C.3   480  TN4480      0.1314
      2  C2        16.9410   29.7590   19.0060 C.3   480  TN4480      0.0860
      3  C3        15.9890   28.6210   19.4470 C.3   480  TN4480      0.1598
      4  C4        16.4030   28.1230   20.8530 C.3   480  TN4480      0.1976
      5 CL4        14.1440   32.6900   25.9180 Cl    480  TN4480     -0.1033
      6  C5        17.8550   27.6250   20.8760 C.3   480  TN4480      0.0488
      7  C6        18.8080   28.6980   20.3550 C.3   480  TN4480      0.0344
      8  C11       19.4200   30.2610   18.5220 C.3   480  TN4480      0.0331
      9  O11       18.4730   28.1770   18.0980 O.3   480  TN4480     -0.2255
     10  C21       16.4960   30.3290   17.6750 C.3   480  TN4480      0.1225
     11  C22       16.6480   31.8630   17.5430 C.3   480  TN4480      0.1442
     12  C23       16.8410   32.3950   16.1410 C.3   480  TN4480      0.0573
     13  C24       18.1920   32.0760   15.5570 C.2   480  TN4480     -0.0320
     14  C25       19.3610   32.7170   15.5520 C.2   480  TN4480     -0.0478
     15  C2A       16.1030   29.4550   16.5120 C.3   480  TN4480      0.0323
     16  O2A       15.4320   31.3030   17.8440 O.3   480  TN4480     -0.3557
     17  C2B       20.6630   32.0680   15.1430 C.3   480  TN4480      0.0260
     18  C2C       19.5330   34.0540   16.2630 C.3   480  TN4480      0.0260
     19  C31       13.7010   28.0520   19.5060 C.3   480  TN4480      0.1742
     20  O31       14.6640   29.1160   19.4960 O.3   480  TN4480     -0.3497
     21  C41       15.1620   29.3240   22.5270 C.2   480  TN4480      0.4278
     22  O41       16.2540   29.2280   21.7930 O.3   480  TN4480     -0.4345
     23  N42       15.0050   30.5530   23.0250 N.am  480  TN4480     -0.1063
     24  C43       14.0040   30.9800   23.8160 C.2   480  TN4480      0.2671
     25  C44       14.1610   32.4590   24.1460 C.3   480  TN4480      0.1817
     26  O4A       14.4630   28.3460   22.7320 O.2   480  TN4480     -0.2241
     27  O4B       13.0640   30.3290   24.2590 O.2   480  TN4480     -0.2714
@<TRIPOS>BOND
     1    17    14    1
     2    14    13    2
     3    14    18    1
     4    13    12    1
     5    12    11    1
     6    15    10    1
     7    11    10    1
     8    11    16    1
     9    10    16    1
    10    10     2    1
    11     9     1    1
    12     8     1    1
    13     1     2    1
    14     1     7    1
    15     2     3    1
    16     3    20    1
    17     3     4    1
    18    20    19    1
    19     7     6    1
    20     4     6    1
    21     4    22    1
    22    22    21    1
    23    21    26    2
    24    21    23   am
    25    23    24   am
    26    24    25    1
    27    24    27    2
    28    25     5    1
