@<TRIPOS>MOLECULE
1b6h_III_B_1.pdb
 26 25 0 0 0
SMALL
GASTEIGER

@<TRIPOS>ATOM
      1  N          6.9380   16.5310   15.1250 N.3     1  LYS1       -0.1231
      2  CA         6.4620   17.8240   14.5740 C.3     1  LYS1        0.1693
      3  C          5.2090   18.3150   15.3120 C.2     1  LYS1        0.2592
      4  O          4.4430   17.5090   15.8290 O.2     1  LYS1       -0.2718
      5  CB         6.1930   17.7870   13.0570 C.3     1  LYS1        0.0285
      6  CG         5.2520   16.6620   12.6330 C.3     1  LYS1        0.0035
      7  CD         5.2210   16.5570   11.0870 C.3     1  LYS1        0.0206
      8  CE         6.5020   15.8980   10.5730 C.3     1  LYS1        0.1093
      9  NZ         6.5780   14.4400   10.8960 N.3     1  LYS1       -0.1314
     10  N          5.0520   19.6220   15.3700 N.am    2  VAL2       -0.1966
     11  CA         3.9570   20.2560   16.0860 C.3     2  VAL2        0.1728
     12  CB         4.3130   21.7180   16.4190 C.3     2  VAL2        0.0311
     13  CG         5.3540   21.6450   17.5830 C.3     2  VAL2        0.0023
     14  CD         5.5270   22.9880   18.2430 C.3     2  VAL2        0.0001
     15  C          2.6490   20.2390   15.3140 C.2     2  VAL2        0.2617
     16  O          2.6210   20.5390   14.1260 O.2     2  VAL2       -0.2715
     17  N          1.5780   19.8850   16.0210 N.am    3  LYS3       -0.1942
     18  CA         0.2710   19.8990   15.3840 C.3     3  LYS3        0.1978
     19  C         -0.7230   20.7610   16.1800 C.2     3  LYS3        0.3842
     20  O         -1.7540   21.0940   15.5420 O.co2   3  LYS3       -0.2437
     21  CB        -0.3290   18.5040   15.2150 C.3     3  LYS3        0.0333
     22  CG        -1.3930   18.5240   14.1090 C.3     3  LYS3        0.0039
     23  CD        -2.1320   17.2180   13.9920 C.3     3  LYS3        0.0206
     24  CE        -2.9400   17.0800   12.7120 C.3     3  LYS3        0.1093
     25  NZ        -3.6970   18.3410   12.4480 N.3     3  LYS3       -0.1314
     26  OXT       -0.4410   21.1260   17.3310 O.co2   3  LYS3       -0.2437
@<TRIPOS>BOND
     1     8     9    1
     2     8     7    1
     3     7     6    1
     4    25    24    1
     5     6     5    1
     6    24    23    1
     7     5     2    1
     8    23    22    1
     9    22    21    1
    10    16    15    2
    11     2     1    1
    12     2     3    1
    13    21    18    1
    14     3    10   am
    15     3     4    2
    16    15    17   am
    17    15    11    1
    18    10    11    1
    19    18    17    1
    20    18    19    1
    21    20    19   ar
    22    11    12    1
    23    19    26   ar
    24    12    13    1
    25    13    14    1
