@<TRIPOS>MOLECULE
1b6j_PI1_B_1.pdb
 49 51 0 0 0
SMALL
GASTEIGER

@<TRIPOS>ATOM
      1  C1         6.0980    4.6800    9.6030 C.3   201  PI1201      0.0650
      2  C2         4.1570    3.4300   10.5900 C.1   201  PI1201      0.1271
      3  O3         3.7960    4.3130   11.3740 O.2   201  PI1201     -0.2270
      4  C4         4.8970    3.7810    9.3140 C.3   201  PI1201      0.1255
      5  N5         3.9350    2.1390   10.8180 N.2   201  PI1201     -0.1907
      6  C6         3.2650    1.6680   12.0450 C.3   201  PI1201      0.2281
      7  C7         4.0410    0.4620   12.5560 C.1   201  PI1201      0.1496
      8  O8         3.9570   -0.6280   11.9920 O.2   201  PI1201     -0.2251
      9  C9         1.8040    1.3250   11.7710 C.3   201  PI1201      0.1307
     10  C10        1.0450    2.5070   11.2100 C.2   201  PI1201      0.2639
     11  O11        0.6600    3.4160   11.9450 O.2   201  PI1201     -0.2715
     12  N12        0.8940    2.5410    9.8930 N.am  201  PI1201     -0.0877
     13  N13        4.8490    0.6910   13.5920 N.2   201  PI1201     -0.2037
     14  C14        5.6860   -0.3610   14.1980 C.3   201  PI1201      0.1505
     15  C15        7.1130    0.1920   14.3260 C.3   201  PI1201      0.0542
     16  C16        7.4940    0.8960   13.0550 C.ar  201  PI1201     -0.0199
     17  C17        7.4990    2.2910   12.9850 C.ar  201  PI1201     -0.0011
     18  C18        7.6070    2.9550   11.7550 C.ar  201  PI1201      0.0366
     19  C19        7.6300    0.1790   11.8640 C.ar  201  PI1201     -0.0011
     20  C20        7.7340    0.8310   10.6380 C.ar  201  PI1201      0.0366
     21  C21        7.7080    2.2200   10.5750 C.ar  201  PI1201      0.1385
     22  O22        7.6860    2.7860    9.2980 O.3   201  PI1201     -0.4754
     23  C23        7.4460    4.1620    9.0120 C.3   201  PI1201      0.2066
     24  C24        5.1540   -0.6860   15.5970 C.3   201  PI1201      0.1912
     25  O25        5.2480    0.4690   16.4450 O.3   201  PI1201     -0.2195
     26  C26        3.6990   -1.0900   15.4870 C.3   201  PI1201      0.1077
     27  N27        3.5160   -2.5440   15.4480 N.3   201  PI1201     -0.2643
     28  C28        4.2080   -3.3990   16.4120 C.3   201  PI1201      0.1366
     29  C29        5.5010   -4.0600   15.9380 C.2   201  PI1201      0.2562
     30  O30        5.8130   -4.1120   14.7460 O.2   201  PI1201     -0.2719
     31  C31        3.1600   -4.4580   16.7160 C.3   201  PI1201      0.0268
     32  C32        2.5420   -4.6660   15.3720 C.3   201  PI1201      0.0192
     33  C33        2.3670   -3.2470   14.8510 C.3   201  PI1201      0.0726
     34  N34        6.2670   -4.5230   16.9150 N.am  201  PI1201     -0.1967
     35  C35        7.5050   -5.2630   16.6770 C.3   201  PI1201      0.1727
     36  C36        7.3570   -6.4010   17.6690 C.2   201  PI1201      0.2616
     37  O37        7.3650   -6.1760   18.8800 O.2   201  PI1201     -0.2715
     38  C38        8.7830   -4.4560   17.0160 C.3   201  PI1201      0.0290
     39  C39        8.9550   -3.2820   16.0500 C.3   201  PI1201      0.0022
     40  C40       10.0080   -5.3640   16.9340 C.3   201  PI1201      0.0023
     41  C41        9.1600   -3.6980   14.6320 C.3   201  PI1201      0.0001
     42  N42        7.0850   -7.5930   17.1520 N.am  201  PI1201     -0.1963
     43  C43        6.9200   -8.7790   18.0020 C.3   201  PI1201      0.1743
     44  C44        8.0430   -9.7860   17.7430 C.2   201  PI1201      0.2806
     45  O45        8.3940  -10.0630   16.5900 O.2   201  PI1201     -0.2698
     46  C46        5.5280   -9.4500   17.7970 C.3   201  PI1201      0.0290
     47  C47        4.4170   -8.4300   18.0070 C.3   201  PI1201      0.0023
     48  C48        5.4180  -10.0870   16.4130 C.3   201  PI1201      0.0023
     49  N49        8.6300  -10.3170   18.8160 N.am  201  PI1201     -0.0863
@<TRIPOS>BOND
     1    23    22    1
     2    23     1    1
     3    22    21    1
     4     4     1    1
     5     4     2    1
     6    12    10   am
     7    21    20   ar
     8    21    18   ar
     9     2     5    2
    10     2     3    2
    11    20    19   ar
    12     5     6    1
    13    10     9    1
    14    10    11    2
    15    18    17   ar
    16     9     6    1
    17    19    16   ar
    18     8     7    2
    19     6     7    1
    20     7    13    2
    21    17    16   ar
    22    16    15    1
    23    13    14    1
    24    14    15    1
    25    14    24    1
    26    41    39    1
    27    30    29    2
    28    33    32    1
    29    33    27    1
    30    32    31    1
    31    27    26    1
    32    27    28    1
    33    26    24    1
    34    24    25    1
    35    29    28    1
    36    29    34   am
    37    39    38    1
    38    28    31    1
    39    48    46    1
    40    45    44    2
    41    35    34    1
    42    35    38    1
    43    35    36    1
    44    40    38    1
    45    42    36   am
    46    42    43    1
    47    36    37    2
    48    44    43    1
    49    44    49   am
    50    46    43    1
    51    46    47    1
