@<TRIPOS>MOLECULE
1b6k_PI5_A_1.pdb
 49 52 0 0 0
SMALL
GASTEIGER

@<TRIPOS>ATOM
      1  C1         3.9510    3.5910    8.4490 C.3   201  PI5201      0.0311
      2  C2         3.3590    2.3660    9.1930 C.3   201  PI5201      0.0943
      3  C3         3.5310    4.1510   10.6590 C.2   201  PI5201      0.2260
      4  O4         3.5450    4.7720   11.7270 O.2   201  PI5201     -0.2749
      5  C5         3.8500    4.8040    9.3470 C.3   201  PI5201      0.0870
      6  N6         3.2290    2.8450   10.5950 N.am  201  PI5201     -0.2729
      7  C7         2.9040    2.0930   11.8060 C.3   201  PI5201      0.1534
      8  C8         1.6140    1.2640   11.5730 C.3   201  PI5201      0.0272
      9  C9         1.2720    0.4580   12.8120 C.3   201  PI5201      0.0022
     10  C10        0.4560    2.1860   11.2480 C.3   201  PI5201      0.0022
     11  C11        4.1080    1.2140   12.1230 C.2   201  PI5201      0.2595
     12  O12        4.2510    0.1030   11.5900 O.2   201  PI5201     -0.2716
     13  N13        4.9930    1.7390   12.9650 N.am  201  PI5201     -0.2028
     14  C14        6.2090    1.0250   13.3620 C.3   201  PI5201      0.1314
     15  C15        7.4370    1.8970   13.1060 C.3   201  PI5201      0.0506
     16  C16        7.5970    2.2990   11.6700 C.ar  201  PI5201     -0.0202
     17  C17        7.8070    1.3430   10.6840 C.ar  201  PI5201     -0.0009
     18  C18        7.5140    3.6360   11.2900 C.ar  201  PI5201     -0.0009
     19  C19        7.9270    1.7030    9.3540 C.ar  201  PI5201      0.0417
     20  C20        7.6330    4.0090    9.9640 C.ar  201  PI5201      0.0417
     21  C21        7.8380    3.0360    9.0010 C.ar  201  PI5201      0.1957
     22  C22        6.1730    0.6200   14.8240 C.3   201  PI5201      0.1894
     23  C23        4.9850   -0.2890   15.1060 C.3   201  PI5201      0.1245
     24  O24        7.3840   -0.0730   15.1370 O.3   201  PI5201     -0.2197
     25  O25        7.9460    3.3900    7.6750 O.3   201  PI5201     -0.2866
     26  N26        5.0220   -0.6580   16.5240 N.3   201  PI5201     -0.2001
     27  C27        4.8090   -2.1090   16.8080 C.3   201  PI5201      0.1827
     28  C28        3.4070   -2.5610   16.3990 C.3   201  PI5201      0.0607
     29  C29        3.2560   -4.0520   16.5240 C.ar  201  PI5201     -0.0194
     30  C30        3.2090   -4.6630   17.7790 C.ar  201  PI5201     -0.0011
     31  C31        3.2090   -6.0390   17.9030 C.ar  201  PI5201      0.0366
     32  C32        3.2850   -4.8640   15.3950 C.ar  201  PI5201     -0.0011
     33  C33        3.2870   -6.2380   15.5090 C.ar  201  PI5201      0.0366
     34  C34        3.2550   -6.8200   16.7620 C.ar  201  PI5201      0.1385
     35  O35        3.2990   -8.1900   16.8510 O.3   201  PI5201     -0.4754
     36  C36        3.8180   -8.8460   17.9920 C.3   201  PI5201      0.2075
     37  C37        5.8340   -3.1040   16.2610 C.1   201  PI5201      0.1429
     38  O38        6.0910   -3.1640   15.0560 O.2   201  PI5201     -0.2256
     39  N39        6.3990   -3.8970   17.1670 N.2   201  PI5201     -0.1901
     40  C40        7.3890   -4.9310   16.8300 C.3   201  PI5201      0.2189
     41  C41        7.0690   -6.0100   17.8670 C.1   201  PI5201      0.1491
     42  O42        7.2130   -5.7790   19.0760 O.2   201  PI5201     -0.2251
     43  C43        8.8560   -4.4570   17.0510 C.3   201  PI5201      0.0393
     44  C44        9.2160   -3.3310   16.0840 C.3   201  PI5201      0.0031
     45  C45        9.8250   -5.6170   16.8520 C.3   201  PI5201      0.0032
     46  C46        9.5520   -3.7930   14.6950 C.3   201  PI5201      0.0001
     47  N47        6.5900   -7.1610   17.4020 N.2   201  PI5201     -0.2046
     48  C48        6.2670   -8.2470   18.3150 C.3   201  PI5201      0.1414
     49  C49        5.2680   -9.2710   17.7810 C.3   201  PI5201      0.0745
@<TRIPOS>BOND
     1    25    21    1
     2     1     2    1
     3     1     5    1
     4    21    19   ar
     5    21    20   ar
     6     2     6    1
     7     5     3    1
     8    19    17   ar
     9    20    18   ar
    10     6     3   am
    11     6     7    1
    12     3     4    2
    13    17    16   ar
    14    10     8    1
    15    18    16   ar
    16     8     7    1
    17     8     9    1
    18    12    11    2
    19    16    15    1
    20     7    11    1
    21    11    13   am
    22    13    14    1
    23    15    14    1
    24    14    22    1
    25    46    44    1
    26    22    23    1
    27    22    24    1
    28    38    37    2
    29    23    26    1
    30    32    33   ar
    31    32    29   ar
    32    33    34   ar
    33    44    43    1
    34    37    27    1
    35    37    39    2
    36    28    29    1
    37    28    27    1
    38    26    27    1
    39    29    30   ar
    40    34    35    1
    41    34    31   ar
    42    40    43    1
    43    40    39    1
    44    40    41    1
    45    35    36    1
    46    45    43    1
    47    47    41    2
    48    47    48    1
    49    30    31   ar
    50    49    36    1
    51    49    48    1
    52    41    42    2
