@<TRIPOS>MOLECULE
1b6l_PI4_A_1.pdb
 39 41 0 0 0
SMALL
GASTEIGER

@<TRIPOS>ATOM
      1  C1         6.1160    2.8190    8.8070 C.3   201  PI4201      0.0650
      2  C2         4.2430    3.2310   10.4450 C.1   201  PI4201      0.1271
      3  O3         4.1710    4.1370   11.2750 O.2   201  PI4201     -0.2270
      4  C4         4.7890    3.4970    9.0560 C.3   201  PI4201      0.1255
      5  N5         3.8770    1.9790   10.7050 N.2   201  PI4201     -0.1907
      6  C6         3.3110    1.5880   12.0060 C.3   201  PI4201      0.2281
      7  C7         3.9670    0.3640   12.6350 C.1   201  PI4201      0.1496
      8  O8         3.9310   -0.7320   12.0750 O.2   201  PI4201     -0.2251
      9  C9         1.8140    1.3240   11.8550 C.3   201  PI4201      0.1307
     10  C10        1.0770    2.5020   11.2770 C.2   201  PI4201      0.2639
     11  O11        0.5120    3.3110   12.0060 O.2   201  PI4201     -0.2715
     12  N12        1.0980    2.6210    9.9530 N.am  201  PI4201     -0.0877
     13  N13        4.5560    0.5590   13.8100 N.2   201  PI4201     -0.2037
     14  C14        5.2190   -0.5330   14.5340 C.3   201  PI4201      0.1505
     15  C15        6.7350   -0.3200   14.5350 C.3   201  PI4201      0.0542
     16  C16        7.2100    0.4410   13.3290 C.ar  201  PI4201     -0.0199
     17  C17        7.3330    1.8230   13.3770 C.ar  201  PI4201     -0.0011
     18  C18        7.6760    2.5460   12.2630 C.ar  201  PI4201      0.0366
     19  C19        7.4640   -0.2060   12.1200 C.ar  201  PI4201     -0.0011
     20  C20        7.8110    0.5160   10.9900 C.ar  201  PI4201      0.0366
     21  C21        7.9150    1.8950   11.0740 C.ar  201  PI4201      0.1385
     22  O22        8.2220    2.6510    9.9710 O.3   201  PI4201     -0.4754
     23  C23        7.2420    3.5620    9.5120 C.3   201  PI4201      0.2066
     24  C24        4.6850   -0.6120   15.9760 C.3   201  PI4201      0.1912
     25  O25        5.0950    0.5410   16.7170 O.3   201  PI4201     -0.2195
     26  C26        5.1720   -1.8710   16.6730 C.3   201  PI4201      0.1077
     27  N27        4.4230   -3.0340   16.1410 N.3   201  PI4201     -0.2643
     28  C28        5.1850   -4.2660   16.4870 C.3   201  PI4201      0.1365
     29  C29        4.4110   -5.5030   16.0160 C.3   201  PI4201      0.0254
     30  C30        2.9920   -5.5790   16.5630 C.3   201  PI4201      0.0033
     31  C31        2.2510   -4.2800   16.2880 C.3   201  PI4201      0.0174
     32  C32        3.0580   -3.0800   16.7610 C.3   201  PI4201      0.0725
     33  C33        6.5680   -4.2310   15.8390 C.2   201  PI4201      0.2558
     34  O34        6.7200   -3.7110   14.7320 O.2   201  PI4201     -0.2719
     35  C35        8.9620   -4.8510   16.0860 C.3   201  PI4201      0.0788
     36  C36        9.4410   -3.4850   15.6080 C.3   201  PI4201      0.0217
     37  C37        9.8500   -5.3020   17.2420 C.3   201  PI4201      0.0217
     38  C38        9.0930   -5.8660   14.9560 C.3   201  PI4201      0.0217
     39  N39        7.5630   -4.7800   16.5410 N.am  201  PI4201     -0.2077
@<TRIPOS>BOND
     1     1     4    1
     2     1    23    1
     3     4     2    1
     4    23    22    1
     5    12    10   am
     6    22    21    1
     7     2     5    2
     8     2     3    2
     9     5     6    1
    10    20    21   ar
    11    20    19   ar
    12    21    18   ar
    13    10     9    1
    14    10    11    2
    15     9     6    1
    16     6     7    1
    17     8     7    2
    18    19    16   ar
    19    18    17   ar
    20     7    13    2
    21    16    17   ar
    22    16    15    1
    23    13    14    1
    24    14    15    1
    25    14    24    1
    26    34    33    2
    27    38    35    1
    28    36    35    1
    29    33    28    1
    30    33    39   am
    31    24    26    1
    32    24    25    1
    33    29    28    1
    34    29    30    1
    35    35    39    1
    36    35    37    1
    37    27    28    1
    38    27    26    1
    39    27    32    1
    40    31    30    1
    41    31    32    1
