@<TRIPOS>MOLECULE
1b6m_PI6_B_1.pdb
 43 45 0 0 0
SMALL
GASTEIGER

@<TRIPOS>ATOM
      1  O1         3.8350   -0.0320   12.0460 O.2   201  PI6201     -0.2246
      2  C          3.8210    1.1580   12.3990 C.2   201  PI6201      0.4209
      3  O2         2.8080    1.9690   12.1240 O.3   201  PI6201     -0.4408
      4  CT         1.5870    1.3710   11.6460 C.3   201  PI6201      0.1379
      5  C1         1.0770    0.3200   12.6340 C.3   201  PI6201      0.0437
      6  C2         0.5560    2.4860   11.5390 C.3   201  PI6201      0.0437
      7  C3         1.8090    0.7650   10.2580 C.3   201  PI6201      0.0437
      8  N          4.8280    1.7130   13.0680 N.am  201  PI6201     -0.1675
      9  CA         6.0330    0.9660   13.4470 C.3   201  PI6201      0.1347
     10  C4         6.0080    0.5390   14.9040 C.3   201  PI6201      0.1895
     11  OXT        7.2050   -0.1890   15.1920 O.3   201  PI6201     -0.2197
     12  CB         7.2750    1.8050   13.1830 C.3   201  PI6201      0.0508
     13  CG         7.4750    2.1320   11.7460 C.ar  201  PI6201     -0.0204
     14  CD1        7.2350    3.4170   11.2760 C.ar  201  PI6201     -0.0042
     15  CD2        7.8650    1.1460   10.8500 C.ar  201  PI6201     -0.0042
     16  CE1        7.3850    3.7170    9.9340 C.ar  201  PI6201     -0.0003
     17  CE2        8.0170    1.4350    9.5080 C.ar  201  PI6201     -0.0003
     18  CZ         7.7720    2.7230    9.0460 C.ar  201  PI6201     -0.0000
     19  CM         4.8040   -0.3490   15.1870 C.3   201  PI6201      0.1245
     20  N1         4.8920   -0.7540   16.6000 N.3   201  PI6201     -0.2001
     21  CA1        4.6730   -2.2010   16.8610 C.3   201  PI6201      0.1827
     22  C5         5.6890   -3.1860   16.2910 C.1   201  PI6201      0.1429
     23  O          5.9960   -3.1750   15.0970 O.2   201  PI6201     -0.2256
     24  CB1        3.2670   -2.6540   16.4460 C.3   201  PI6201      0.0607
     25  CG1        3.1210   -4.1510   16.5700 C.ar  201  PI6201     -0.0194
     26 CD11        3.1690   -4.9630   15.4390 C.ar  201  PI6201     -0.0011
     27 CD21        3.0910   -4.7670   17.8230 C.ar  201  PI6201     -0.0011
     28 CE11        3.2090   -6.3390   15.5470 C.ar  201  PI6201      0.0366
     29 CE21        3.1310   -6.1480   17.9420 C.ar  201  PI6201      0.0366
     30  CZ1        3.1980   -6.9280   16.7950 C.ar  201  PI6201      0.1385
     31  N2         6.1870   -4.0500   17.1690 N.2   201  PI6201     -0.1901
     32  CA2        7.1520   -5.1000   16.8150 C.3   201  PI6201      0.2189
     33  C6         6.9120   -6.1780   17.8650 C.1   201  PI6201      0.1491
     34  O3         7.0470   -5.9220   19.0640 O.2   201  PI6201     -0.2251
     35  CB2        8.6280   -4.6370   16.8950 C.3   201  PI6201      0.0393
     36 CG11        8.8980   -3.5650   15.8390 C.3   201  PI6201      0.0031
     37  CG2        9.5670   -5.8310   16.6960 C.3   201  PI6201      0.0032
     38 CD12       10.3440   -3.3980   15.4840 C.3   201  PI6201      0.0001
     39  OH         3.3050   -8.2960   16.8630 O.3   201  PI6201     -0.4754
     40  N3         6.5080   -7.3620   17.4150 N.2   201  PI6201     -0.2046
     41  CA3        6.2540   -8.4570   18.3350 C.3   201  PI6201      0.1414
     42  C7         5.2130   -9.4540   17.8450 C.3   201  PI6201      0.0745
     43  C8         3.7900   -8.9410   18.0290 C.3   201  PI6201      0.2075
@<TRIPOS>BOND
     1    18    17   ar
     2    18    16   ar
     3    17    15   ar
     4    16    14   ar
     5     7     4    1
     6    15    13   ar
     7    14    13   ar
     8     6     4    1
     9     4     3    1
    10     4     5    1
    11    13    12    1
    12     1     2    2
    13     3     2    1
    14     2     8   am
    15     8     9    1
    16    12     9    1
    17     9    10    1
    18    10    19    1
    19    10    11    1
    20    23    22    2
    21    19    20    1
    22    26    28   ar
    23    26    25   ar
    24    38    36    1
    25    28    30   ar
    26    36    35    1
    27    22    21    1
    28    22    31    2
    29    24    25    1
    30    24    21    1
    31    25    27   ar
    32    20    21    1
    33    37    35    1
    34    30    39    1
    35    30    29   ar
    36    32    35    1
    37    32    31    1
    38    32    33    1
    39    39    43    1
    40    40    33    2
    41    40    41    1
    42    27    29   ar
    43    42    43    1
    44    42    41    1
    45    33    34    2
