@<TRIPOS>MOLECULE
1b6p_PI7_A_1.pdb
 48 50 0 0 0
SMALL
GASTEIGER

@<TRIPOS>ATOM
      1  C1         4.5630    4.0010    8.3210 C.3   201  PI7201      0.0101
      2  C2         3.4360    4.5310    9.1740 C.3   201  PI7201      0.0868
      3  C3         3.4030    3.8420   10.5380 C.2   201  PI7201      0.2418
      4  O4         3.7610    4.4410   11.5530 O.2   201  PI7201     -0.2733
      5  N5         2.9830    2.5800   10.5530 N.am  201  PI7201     -0.1978
      6  C6         2.8660    1.8050   11.8030 C.3   201  PI7201      0.1726
      7  C7         4.0830    0.9430   12.1490 C.2   201  PI7201      0.2612
      8  O8         4.1980   -0.2060   11.7110 O.2   201  PI7201     -0.2715
      9  C9         1.5910    0.9310   11.7770 C.3   201  PI7201      0.0290
     10  C10        1.4310    0.1730   13.0840 C.3   201  PI7201      0.0023
     11  C11        0.3740    1.8040   11.5190 C.3   201  PI7201      0.0023
     12  N12        4.9680    1.4910   12.9750 N.am  201  PI7201     -0.2027
     13  C13        6.1810    0.7720   13.3940 C.3   201  PI7201      0.1314
     14  C14        7.4100    1.6560   13.1960 C.3   201  PI7201      0.0506
     15  C15        7.4890    2.2610   11.8200 C.ar  201  PI7201     -0.0202
     16  C16        7.6380    1.4560   10.6930 C.ar  201  PI7201     -0.0009
     17  C17        7.3830    3.6370   11.6410 C.ar  201  PI7201     -0.0009
     18  C18        7.6770    2.0070    9.4210 C.ar  201  PI7201      0.0417
     19  C19        7.4220    4.1990   10.3730 C.ar  201  PI7201      0.0417
     20  C20        7.5670    3.3770    9.2680 C.ar  201  PI7201      0.1957
     21  C21        6.0910    0.3320   14.8580 C.3   201  PI7201      0.1894
     22  C22        4.8840   -0.5730   15.0820 C.3   201  PI7201      0.1245
     23  O23        7.2830   -0.3770   15.2120 O.3   201  PI7201     -0.2197
     24  O24        7.5850    3.9280    8.0080 O.3   201  PI7201     -0.2866
     25  N25        4.8820   -0.9670   16.5060 N.3   201  PI7201     -0.2001
     26  C26        4.6710   -2.4110   16.8090 C.3   201  PI7201      0.1827
     27  C27        3.2320   -2.8410   16.5010 C.3   201  PI7201      0.0607
     28  C28        3.0550   -4.3340   16.6410 C.ar  201  PI7201     -0.0194
     29  C29        3.0400   -4.9370   17.8990 C.ar  201  PI7201     -0.0011
     30  C30        3.0240   -6.3180   18.0300 C.ar  201  PI7201      0.0366
     31  C31        3.0330   -5.1550   15.5170 C.ar  201  PI7201     -0.0011
     32  C32        3.0160   -6.5320   15.6350 C.ar  201  PI7201      0.0366
     33  C33        3.0180   -7.1120   16.8880 C.ar  201  PI7201      0.1385
     34  O34        3.0420   -8.4890   16.9630 O.3   201  PI7201     -0.4754
     35  C35        3.7280   -8.9520   18.1170 C.3   201  PI7201      0.2075
     36  C36        5.6430   -3.4390   16.2130 C.1   201  PI7201      0.1429
     37  O37        5.7940   -3.5610   14.9950 O.2   201  PI7201     -0.2256
     38  N38        6.2620   -4.2000   17.1120 N.2   201  PI7201     -0.1901
     39  C39        7.1980   -5.2890   16.7830 C.3   201  PI7201      0.2189
     40  C40        6.9550   -6.3660   17.8430 C.1   201  PI7201      0.1491
     41  O41        7.1020   -6.1210   19.0450 O.2   201  PI7201     -0.2251
     42  C42        8.6750   -4.8280   16.8010 C.3   201  PI7201      0.0393
     43  C43        8.9080   -3.7920   15.6980 C.3   201  PI7201      0.0031
     44  C44        9.6070   -6.0200   16.5900 C.3   201  PI7201      0.0032
     45  C45       10.2840   -3.2030   15.6970 C.3   201  PI7201      0.0001
     46  N46        6.5130   -7.5330   17.3840 N.2   201  PI7201     -0.2046
     47  C47        6.2380   -8.6400   18.2810 C.3   201  PI7201      0.1414
     48  C48        5.1030   -9.5230   17.7730 C.3   201  PI7201      0.0745
@<TRIPOS>BOND
     1    24    20    1
     2     1     2    1
     3     2     3    1
     4    20    18   ar
     5    20    19   ar
     6    18    16   ar
     7    19    17   ar
     8     3     5   am
     9     3     4    2
    10     5     6    1
    11    16    15   ar
    12    11     9    1
    13    17    15   ar
    14     8     7    2
    15     9     6    1
    16     9    10    1
    17     6     7    1
    18    15    14    1
    19     7    12   am
    20    12    13    1
    21    14    13    1
    22    13    21    1
    23    21    22    1
    24    21    23    1
    25    37    36    2
    26    22    25    1
    27    31    32   ar
    28    31    28   ar
    29    32    33   ar
    30    45    43    1
    31    43    42    1
    32    36    26    1
    33    36    38    2
    34    27    28    1
    35    27    26    1
    36    25    26    1
    37    44    42    1
    38    28    29   ar
    39    39    42    1
    40    39    38    1
    41    39    40    1
    42    33    34    1
    43    33    30   ar
    44    34    35    1
    45    46    40    2
    46    46    47    1
    47    48    35    1
    48    48    47    1
    49    40    41    2
    50    29    30   ar
