@<TRIPOS>MOLECULE
1b6s_ADP_A_1.pdb
 27 29 0 0 0
SMALL
GASTEIGER

@<TRIPOS>ATOM
      1  PB        22.2550   12.1720  -11.5810 P.3   1100  ADP1100     0.5373
      2  O1B       23.5750   12.2350  -10.8870 O.3   1100  ADP1100    -0.1143
      3  O2B       22.3380   11.2570  -12.7590 O.2   1100  ADP1100    -0.2221
      4  O3B       21.1110   11.8010  -10.6620 O.3   1100  ADP1100    -0.1143
      5  PA        22.4460   14.8840  -12.7540 P.3   1100  ADP1100     0.2231
      6  O1A       23.5930   14.4300  -13.5680 O.3   1100  ADP1100    -0.4370
      7  O2A       21.5830   15.6900  -13.6530 O.2   1100  ADP1100    -0.5169
      8  O3A       21.7350   13.6840  -12.0360 O.3   1100  ADP1100    -0.2261
      9  O5'       23.0210   15.8280  -11.5980 O.3   1100  ADP1100    -0.3111
     10  C5'       22.6520   15.6530  -10.2100 C.3   1100  ADP1100     0.1813
     11  C4'       22.7570   17.0080   -9.5400 C.3   1100  ADP1100     0.1821
     12  O4'       23.8610   17.7730  -10.1000 O.3   1100  ADP1100    -0.3135
     13  C3'       21.6390   17.9580   -9.8650 C.3   1100  ADP1100     0.2184
     14  O3'       20.2870   17.3970   -9.5530 O.3   1100  ADP1100    -0.2174
     15  C2'       22.2900   19.1930   -9.2370 C.3   1100  ADP1100     0.2570
     16  O2'       22.5640   19.1920   -7.7690 O.3   1100  ADP1100    -0.2130
     17  C1'       23.6210   19.1420   -9.9710 C.3   1100  ADP1100     0.3186
     18  N9        23.6730   19.6910  -11.3370 N.pl3 1100  ADP1100    -0.1439
     19  C8        23.6480   18.9710  -12.5150 C.3   1100  ADP1100     0.3377
     20  N7        23.9190   19.7210  -13.6030 N.2   1100  ADP1100    -0.2095
     21  C5        24.0760   20.9960  -13.0830 C.2   1100  ADP1100     0.2526
     22  C6        24.3430   22.2090  -13.7390 C.2   1100  ADP1100     0.4393
     23  N6        24.5010   22.2850  -15.0640 N.pl3 1100  ADP1100     0.2180
     24  N1        24.4110   23.3170  -12.9370 N.2   1100  ADP1100     0.0021
     25  C2        24.2260   23.1740  -11.5810 C.3   1100  ADP1100     0.5254
     26  N3        23.9840   22.0900  -10.8920 N.2   1100  ADP1100    -0.0055
     27  C4        23.8980   21.0120  -11.7000 C.2   1100  ADP1100     0.3518
@<TRIPOS>BOND
     1    23    22    1
     2    22    21    1
     3    22    24    2
     4     7     5    2
     5    20    21    2
     6    20    19    1
     7     6     5    1
     8    21    27    1
     9    24    25    1
    10     3     1    2
    11     5     8    1
    12     5     9    1
    13    19    18    1
    14     8     1    1
    15    27    18    1
    16    27    26    2
    17     9    10    1
    18     1     2    1
    19     1     4    1
    20    25    26    1
    21    18    17    1
    22    10    11    1
    23    12    17    1
    24    12    11    1
    25    17    15    1
    26    13    14    1
    27    13    11    1
    28    13    15    1
    29    15    16    1
