@<TRIPOS>MOLECULE
1b6t_COD_B_1.pdb
 44 46 0 0 0
SMALL
GASTEIGER

@<TRIPOS>ATOM
      1  N1        23.8970   20.3970   42.1640 N.2   3000  COD3000     0.0021
      2  C2        23.1640   21.5570   42.4270 C.3   3000  COD3000     0.5254
      3  N3        22.1070   21.9520   41.6250 N.2   3000  COD3000    -0.0055
      4  C4        21.7580   21.1740   40.5200 C.2   3000  COD3000     0.3518
      5  C5        22.4670   20.0070   40.2160 C.2   3000  COD3000     0.2526
      6  C6        23.5960   19.5980   41.0830 C.2   3000  COD3000     0.4393
      7  N7        24.2720   18.4870   40.8010 N.pl3 3000  COD3000     0.2180
      8  N8        22.0450   19.3940   39.1790 N.2   3000  COD3000    -0.2095
      9  C9        20.9610   20.1750   38.7110 C.3   3000  COD3000     0.3377
     10  N10       20.8550   21.2750   39.6110 N.pl3 3000  COD3000    -0.1439
     11  C11       19.8700   22.3490   39.5400 C.3   3000  COD3000     0.3186
     12  C12       19.7870   23.1560   38.2020 C.3   3000  COD3000     0.2570
     13  O13       20.8690   24.0900   38.0520 O.3   3000  COD3000    -0.2130
     14  C14       18.4000   23.7980   38.3240 C.3   3000  COD3000     0.2184
     15  O15       18.5360   25.0020   39.1050 O.3   3000  COD3000    -0.2174
     16  C16       17.6330   22.7280   39.0560 C.3   3000  COD3000     0.1821
     17  O17       18.5470   21.8600   39.7710 O.3   3000  COD3000    -0.3135
     18  C18       16.8270   21.9070   38.0570 C.3   3000  COD3000     0.1813
     19  O19       17.7100   21.3090   37.0760 O.3   3000  COD3000    -0.3112
     20  P20       17.1340   20.4710   35.8110 P.3   3000  COD3000     0.2189
     21  O21       18.2270   20.2810   34.7290 O.2   3000  COD3000    -0.5170
     22  O22       16.5550   19.0970   36.2670 O.3   3000  COD3000    -0.4371
     23  O23       15.9820   21.4270   35.3120 O.3   3000  COD3000    -0.2703
     24  P24       16.0930   22.5880   34.2820 P.3   3000  COD3000     0.2188
     25  O25       17.1780   23.5910   34.7080 O.3   3000  COD3000    -0.4371
     26  O26       16.4140   21.9650   32.9050 O.2   3000  COD3000    -0.5170
     27  O27       14.6260   23.1830   34.2540 O.3   3000  COD3000    -0.3138
     28  C28       14.1770   24.2560   33.4730 C.3   3000  COD3000     0.1519
     29  C29       12.6610   24.3940   33.8060 C.3   3000  COD3000     0.0645
     30  C30       12.0000   23.0090   33.4620 C.3   3000  COD3000     0.0056
     31  C31       12.4530   24.6840   35.3530 C.3   3000  COD3000     0.0056
     32  C32       12.0950   25.5710   32.9140 C.3   3000  COD3000     0.2312
     33  O33       12.3070   25.2870   31.5150 O.3   3000  COD3000    -0.2131
     34  C34       10.5470   25.8050   33.1260 C.2   3000  COD3000     0.2719
     35  O35       10.1530   26.6420   33.9970 O.2   3000  COD3000    -0.2706
     36  N36        9.7090   25.0690   32.3390 N.am  3000  COD3000    -0.2028
     37  C37        8.2320   25.1560   32.3990 C.3   3000  COD3000     0.1248
     38  C38        7.7250   26.0580   31.2480 C.3   3000  COD3000     0.1102
     39  C39        7.9600   27.5250   31.5670 C.2   3000  COD3000     0.2432
     40  O40        7.2300   28.1530   32.3510 O.2   3000  COD3000    -0.2733
     41  N41        9.0000   28.0860   30.9570 N.am  3000  COD3000    -0.2044
     42  C42        9.4490   29.5390   31.1090 C.3   3000  COD3000     0.1276
     43  C43       10.3540   29.6090   32.2420 C.3   3000  COD3000     0.0920
     44  S44       10.8250   31.2730   32.3610 S.3   3000  COD3000    -0.0802
@<TRIPOS>BOND
     1    41    42    1
     2    41    39   am
     3    42    43    1
     4    38    39    1
     5    38    37    1
     6    33    32    1
     7    39    40    2
     8    43    44    1
     9    36    37    1
    10    36    34   am
    11    26    24    2
    12    32    34    1
    13    32    29    1
    14    34    35    2
    15    30    29    1
    16    28    29    1
    17    28    27    1
    18    29    31    1
    19    27    24    1
    20    24    25    1
    21    24    23    1
    22    21    20    2
    23    23    20    1
    24    20    22    1
    25    20    19    1
    26    19    18    1
    27    13    12    1
    28    18    16    1
    29    12    14    1
    30    12    11    1
    31    14    16    1
    32    14    15    1
    33     9     8    1
    34     9    10    1
    35    16    17    1
    36     8     5    2
    37    11    10    1
    38    11    17    1
    39    10     4    1
    40     5     4    1
    41     5     6    1
    42     4     3    2
    43     7     6    1
    44     6     1    2
    45     3     2    1
    46     1     2    1
