@<TRIPOS>MOLECULE
1b70_PHE_A_1.pdb
 12 12 0 0 0
SMALL
GASTEIGER

@<TRIPOS>ATOM
      1  N         19.6450   61.6470   18.5170 N.3   352  PHE352     -0.1205
      2  CA        19.2870   63.0970   18.7130 C.3   352  PHE352      0.1986
      3  C         17.9260   63.2870   19.3220 C.2   352  PHE352      0.3822
      4  O         17.5840   62.5040   20.1810 O.co2 352  PHE352     -0.2440
      5  CB        19.3620   63.8060   17.3090 C.3   352  PHE352      0.0569
      6  CG        20.6490   64.5980   17.1350 C.ar  352  PHE352     -0.0202
      7  CD1       20.6380   65.9860   17.2220 C.ar  352  PHE352     -0.0042
      8  CD2       21.8780   63.9610   16.9590 C.ar  352  PHE352     -0.0042
      9  CE1       21.8270   66.7460   17.1310 C.ar  352  PHE352     -0.0003
     10  CE2       23.0620   64.7020   16.8660 C.ar  352  PHE352     -0.0003
     11  CZ        23.0440   66.0890   16.9450 C.ar  352  PHE352     -0.0000
     12  OXT       17.2000   64.0770   19.0300 O.co2 352  PHE352     -0.2440
@<TRIPOS>BOND
     1    10    11   ar
     2    10     8   ar
     3    11     9   ar
     4     8     6   ar
     5     9     7   ar
     6     6     7   ar
     7     6     5    1
     8     5     2    1
     9     1     2    1
    10     2     3    1
    11    12     3   ar
    12     3     4   ar
