@<TRIPOS>MOLECULE
1b74_DGN_A_1.pdb
 10 9 0 0 0
SMALL
GASTEIGER

@<TRIPOS>ATOM
      1  N         22.8340   33.4800   29.8040 N.3   538  DGN538     -0.1208
      2  CA        22.3240   33.5900   28.5110 C.3   538  DGN538      0.1948
      3  C         21.8400   32.2630   28.0660 C.2   538  DGN538      0.3819
      4  O         21.3130   32.1230   26.9450 O.co2 538  DGN538     -0.2441
      5  OXT       21.9730   31.2790   28.8100 O.co2 538  DGN538     -0.2441
      6  CB        21.2510   34.6010   28.5290 C.3   538  DGN538      0.0403
      7  CG        21.7630   35.9030   29.1310 C.3   538  DGN538      0.0906
      8  CD        20.6480   36.8320   29.1300 C.2   538  DGN538      0.2608
      9  OE1       19.4880   36.3960   28.9370 O.2   538  DGN538     -0.2717
     10  NE2       21.0120   38.1270   29.3580 N.am  538  DGN538     -0.0878
@<TRIPOS>BOND
     1     4     3   ar
     2     3     2    1
     3     3     5   ar
     4     2     6    1
     5     2     1    1
     6     6     7    1
     7     9     8    2
     8     8     7    1
     9     8    10   am
