@<TRIPOS>MOLECULE
1b76_ATP_A_1.pdb
 34 36 0 0 0
SMALL
GASTEIGER

@<TRIPOS>ATOM
      1  PG        27.3930   21.9210   31.9490 P.3   1552  ATP1552     0.5373
      2  O1G       27.2430   20.4760   31.4820 O.3   1552  ATP1552    -0.1143
      3  O2G       28.4100   22.0730   33.0820 O.3   1552  ATP1552    -0.1143
      4  O3G       27.7210   22.8520   30.7900 O.2   1552  ATP1552    -0.2221
      5  PB        24.4320   22.2790   32.0350 P.3   1552  ATP1552     0.2277
      6  O1B       24.1000   23.5960   31.4210 O.3   1552  ATP1552    -0.4368
      7  O2B       24.2620   21.0300   31.2240 O.2   1552  ATP1552    -0.5168
      8  O3B       25.9620   22.3610   32.5870 O.3   1552  ATP1552    -0.2258
      9  PA        22.4470   23.1470   34.0490 P.3   1552  ATP1552     0.2189
     10  O1A       21.2790   23.2100   33.1210 O.2   1552  ATP1552    -0.5170
     11  O2A       22.2390   22.7260   35.4640 O.3   1552  ATP1552    -0.4371
     12  O3A       23.5240   22.1450   33.3770 O.3   1552  ATP1552    -0.2700
     13  O5'       23.2260   24.5420   34.0800 O.3   1552  ATP1552    -0.3112
     14  C5'       22.5490   25.7940   33.9480 C.3   1552  ATP1552     0.1813
     15  C4'       23.5040   26.8350   33.4290 C.3   1552  ATP1552     0.1820
     16  O4'       24.5350   27.0340   34.4120 O.3   1552  ATP1552    -0.3136
     17  C3'       24.2680   26.4110   32.1900 C.3   1552  ATP1552     0.2149
     18  O3'       23.5380   26.7500   31.0270 O.3   1552  ATP1552    -0.2176
     19  C2'       25.5030   27.2780   32.2580 C.3   1552  ATP1552     0.2171
     20  O2'       25.2260   28.5800   31.8080 O.3   1552  ATP1552    -0.3762
     21  C1'       25.7460   27.3430   33.7570 C.3   1552  ATP1552     0.3150
     22  N9        26.7880   26.4370   34.2250 N.pl3 1552  ATP1552    -0.1440
     23  C8        26.6660   25.1360   34.6370 C.3   1552  ATP1552     0.3377
     24  N7        27.7930   24.5990   35.0490 N.2   1552  ATP1552    -0.2098
     25  C5        28.7230   25.6170   34.8840 C.2   1552  ATP1552     0.2438
     26  C6        30.1020   25.6890   35.1480 C.2   1552  ATP1552     0.3428
     27  N6        30.8010   24.6770   35.6590 N.pl3 1552  ATP1552    -0.2449
     28  N1        30.7400   26.8470   34.8660 N.2   1552  ATP1552    -0.0059
     29  C2        30.0250   27.8620   34.3540 C.3   1552  ATP1552     0.5252
     30  N3        28.7230   27.9180   34.0680 N.2   1552  ATP1552    -0.0055
     31  C4        28.1200   26.7510   34.3630 C.2   1552  ATP1552     0.3515
     32 HO2'       26.0340   29.0770   31.8720 H     1552  ATP1552     0.2107
     33 HN61       31.7850   24.7810   35.8430 H     1552  ATP1552     0.2885
     34 HN62       30.3330   23.8110   35.8840 H     1552  ATP1552     0.2885
@<TRIPOS>BOND
     1     4     1    2
     2    18    17    1
     3     7     5    2
     4     6     5    1
     5     2     1    1
     6    20    32    1
     7    20    19    1
     8     1     8    1
     9     1     3    1
    10     5     8    1
    11     5    12    1
    12    17    19    1
    13    17    15    1
    14    19    21    1
    15    10     9    2
    16    12     9    1
    17    15    14    1
    18    15    16    1
    19    21    22    1
    20    21    16    1
    21    14    13    1
    22     9    13    1
    23     9    11    1
    24    30    29    1
    25    30    31    2
    26    22    31    1
    27    22    23    1
    28    29    28    1
    29    31    25    1
    30    23    24    1
    31    28    26    2
    32    25    24    2
    33    25    26    1
    34    26    27    1
    35    27    33    1
    36    27    34    1
