@<TRIPOS>MOLECULE
1b7e_TPT_A_1.pdb
 19 23 0 0 0
SMALL
GASTEIGER

@<TRIPOS>ATOM
      1 PT1        77.9540   43.7830   27.1900 Pt    480  TPT480      0.0000
      2  N1        78.5960   45.6490   26.6060 N.pl3 480  TPT480      0.0000
      3  N2        78.8690   44.3310   29.0890 N.pl3 480  TPT480      0.0000
      4  N3        77.4260   42.2440   28.4440 N.pl3 480  TPT480      0.0000
      5  C1        78.5160   46.1050   25.3530 C.3   480  TPT480      0.0000
      6  C2        79.1550   47.2840   25.0610 C.2   480  TPT480      0.0000
      7  C3        79.9300   47.9250   26.0240 C.2   480  TPT480      0.0000
      8  C4        80.0860   47.3790   27.2810 C.2   480  TPT480      0.0000
      9  C5        79.4350   46.2130   27.5780 C.2   480  TPT480      0.0000
     10  C6        79.5640   45.5020   28.9290 C.3   480  TPT480      0.0000
     11  C7        80.2740   45.9230   30.0320 C.2   480  TPT480      0.0000
     12  C8        80.2500   45.1670   31.2100 C.2   480  TPT480      0.0000
     13  C9        79.5540   43.9590   31.3010 C.2   480  TPT480      0.0000
     14  C10       78.8240   43.5180   30.2210 C.2   480  TPT480      0.0000
     15  C11       77.9140   42.4680   29.6730 C.3   480  TPT480      0.0000
     16  C12       77.6070   41.4690   30.5500 C.2   480  TPT480      0.0000
     17  C13       76.8250   40.4130   30.1960 C.2   480  TPT480      0.0000
     18  C14       76.2890   40.3090   28.9360 C.2   480  TPT480      0.0000
     19  C15       76.6350   41.2390   28.0230 C.2   480  TPT480      0.0000
@<TRIPOS>BOND
     1     6     5    1
     2     6     7    2
     3     5     2    1
     4     7     8    1
     5     2     1    1
     6     2     9    1
     7     1     4    1
     8     1     3    1
     9     8     9    2
    10     9    10    1
    11    19     4    1
    12    19    18    2
    13     4    15    1
    14    10     3    1
    15    10    11    1
    16    18    17    1
    17     3    14    1
    18    15    14    1
    19    15    16    1
    20    11    12    2
    21    17    16    2
    22    14    13    2
    23    12    13    1
