@<TRIPOS>MOLECULE
1b7h_III_B_1.pdb
 27 26 0 0 0
SMALL
GASTEIGER

@<TRIPOS>ATOM
      1  N         42.7730   31.7660   22.9020 N.3     1  LYS1       -0.1231
      2  CA        42.7770   33.2290   22.5870 C.3     1  LYS1        0.1693
      3  C         41.9100   33.9400   23.6270 C.2     1  LYS1        0.2592
      4  O         40.9170   33.4330   24.1420 O.2     1  LYS1       -0.2718
      5  CB        42.3440   33.6180   21.1640 C.3     1  LYS1        0.0285
      6  CG        40.9400   33.0310   20.8140 C.3     1  LYS1        0.0035
      7  CD        40.6820   33.3430   19.2990 C.3     1  LYS1        0.0206
      8  CE        41.2380   32.4520   18.2270 C.3     1  LYS1        0.1093
      9  NZ        40.9720   30.9770   18.4640 N.3     1  LYS1       -0.1314
     10  N         42.3690   35.1730   23.9330 N.am    2  LEU2       -0.1966
     11  CA        41.7540   35.9690   24.9810 C.3     2  LEU2        0.1728
     12  C         40.4550   36.6270   24.4590 C.2     2  LEU2        0.2617
     13  O         40.4400   37.2050   23.3740 O.2     2  LEU2       -0.2715
     14  CB        42.7440   37.0080   25.4310 C.3     2  LEU2        0.0311
     15  CG        43.8880   36.5610   26.3560 C.3     2  LEU2        0.0023
     16  CD        44.5690   37.8580   26.8770 C.3     2  LEU2        0.0001
     17  CE        45.1370   37.7110   28.3010 C.3     2  LEU2        0.0000
     18  N         39.4190   36.5760   25.2760 N.am    3  LYS3       -0.1942
     19  CA        38.1820   37.1940   24.8790 C.3     3  LYS3        0.1978
     20  C         37.8460   38.2870   25.9130 C.2     3  LYS3        0.3842
     21  O         37.0810   39.1960   25.5310 O.co2   3  LYS3       -0.2437
     22  CB        37.0060   36.2150   24.8230 C.3     3  LYS3        0.0333
     23  CG        35.8830   36.9050   23.9690 C.3     3  LYS3        0.0039
     24  CD        34.6810   36.0250   23.8880 C.3     3  LYS3        0.0206
     25  CE        33.4990   36.7010   23.1660 C.3     3  LYS3        0.1093
     26  NZ        33.7350   36.5710   21.6860 N.3     3  LYS3       -0.1314
     27  OXT       38.3900   38.1890   27.0480 O.co2   3  LYS3       -0.2437
@<TRIPOS>BOND
     1     8     9    1
     2     8     7    1
     3     7     6    1
     4     6     5    1
     5     5     2    1
     6    26    25    1
     7     2     1    1
     8     2     3    1
     9    25    24    1
    10    13    12    2
    11     3    10   am
    12     3     4    2
    13    24    23    1
    14    10    11    1
    15    23    22    1
    16    12    11    1
    17    12    18   am
    18    22    19    1
    19    19    18    1
    20    19    20    1
    21    11    14    1
    22    14    15    1
    23    21    20   ar
    24    20    27   ar
    25    15    16    1
    26    16    17    1
