@<TRIPOS>MOLECULE
1b7t_ADP_A_1.pdb
 27 29 0 0 0
SMALL
GASTEIGER

@<TRIPOS>ATOM
      1  PB         3.1150   -4.6500   -1.1970 P.3   999  ADP999      0.5373
      2  O1B        1.7990   -4.5960   -1.9080 O.3   999  ADP999     -0.1143
      3  O2B        2.9950   -4.0450    0.3350 O.3   999  ADP999     -0.1143
      4  O3B        4.2070   -3.9630   -1.9440 O.2   999  ADP999     -0.2221
      5  PA         2.6310   -7.4540   -1.3860 P.3   999  ADP999      0.2231
      6  O1A        2.6550   -7.4980   -2.8740 O.2   999  ADP999     -0.5169
      7  O2A        1.2410   -7.3350   -0.8760 O.3   999  ADP999     -0.4370
      8  O3A        3.4590   -6.1670   -0.9850 O.3   999  ADP999     -0.2261
      9  O5'        3.4130   -8.7050   -0.7500 O.3   999  ADP999     -0.3111
     10  C5'        4.7600   -8.8860   -1.1720 C.3   999  ADP999      0.1813
     11  C4'        5.1030  -10.3760   -1.2460 C.3   999  ADP999      0.1821
     12  O4'        5.2720  -10.9330    0.0640 O.3   999  ADP999     -0.3135
     13  C3'        4.0810  -11.2310   -1.9490 C.3   999  ADP999      0.2184
     14  O3'        4.3970  -11.4160   -3.3360 O.3   999  ADP999     -0.2174
     15  C2'        4.1400  -12.5540   -1.2120 C.3   999  ADP999      0.2570
     16  O2'        5.1080  -13.4730   -1.7510 O.3   999  ADP999     -0.2130
     17  C1'        4.4780  -12.1240    0.2050 C.3   999  ADP999      0.3186
     18  N9         3.2440  -11.9270    1.0760 N.pl3 999  ADP999     -0.1439
     19  C8         2.6780  -10.7480    1.4520 C.3   999  ADP999      0.3377
     20  N7         1.6020  -10.9880    2.2190 N.2   999  ADP999     -0.2095
     21  C5         1.4660  -12.3010    2.3480 C.2   999  ADP999      0.2526
     22  C6         0.5590  -13.1740    3.0090 C.2   999  ADP999      0.4393
     23  N6        -0.4700  -12.6790    3.7290 N.pl3 999  ADP999      0.2180
     24  N1         0.7330  -14.5440    2.9230 N.2   999  ADP999      0.0021
     25  C2         1.7540  -15.0940    2.2080 C.3   999  ADP999      0.5254
     26  N3         2.6260  -14.2740    1.5690 N.2   999  ADP999     -0.0055
     27  C4         2.5230  -12.9070    1.6080 C.2   999  ADP999      0.3518
@<TRIPOS>BOND
     1    14    13    1
     2     6     5    2
     3    13    11    1
     4    13    15    1
     5     4     1    2
     6     2     1    1
     7    16    15    1
     8     5     8    1
     9     5     7    1
    10     5     9    1
    11    11    10    1
    12    11    12    1
    13    15    17    1
    14     1     8    1
    15     1     3    1
    16    10     9    1
    17    12    17    1
    18    17    18    1
    19    18    19    1
    20    18    27    1
    21    19    20    1
    22    26    27    2
    23    26    25    1
    24    27    21    1
    25    25    24    1
    26    20    21    2
    27    21    22    1
    28    24    22    2
    29    22    23    1
