@<TRIPOS>MOLECULE
1b7v_HEM_A_1.pdb
 43 50 0 0 0
SMALL
GASTEIGER

@<TRIPOS>ATOM
      1  CHA       13.0680   26.0110    0.2000 C.2    93  HEM93       0.0000
      2  CHB       10.3220   26.2930    4.1740 C.2    93  HEM93       0.0000
      3  CHC        8.9550   21.6630    3.4440 C.2    93  HEM93       0.0000
      4  CHD       12.2280   21.2280   -0.1320 C.2    93  HEM93       0.0000
      5  C1A       12.4180   26.5150    1.3070 C.2    93  HEM93       0.0000
      6  C2A       12.4720   27.8670    1.7930 C.2    93  HEM93       0.0000
      7  C3A       11.7260   27.9280    2.9070 C.2    93  HEM93       0.0000
      8  C4A       11.1620   26.6150    3.1250 C.2    93  HEM93       0.0000
      9  CMA       11.4380   29.1480    3.8260 C.3    93  HEM93       0.0000
     10  CAA       13.2830   29.0090    1.1330 C.3    93  HEM93       0.0000
     11  CBA       14.7950   28.8650    1.1320 C.3    93  HEM93       0.0000
     12  CGA       15.3570   28.6720    2.5260 C.2    93  HEM93       0.0000
     13  O1A       14.8790   29.3540    3.4660 O.co2  93  HEM93       0.0000
     14  O2A       16.2500   27.7910    2.5870 O.co2  93  HEM93       0.0000
     15  C1B        9.7180   25.0560    4.2650 C.ar   93  HEM93       0.0000
     16  C2B        8.7440   24.7140    5.2960 C.ar   93  HEM93       0.0000
     17  C3B        8.3630   23.4450    5.1010 C.ar   93  HEM93       0.0000
     18  C4B        9.0770   22.9360    3.9420 C.ar   93  HEM93       0.0000
     19  CMB        8.2810   25.7030    6.4040 C.3    93  HEM93       0.0000
     20  CAB        7.3600   22.5840    5.8970 C.2    93  HEM93       0.0000
     21  CBB        6.8950   21.4290    5.4160 C.2    93  HEM93       0.0000
     22  C1C        9.7660   21.1490    2.4590 C.2    93  HEM93       0.0000
     23  C2C        9.8210   19.7560    2.0500 C.2    93  HEM93       0.0000
     24  C3C       10.7200   19.6560    1.0730 C.2    93  HEM93       0.0000
     25  C4C       11.2650   20.9680    0.8240 C.2    93  HEM93       0.0000
     26  CMC        8.9510   18.6420    2.6830 C.3    93  HEM93       0.0000
     27  CAC       11.1570   18.3980    0.2740 C.2    93  HEM93       0.0000
     28  CBC       10.1920   17.6480   -0.3030 C.2    93  HEM93       0.0000
     29  C1D       12.7080   22.4910   -0.3320 C.ar   93  HEM93       0.0000
     30  C2D       13.6610   22.8410   -1.3790 C.ar   93  HEM93       0.0000
     31  C3D       13.8980   24.1520   -1.2630 C.ar   93  HEM93       0.0000
     32  C4D       13.1030   24.6900   -0.1810 C.ar   93  HEM93       0.0000
     33  CMD       14.2780   21.8290   -2.3690 C.3    93  HEM93       0.0000
     34  CAD       14.8270   25.0480   -2.1260 C.3    93  HEM93       0.0000
     35  CBD       13.9660   25.9310   -3.0550 C.3    93  HEM93       0.0000
     36  CGD       14.5320   27.3070   -3.2380 C.2    93  HEM93       0.0000
     37  O1D       14.4010   28.1230   -2.2910 O.co2  93  HEM93       0.0000
     38  O2D       15.1220   27.5530   -4.3190 O.co2  93  HEM93       0.0000
     39  NA        11.6140   25.7740    2.1450 N.2    93  HEM93       0.0000
     40  NB         9.8730   23.9600    3.5050 N.ar   93  HEM93       0.0000
     41  NC        10.6630   21.8260    1.6910 N.2    93  HEM93       0.0000
     42  ND        12.4210   23.6370    0.3220 N.ar   93  HEM93       0.0000
     43 FE         11.0050   23.8160    1.7930 Fe     93  HEM93       0.0000
@<TRIPOS>BOND
     1    38    36   ar
     2    36    35    1
     3    36    37   ar
     4    35    34    1
     5    33    30    1
     6    34    31    1
     7    30    31   ar
     8    30    29   ar
     9    31    32   ar
    10    29     4    2
    11    29    42   ar
    12    28    27    2
    13    32     1    2
    14    32    42   ar
    15     4    25    1
    16     1     5    1
    17    27    24    1
    18    42    43    1
    19    25    24    1
    20    25    41    2
    21    24    23    2
    22    11    10    1
    23    11    12    1
    24    10     6    1
    25     5     6    1
    26     5    39    2
    27    41    43    1
    28    41    22    1
    29     6     7    2
    30    43    39    1
    31    43    40    1
    32    23    22    1
    33    23    26    1
    34    39     8    1
    35    22     3    2
    36    12    14   ar
    37    12    13   ar
    38     7     8    1
    39     7     9    1
    40     8     2    2
    41     3    18    1
    42    40    18   ar
    43    40    15   ar
    44    18    17   ar
    45     2    15    1
    46    15    16   ar
    47    17    16   ar
    48    17    20    1
    49    16    19    1
    50    21    20    2
