@<TRIPOS>MOLECULE
1b7x_III_C_1.pdb
 29 30 0 0 0
SMALL
GASTEIGER

@<TRIPOS>ATOM
      1  N         27.4800   40.9170   20.1830 N.3   301  PHE301     -0.1228
      2  CA        27.1890   41.6420   21.4550 C.3   301  PHE301      0.1721
      3  C         26.2480   40.7950   22.3200 C.2   301  PHE301      0.2437
      4  O         26.5630   39.6420   22.6460 O.2   301  PHE301     -0.2733
      5  CB        28.5380   41.9530   22.1500 C.3   301  PHE301      0.0547
      6  CG        28.3470   42.7860   23.4080 C.ar  301  PHE301     -0.0202
      7  CD1       27.8370   44.1280   23.3630 C.ar  301  PHE301     -0.0042
      8  CD2       28.6810   42.2570   24.6770 C.ar  301  PHE301     -0.0042
      9  CE1       27.6730   44.9030   24.5640 C.ar  301  PHE301     -0.0003
     10  CE2       28.5240   43.0160   25.8770 C.ar  301  PHE301     -0.0003
     11  CZ        28.0200   44.3450   25.8300 C.ar  301  PHE301     -0.0000
     12  N         25.0800   41.3530   22.7010 N.am  302  PRO302     -0.2718
     13  CA        24.1210   40.6190   23.5330 C.3   302  PRO302      0.1535
     14  C         23.5700   39.4020   22.8160 C.2   302  PRO302      0.2598
     15  O         23.2870   39.4700   21.6320 O.2   302  PRO302     -0.2715
     16  CB        23.0090   41.6470   23.8230 C.3   302  PRO302      0.0310
     17  CG        23.5840   42.9670   23.4720 C.3   302  PRO302      0.0237
     18  CD        24.5870   42.7060   22.3750 C.3   302  PRO302      0.0939
     19  N         23.3980   38.2930   23.5360 N.am  303  ARG303     -0.1978
     20  CA        22.8520   37.0610   22.9380 C.3   303  ARG303      0.1597
     21  C         21.4460   36.8280   23.4680 C.2   303  ARG303      0.2287
     22  O         20.6540   36.2200   22.7280 O.2   303  ARG303     -0.2864
     23  CB        23.7790   35.8450   23.1870 C.3   303  ARG303      0.0334
     24  CG        25.2540   36.0680   22.7670 C.3   303  ARG303      0.0492
     25  CD        26.0200   34.7500   22.5290 C.3   303  ARG303      0.2205
     26  NE        26.9400   34.6300   21.3860 N.pl3 303  ARG303     -0.0865
     27  CZ        28.0140   33.8390   21.4950 C.cat 303  ARG303      0.5346
     28  NH1       28.2000   32.9880   22.5010 N.pl3 303  ARG303      0.1354
     29  NH2       28.9340   33.9220   20.5450 N.pl3 303  ARG303      0.1354
@<TRIPOS>BOND
     1     1     2    1
     2    29    27    1
     3    26    27    2
     4    26    25    1
     5     2     5    1
     6     2     3    1
     7    27    28    1
     8    15    14    2
     9     5     6    1
    10     3     4    2
    11     3    12   am
    12    18    12    1
    13    18    17    1
    14    25    24    1
    15    12    13    1
    16    22    21    2
    17    24    23    1
    18    14    13    1
    19    14    19   am
    20    20    23    1
    21    20    21    1
    22    20    19    1
    23     7     6   ar
    24     7     9   ar
    25     6     8   ar
    26    17    16    1
    27    13    16    1
    28     9    11   ar
    29     8    10   ar
    30    11    10   ar
