@<TRIPOS>MOLECULE
1b7y_FYA_A_1.pdb
 33 36 0 0 0
SMALL
GASTEIGER

@<TRIPOS>ATOM
      1  C         17.7110   63.5150   18.9870 C.3   1002  FYA1002     0.1683
      2  CA        19.2000   63.3630   18.5880 C.3   1002  FYA1002     0.1261
      3  N         19.6730   61.9460   18.6830 N.3   1002  FYA1002    -0.1299
      4  CB        19.4540   63.8790   17.1690 C.3   1002  FYA1002     0.0479
      5  CG        20.7280   64.6710   17.0370 C.ar  1002  FYA1002    -0.0206
      6  CD1       20.7030   66.0640   17.0250 C.ar  1002  FYA1002    -0.0042
      7  CD2       21.9580   64.0280   16.9360 C.ar  1002  FYA1002    -0.0042
      8  CE1       21.8860   66.8110   16.9150 C.ar  1002  FYA1002    -0.0003
      9  CE2       23.1430   64.7630   16.8260 C.ar  1002  FYA1002    -0.0003
     10  CZ        23.1040   66.1630   16.8160 C.ar  1002  FYA1002    -0.0000
     11  P         15.2460   63.8630   18.3800 P.3   1002  FYA1002     0.2141
     12  O1P       14.9350   63.7750   19.8230 O.3   1002  FYA1002    -0.4373
     13  O2P       14.5580   64.8650   17.5470 O.2   1002  FYA1002    -0.5172
     14  O3P       16.8780   64.0670   18.2000 O.3   1002  FYA1002    -0.3125
     15  O5'       14.9840   62.4120   17.7100 O.3   1002  FYA1002    -0.3114
     16  C5'       15.6850   62.0370   16.5170 C.3   1002  FYA1002     0.1813
     17  C4'       14.7430   61.7300   15.3350 C.3   1002  FYA1002     0.1821
     18  O4'       13.9160   60.5800   15.6250 O.3   1002  FYA1002    -0.3135
     19  C3'       13.8200   62.8940   15.0600 C.3   1002  FYA1002     0.2184
     20  O3'       14.3390   63.7440   14.0370 O.3   1002  FYA1002    -0.2174
     21  C2'       12.5020   62.2710   14.6680 C.3   1002  FYA1002     0.2570
     22  O2'       12.3420   62.2590   13.2400 O.3   1002  FYA1002    -0.2130
     23  C1'       12.5590   60.8420   15.2100 C.3   1002  FYA1002     0.3186
     24  N9        11.6600   60.6800   16.3710 N.pl3 1002  FYA1002    -0.1439
     25  C8        11.6100   61.4130   17.5360 C.3   1002  FYA1002     0.3377
     26  N7        10.7150   60.9900   18.3860 N.2   1002  FYA1002    -0.2095
     27  C5        10.1070   59.9180   17.7330 C.2   1002  FYA1002     0.2526
     28  C6         9.0840   59.0340   18.1090 C.2   1002  FYA1002     0.4393
     29  N6         8.4440   59.1120   19.2740 N.pl3 1002  FYA1002     0.2180
     30  N1         8.7340   58.0790   17.2180 N.2   1002  FYA1002     0.0021
     31  C2         9.3880   58.0020   16.0620 C.3   1002  FYA1002     0.5254
     32  N3        10.3610   58.7700   15.5960 N.2   1002  FYA1002    -0.0055
     33  C4        10.6910   59.7100   16.5110 C.2   1002  FYA1002     0.3518
@<TRIPOS>BOND
     1    22    21    1
     2    20    19    1
     3    21    19    1
     4    21    23    1
     5    19    17    1
     6    23    18    1
     7    23    24    1
     8    17    18    1
     9    17    16    1
    10    32    31    1
    11    32    33    2
    12    31    30    1
    13    24    33    1
    14    24    25    1
    15    33    27    1
    16    16    15    1
    17    10     9   ar
    18    10     8   ar
    19     9     7   ar
    20     8     6   ar
    21     7     5   ar
    22     6     5   ar
    23     5     4    1
    24     4     2    1
    25    30    28    2
    26    25    26    1
    27    13    11    2
    28    15    11    1
    29    27    28    1
    30    27    26    2
    31    28    29    1
    32    14    11    1
    33    14     1    1
    34    11    12    1
    35     2     3    1
    36     2     1    1
