@<TRIPOS>MOLECULE
1b80_HEM_A_1.pdb
 43 50 0 0 0
SMALL
GASTEIGER

@<TRIPOS>ATOM
      1 FE         17.9380   25.7820   79.9680 Fe    350  HEM350      0.0000
      2  CHA       15.7130   28.3760   80.2290 C.2   350  HEM350      0.0000
      3  CHB       16.1550   24.0060   82.2600 C.2   350  HEM350      0.0000
      4  CHC       20.1180   23.1460   79.6300 C.2   350  HEM350      0.0000
      5  CHD       19.5250   27.4260   77.5010 C.2   350  HEM350      0.0000
      6  NA        16.2960   26.1380   81.0910 N.2   350  HEM350      0.0000
      7  C1A       15.4910   27.2480   80.9790 C.2   350  HEM350      0.0000
      8  C2A       14.3170   27.0390   81.8070 C.2   350  HEM350      0.0000
      9  C3A       14.4320   25.8400   82.3930 C.2   350  HEM350      0.0000
     10  C4A       15.6590   25.2500   81.9420 C.2   350  HEM350      0.0000
     11  CMA       13.4210   25.1650   83.3820 C.3   350  HEM350      0.0000
     12  CAA       13.1240   28.0410   81.9420 C.3   350  HEM350      0.0000
     13  CBA       12.0660   27.5130   80.8750 C.3   350  HEM350      0.0000
     14  CGA       10.7080   28.1830   80.9510 C.2   350  HEM350      0.0000
     15  O1A       10.4440   28.8120   81.9860 O.co2 350  HEM350      0.0000
     16  O2A        9.9660   28.0920   79.9080 O.co2 350  HEM350      0.0000
     17  NB        18.0730   23.9560   80.7500 N.ar  350  HEM350      0.0000
     18  C1B       17.2440   23.3740   81.6940 C.ar  350  HEM350      0.0000
     19  C2B       17.7530   22.0680   82.0690 C.ar  350  HEM350      0.0000
     20  C3B       18.8530   21.8290   81.3410 C.ar  350  HEM350      0.0000
     21  C4B       19.0670   23.0040   80.5220 C.ar  350  HEM350      0.0000
     22  CMB       17.0770   21.1360   83.1010 C.3   350  HEM350      0.0000
     23  CAB       19.6740   20.5490   81.3750 C.2   350  HEM350      0.0000
     24  CBB       20.7500   20.1880   80.7020 C.2   350  HEM350      0.0000
     25  NC        19.5310   25.3650   78.7980 N.2   350  HEM350      0.0000
     26  C1C       20.2630   24.1950   78.7620 C.2   350  HEM350      0.0000
     27  C2C       21.2480   24.2950   77.6920 C.2   350  HEM350      0.0000
     28  C3C       21.0630   25.4630   77.0630 C.2   350  HEM350      0.0000
     29  C4C       19.9920   26.1600   77.7660 C.2   350  HEM350      0.0000
     30  CMC       22.2810   23.1760   77.3740 C.3   350  HEM350      0.0000
     31  CAC       21.7790   26.0940   75.8780 C.2   350  HEM350      0.0000
     32  CBC       21.2710   26.6190   74.7950 C.2   350  HEM350      0.0000
     33  ND        17.6650   27.5440   79.0690 N.ar  350  HEM350      0.0000
     34  C1D       18.5380   28.1480   78.1380 C.ar  350  HEM350      0.0000
     35  C2D       18.2130   29.5340   77.9510 C.ar  350  HEM350      0.0000
     36  C3D       17.1250   29.7890   78.7120 C.ar  350  HEM350      0.0000
     37  C4D       16.7800   28.5630   79.3600 C.ar  350  HEM350      0.0000
     38  CMD       19.0090   30.5160   77.0750 C.3   350  HEM350      0.0000
     39  CAD       16.3750   31.1110   78.9100 C.3   350  HEM350      0.0000
     40  CBD       15.0750   31.2020   78.0730 C.3   350  HEM350      0.0000
     41  CGD       14.4980   32.6070   78.0690 C.2   350  HEM350      0.0000
     42  O1D       13.3420   32.6740   77.5390 O.co2 350  HEM350      0.0000
     43  O2D       15.1450   33.5160   78.5430 O.co2 350  HEM350      0.0000
@<TRIPOS>BOND
     1    32    31    2
     2    31    28    1
     3    28    27    2
     4    28    29    1
     5    38    35    1
     6    30    27    1
     7     5    29    1
     8     5    34    2
     9    42    41   ar
    10    27    26    1
    11    29    25    2
    12    35    34   ar
    13    35    36   ar
    14    41    40    1
    15    41    43   ar
    16    40    39    1
    17    34    33   ar
    18    36    39    1
    19    36    37   ar
    20    26    25    1
    21    26     4    2
    22    25     1    1
    23    33    37   ar
    24    33     1    1
    25    37     2    2
    26     4    21    1
    27    16    14   ar
    28     1    17    1
    29     1     6    1
    30     2     7    1
    31    21    17   ar
    32    21    20   ar
    33    24    23    2
    34    17    18   ar
    35    13    14    1
    36    13    12    1
    37    14    15   ar
    38     7     6    2
    39     7     8    1
    40     6    10    1
    41    20    23    1
    42    20    19   ar
    43    18    19   ar
    44    18     3    1
    45     8    12    1
    46     8     9    2
    47    10     3    2
    48    10     9    1
    49    19    22    1
    50     9    11    1
