@<TRIPOS>MOLECULE
1b82_HEM_A_1.pdb
 43 50 0 0 0
SMALL
GASTEIGER

@<TRIPOS>ATOM
      1 FE         17.7080   25.6330   79.1090 Fe    350  HEM350      0.0000
      2  CHA       15.4640   28.2140   79.4090 C.2   350  HEM350      0.0000
      3  CHB       15.8930   23.8270   81.4530 C.2   350  HEM350      0.0000
      4  CHC       19.8660   22.9960   78.7710 C.2   350  HEM350      0.0000
      5  CHD       19.3290   27.2880   76.6500 C.2   350  HEM350      0.0000
      6  NA        16.0700   25.9730   80.2440 N.2   350  HEM350      0.0000
      7  C1A       15.2450   27.0630   80.1220 C.2   350  HEM350      0.0000
      8  C2A       14.0910   26.8470   80.9760 C.2   350  HEM350      0.0000
      9  C3A       14.1920   25.6330   81.5220 C.2   350  HEM350      0.0000
     10  C4A       15.4450   25.0710   81.0860 C.2   350  HEM350      0.0000
     11  CMA       13.1640   24.9800   82.4860 C.3   350  HEM350      0.0000
     12  CAA       12.9250   27.8570   81.0610 C.3   350  HEM350      0.0000
     13  CBA       11.8510   27.3710   80.0140 C.3   350  HEM350      0.0000
     14  CGA       10.5350   28.0860   80.0510 C.2   350  HEM350      0.0000
     15  O1A       10.1710   28.7700   81.0380 O.co2 350  HEM350      0.0000
     16  O2A        9.8030   28.0000   79.0120 O.co2 350  HEM350      0.0000
     17  NB        17.8560   23.8330   79.9210 N.ar  350  HEM350      0.0000
     18  C1B       17.0010   23.2590   80.8470 C.ar  350  HEM350      0.0000
     19  C2B       17.4800   21.9460   81.1980 C.ar  350  HEM350      0.0000
     20  C3B       18.5800   21.7000   80.4680 C.ar  350  HEM350      0.0000
     21  C4B       18.8220   22.8690   79.6550 C.ar  350  HEM350      0.0000
     22  CMB       16.7860   20.9890   82.1860 C.3   350  HEM350      0.0000
     23  CAB       19.4010   20.4130   80.4810 C.2   350  HEM350      0.0000
     24  CBB       20.5070   20.1270   79.8440 C.2   350  HEM350      0.0000
     25  NC        19.2880   25.2380   77.9440 N.2   350  HEM350      0.0000
     26  C1C       19.9820   24.0500   77.9060 C.2   350  HEM350      0.0000
     27  C2C       20.9750   24.1650   76.8530 C.2   350  HEM350      0.0000
     28  C3C       20.8200   25.3110   76.2380 C.2   350  HEM350      0.0000
     29  C4C       19.7520   26.0150   76.9200 C.2   350  HEM350      0.0000
     30  CMC       21.9850   23.0120   76.5350 C.3   350  HEM350      0.0000
     31  CAC       21.5770   25.9120   75.0420 C.2   350  HEM350      0.0000
     32  CBC       22.4460   25.4140   74.2070 C.2   350  HEM350      0.0000
     33  ND        17.4320   27.3750   78.1980 N.ar  350  HEM350      0.0000
     34  C1D       18.3360   27.9740   77.3150 C.ar  350  HEM350      0.0000
     35  C2D       18.0080   29.3480   77.1300 C.ar  350  HEM350      0.0000
     36  C3D       16.9110   29.5980   77.8790 C.ar  350  HEM350      0.0000
     37  C4D       16.5530   28.3860   78.5510 C.ar  350  HEM350      0.0000
     38  CMD       18.8170   30.3420   76.2540 C.3   350  HEM350      0.0000
     39  CAD       16.1500   30.9210   78.0860 C.3   350  HEM350      0.0000
     40  CBD       14.9320   31.0680   77.1510 C.3   350  HEM350      0.0000
     41  CGD       14.3060   32.4380   77.1810 C.2   350  HEM350      0.0000
     42  O1D       13.1560   32.4920   76.6700 O.co2 350  HEM350      0.0000
     43  O2D       14.9550   33.3580   77.6890 O.co2 350  HEM350      0.0000
@<TRIPOS>BOND
     1    32    31    2
     2    31    28    1
     3    28    27    2
     4    28    29    1
     5    38    35    1
     6    30    27    1
     7     5    29    1
     8     5    34    2
     9    42    41   ar
    10    27    26    1
    11    29    25    2
    12    35    34   ar
    13    35    36   ar
    14    40    41    1
    15    40    39    1
    16    41    43   ar
    17    34    33   ar
    18    36    39    1
    19    36    37   ar
    20    26    25    1
    21    26     4    2
    22    25     1    1
    23    33    37   ar
    24    33     1    1
    25    37     2    2
    26     4    21    1
    27    16    14   ar
    28     1    17    1
    29     1     6    1
    30     2     7    1
    31    21    17   ar
    32    21    20   ar
    33    24    23    2
    34    17    18   ar
    35    13    14    1
    36    13    12    1
    37    14    15   ar
    38     7     6    2
    39     7     8    1
    40     6    10    1
    41    20    23    1
    42    20    19   ar
    43    18    19   ar
    44    18     3    1
    45     8    12    1
    46     8     9    2
    47    10     3    2
    48    10     9    1
    49    19    22    1
    50     9    11    1
