@<TRIPOS>MOLECULE
1b85_HEM_A_1.pdb
 43 50 0 0 0
SMALL
GASTEIGER

@<TRIPOS>ATOM
      1  CHA       15.8950   28.0310   80.5830 C.2   350  HEM350      0.0000
      2  CHB       16.4460   23.6630   82.6650 C.2   350  HEM350      0.0000
      3  CHC       20.3780   22.8320   79.9600 C.2   350  HEM350      0.0000
      4  CHD       19.7550   27.1260   77.7940 C.2   350  HEM350      0.0000
      5  C1A       15.6930   26.8670   81.3290 C.2   350  HEM350      0.0000
      6  C2A       14.5270   26.6120   82.1680 C.2   350  HEM350      0.0000
      7  C3A       14.6870   25.4230   82.7310 C.2   350  HEM350      0.0000
      8  C4A       15.9400   24.8860   82.2800 C.2   350  HEM350      0.0000
      9  CMA       13.7100   24.6700   83.7100 C.3   350  HEM350      0.0000
     10  CAA       13.2860   27.5680   82.2860 C.3   350  HEM350      0.0000
     11  CBA       12.2720   27.1120   81.1820 C.3   350  HEM350      0.0000
     12  CGA       10.9240   27.7940   81.2120 C.2   350  HEM350      0.0000
     13  O1A       10.5960   28.3930   82.2730 O.co2 350  HEM350      0.0000
     14  O2A       10.1380   27.7260   80.2190 O.co2 350  HEM350      0.0000
     15  C1B       17.5490   23.0570   82.0760 C.ar  350  HEM350      0.0000
     16  C2B       18.0100   21.7360   82.3820 C.ar  350  HEM350      0.0000
     17  C3B       19.1370   21.5220   81.6760 C.ar  350  HEM350      0.0000
     18  C4B       19.3200   22.6930   80.8370 C.ar  350  HEM350      0.0000
     19  CMB       17.3160   20.8080   83.4130 C.3   350  HEM350      0.0000
     20  CAB       19.9710   20.2490   81.6660 C.2   350  HEM350      0.0000
     21  CBB       21.0420   19.8650   81.0330 C.2   350  HEM350      0.0000
     22  C1C       20.5140   23.9200   79.1000 C.2   350  HEM350      0.0000
     23  C2C       21.4730   24.0090   78.0430 C.2   350  HEM350      0.0000
     24  C3C       21.3030   25.1630   77.4000 C.2   350  HEM350      0.0000
     25  C4C       20.1850   25.8330   78.0500 C.2   350  HEM350      0.0000
     26  CMC       22.4810   22.8500   77.7450 C.3   350  HEM350      0.0000
     27  CAC       22.0640   25.7070   76.1790 C.2   350  HEM350      0.0000
     28  CBC       21.5770   26.4630   75.2360 C.2   350  HEM350      0.0000
     29  C1D       18.6910   27.7670   78.4140 C.ar  350  HEM350      0.0000
     30  C2D       18.3500   29.1440   78.2180 C.ar  350  HEM350      0.0000
     31  C3D       17.2970   29.4050   79.0070 C.ar  350  HEM350      0.0000
     32  C4D       16.9780   28.2110   79.7300 C.ar  350  HEM350      0.0000
     33  CMD       19.1390   30.1440   77.3240 C.3   350  HEM350      0.0000
     34  CAD       16.5480   30.7350   79.1420 C.3   350  HEM350      0.0000
     35  CBD       15.2250   30.7680   78.3090 C.3   350  HEM350      0.0000
     36  CGD       14.6280   32.1590   78.2990 C.2   350  HEM350      0.0000
     37  O1D       13.4990   32.2610   77.7470 O.co2 350  HEM350      0.0000
     38  O2D       15.1930   33.1330   78.8330 O.co2 350  HEM350      0.0000
     39  NA        16.5480   25.8070   81.4320 N.2   350  HEM350      0.0000
     40  NB        18.3810   23.6570   81.1470 N.ar  350  HEM350      0.0000
     41  NC        19.7370   25.0610   79.0900 N.2   350  HEM350      0.0000
     42  ND        17.8730   27.2130   79.3650 N.ar  350  HEM350      0.0000
     43 FE         18.1620   25.4620   80.2820 Fe    350  HEM350      0.0000
@<TRIPOS>BOND
     1    28    27    2
     2    27    24    1
     3    33    30    1
     4    24    23    2
     5    24    25    1
     6    26    23    1
     7    37    36   ar
     8     4    25    1
     9     4    29    2
    10    23    22    1
    11    25    41    2
    12    30    29   ar
    13    30    31   ar
    14    36    35    1
    15    36    38   ar
    16    35    34    1
    17    29    42   ar
    18    31    34    1
    19    31    32   ar
    20    41    22    1
    21    41    43    1
    22    22     3    2
    23    42    32   ar
    24    42    43    1
    25    32     1    2
    26     3    18    1
    27    14    12   ar
    28    43    40    1
    29    43    39    1
    30     1     5    1
    31    18    40   ar
    32    18    17   ar
    33    21    20    2
    34    40    15   ar
    35    11    12    1
    36    11    10    1
    37    12    13   ar
    38     5    39    2
    39     5     6    1
    40    39     8    1
    41    20    17    1
    42    17    16   ar
    43    15    16   ar
    44    15     2    1
    45     6    10    1
    46     6     7    2
    47     8     2    2
    48     8     7    1
    49    16    19    1
    50     7     9    1
