@<TRIPOS>MOLECULE
1b86_HEM_A_1.pdb
 43 50 0 0 0
SMALL
GASTEIGER

@<TRIPOS>ATOM
      1  CHA       17.2710   18.5760   16.3990 C.2   143  HEM143      0.0000
      2  CHB       17.9690   16.0340   12.3520 C.2   143  HEM143      0.0000
      3  CHC       13.9400   13.4580   13.5660 C.2   143  HEM143      0.0000
      4  CHD       13.0690   16.4210   17.3820 C.2   143  HEM143      0.0000
      5  C1A       17.8680   18.1290   15.1900 C.ar  143  HEM143      0.0000
      6  C2A       18.9400   18.6840   14.4430 C.ar  143  HEM143      0.0000
      7  C3A       19.1060   18.0030   13.3150 C.ar  143  HEM143      0.0000
      8  C4A       18.1200   16.9570   13.3410 C.ar  143  HEM143      0.0000
      9  CMA       20.2000   18.3610   12.2920 C.3   143  HEM143      0.0000
     10  CAA       19.7980   19.8960   14.8560 C.2   143  HEM143      0.0000
     11  CBA       20.9120   19.6460   15.7960 C.2   143  HEM143      0.0000
     12  CGA       21.9630   20.7300   15.9820 C.2   143  HEM143      0.0000
     13  O1A       21.6050   21.7160   16.6980 O.co2 143  HEM143      0.0000
     14  O2A       23.0650   20.4470   15.3980 O.co2 143  HEM143      0.0000
     15  C1B       16.8830   15.1740   12.4000 C.2   143  HEM143      0.0000
     16  C2B       16.6440   14.2220   11.3130 C.2   143  HEM143      0.0000
     17  C3B       15.5530   13.4930   11.6090 C.2   143  HEM143      0.0000
     18  C4B       15.0810   13.9670   12.8990 C.2   143  HEM143      0.0000
     19  CMB       17.6100   14.2150   10.0940 C.3   143  HEM143      0.0000
     20  CAB       14.8110   12.3900   10.8870 C.2   143  HEM143      0.0000
     21  CBB       14.7340   11.7210    9.7820 C.2   143  HEM143      0.0000
     22  C1C       13.3240   14.1350   14.6620 C.ar  143  HEM143      0.0000
     23  C2C       11.9580   13.8960   15.1390 C.ar  143  HEM143      0.0000
     24  C3C       11.7270   14.7360   16.1490 C.ar  143  HEM143      0.0000
     25  C4C       12.9730   15.4900   16.3490 C.ar  143  HEM143      0.0000
     26  CMC       10.9640   12.8710   14.5430 C.3   143  HEM143      0.0000
     27  CAC       10.4700   14.8920   17.0290 C.2   143  HEM143      0.0000
     28  CBC        9.2590   14.4200   16.7670 C.2   143  HEM143      0.0000
     29  C1D       14.1600   17.2380   17.4640 C.2   143  HEM143      0.0000
     30  C2D       14.2600   18.2470   18.4870 C.2   143  HEM143      0.0000
     31  C3D       15.4290   18.8520   18.2380 C.2   143  HEM143      0.0000
     32  C4D       16.0420   18.3170   17.0400 C.2   143  HEM143      0.0000
     33  CMD       13.2780   18.5570   19.6310 C.3   143  HEM143      0.0000
     34  CAD       16.0310   19.9960   19.0680 C.3   143  HEM143      0.0000
     35  CBD       16.1370   21.2770   18.3290 C.3   143  HEM143      0.0000
     36  CGD       16.1560   22.6550   18.8470 C.2   143  HEM143      0.0000
     37  O1D       16.5510   23.5470   18.0190 O.co2 143  HEM143      0.0000
     38  O2D       15.7120   22.7390   20.0160 O.co2 143  HEM143      0.0000
     39  NA        17.3600   17.0470   14.4740 N.ar  143  HEM143      0.0000
     40  NB        15.9260   14.9890   13.3640 N.2   143  HEM143      0.0000
     41  NC        13.9430   15.1280   15.4330 N.ar  143  HEM143      0.0000
     42  ND        15.2230   17.3040   16.5350 N.2   143  HEM143      0.0000
     43 FE         15.7610   16.0260   15.0860 Fe    143  HEM143      0.0000
@<TRIPOS>BOND
     1    21    20    2
     2    19    16    1
     3    20    17    1
     4    16    17    2
     5    16    15    1
     6    17    18    1
     7     9     7    1
     8     2    15    1
     9     2     8    2
    10    15    40    2
    11    18    40    1
    12    18     3    2
    13     7     8   ar
    14     7     6   ar
    15     8    39   ar
    16    40    43    1
    17     3    22    1
    18     6    10    1
    19     6     5   ar
    20    39    43    1
    21    39     5   ar
    22    26    23    1
    23    22    23   ar
    24    22    41   ar
    25    10    11    2
    26    43    41    1
    27    43    42    1
    28    23    24   ar
    29     5     1    2
    30    14    12   ar
    31    41    25   ar
    32    11    12    1
    33    12    13   ar
    34    24    25   ar
    35    24    27    1
    36    25     4    1
    37     1    32    1
    38    42    32    2
    39    42    29    1
    40    28    27    2
    41    32    31    1
    42     4    29    2
    43    29    30    1
    44    37    36   ar
    45    31    30    2
    46    31    34    1
    47    35    36    1
    48    35    34    1
    49    30    33    1
    50    36    38   ar
