@<TRIPOS>MOLECULE
1b86_DG2_D_1.pdb
 15 14 0 0 0
SMALL
GASTEIGER

@<TRIPOS>ATOM
      1  C3       -14.7790    6.6310   19.5140 C.3   701  DG2701      0.2583
      2  C4       -15.5340    5.3340   19.7400 C.3   701  DG2701      0.1954
      3  O2       -15.0600    7.9770   19.5820 O.3   701  DG2701     -0.2584
      4  O5       -15.8910    4.1270   19.7550 O.3   701  DG2701     -0.2670
      5  O7       -12.4820    6.5790   20.2280 O.co2 701  DG2701     -0.2428
      6  O8       -12.8100    6.0060   18.1530 O.co2 701  DG2701     -0.2428
      7  O9       -14.7860   10.1350   18.1920 O.3   701  DG2701     -0.1145
      8  O10      -14.3520    8.0820   16.9710 O.2   701  DG2701     -0.2224
      9  O11      -12.8630    8.6510   18.9490 O.3   701  DG2701     -0.1145
     10  P1       -14.1720    8.6800   18.4470 P.3   701  DG2701      0.5331
     11  C7       -13.2880    6.4100   19.3180 C.2   701  DG2701      0.3945
     12  P6       -15.2830    2.6900   20.1760 P.3   701  DG2701      0.5327
     13  O15      -14.2320    2.9650   21.0600 O.3   701  DG2701     -0.1145
     14  O14      -14.8450    2.4450   18.6580 O.2   701  DG2701     -0.2224
     15  O13      -16.1040    1.3510   20.4760 O.3   701  DG2701     -0.1145
@<TRIPOS>BOND
     1     8    10    2
     2     6    11   ar
     3     7    10    1
     4    10     9    1
     5    10     3    1
     6    14    12    2
     7    11     1    1
     8    11     5   ar
     9     1     3    1
    10     1     2    1
    11     2     4    1
    12     4    12    1
    13    12    15    1
    14    12    13    1
