@<TRIPOS>MOLECULE
1b8a_ATP_A_1.pdb
 31 33 0 0 0
SMALL
GASTEIGER

@<TRIPOS>ATOM
      1  PG        39.4660    8.6490   46.1480 P.3   500  ATP500      0.5373
      2  O1G       39.5710    7.8960   44.8540 O.2   500  ATP500     -0.2221
      3  O2G       39.4880    7.8880   47.4360 O.3   500  ATP500     -0.1143
      4  O3G       40.7020    9.6470   46.1630 O.3   500  ATP500     -0.1143
      5  PB        37.6070   10.5820   47.2590 P.3   500  ATP500      0.2277
      6  O1B       37.0130    9.6630   48.2650 O.3   500  ATP500     -0.4368
      7  O2B       38.5640   11.6260   47.7090 O.2   500  ATP500     -0.5168
      8  O3B       38.2300    9.6480   46.1150 O.3   500  ATP500     -0.2258
      9  PA        35.1790   12.1440   46.8990 P.3   500  ATP500      0.2189
     10  O1A       34.2280   11.2780   47.6080 O.3   500  ATP500     -0.4371
     11  O2A       35.6960   13.3540   47.5510 O.2   500  ATP500     -0.5170
     12  O3A       36.4460   11.2880   46.4450 O.3   500  ATP500     -0.2700
     13  O5'       34.5820   12.5170   45.4820 O.3   500  ATP500     -0.3112
     14  C5'       33.4320   11.8430   44.9270 C.3   500  ATP500      0.1813
     15  C4'       33.8230   11.1020   43.6570 C.3   500  ATP500      0.1821
     16  O4'       34.5210   12.0230   42.7750 O.3   500  ATP500     -0.3135
     17  C3'       34.7890    9.9440   43.8090 C.3   500  ATP500      0.2184
     18  O3'       34.0090    8.7570   44.1110 O.3   500  ATP500     -0.2174
     19  C2'       35.3790    9.8310   42.4030 C.3   500  ATP500      0.2570
     20  O2'       34.5190    9.1430   41.5270 O.3   500  ATP500     -0.2130
     21  C1'       35.4570   11.3050   41.9840 C.3   500  ATP500      0.3186
     22  N9        36.7860   11.8610   42.2060 N.pl3 500  ATP500     -0.1439
     23  C8        37.3310   12.3510   43.3730 C.3   500  ATP500      0.3377
     24  N7        38.5790   12.7440   43.2500 N.2   500  ATP500     -0.2095
     25  C5        38.8690   12.5240   41.9100 C.2   500  ATP500      0.2526
     26  C6        40.0320   12.7440   41.1360 C.2   500  ATP500      0.4393
     27  N6        41.1450   13.3180   41.6120 N.pl3 500  ATP500      0.2180
     28  N1        40.0050   12.3650   39.8380 N.2   500  ATP500      0.0021
     29  C2        38.8700   11.8320   39.3470 C.3   500  ATP500      0.5254
     30  N3        37.7090   11.6030   39.9630 N.2   500  ATP500     -0.0055
     31  C4        37.7750   11.9710   41.2560 C.2   500  ATP500      0.3518
@<TRIPOS>BOND
     1    29    28    1
     2    29    30    1
     3    28    26    2
     4    30    31    2
     5    26    27    1
     6    26    25    1
     7    31    25    1
     8    31    22    1
     9    20    19    1
    10    25    24    2
    11    21    22    1
    12    21    19    1
    13    21    16    1
    14    22    23    1
    15    19    17    1
    16    16    15    1
    17    24    23    1
    18    15    17    1
    19    15    14    1
    20    17    18    1
    21     2     1    2
    22    14    13    1
    23    13     9    1
    24     8     1    1
    25     8     5    1
    26     1     4    1
    27     1     3    1
    28    12     9    1
    29    12     5    1
    30     9    11    2
    31     9    10    1
    32     5     7    2
    33     5     6    1
