@<TRIPOS>MOLECULE
1b8d_PUB_B_1.pdb
 46 49 0 0 0
SMALL
GASTEIGER

@<TRIPOS>ATOM
      1  CHC       -7.7450  -38.2230   20.9250 C.3   205  PUB205      0.0823
      2  NC        -5.4280  -39.2460   20.7580 N.2   205  PUB205     -0.4108
      3  C1C       -4.4380  -39.5610   21.6610 C.2   205  PUB205      0.1102
      4  C2C       -4.7760  -39.3260   22.9820 C.2   205  PUB205      0.0023
      5  C3C       -6.0710  -38.7650   22.9460 C.2   205  PUB205      0.0018
      6  C4C       -6.4720  -38.7520   21.5250 C.2   205  PUB205      0.1063
      7  CMC       -6.8510  -38.2430   24.1390 C.3   205  PUB205      0.0331
      8  CAC       -3.9470  -39.6430   24.1880 C.3   205  PUB205      0.0402
      9  CBC       -3.4150  -38.3490   24.7430 C.3   205  PUB205      0.1188
     10  CGC       -2.2920  -38.5390   25.7240 C.2   205  PUB205      0.3652
     11  O1C       -1.5290  -39.5210   25.5980 O.co2 205  PUB205     -0.2456
     12  O2C       -2.1700  -37.6870   26.6250 O.co2 205  PUB205     -0.2456
     13  ND        -9.1860  -39.6410   22.4220 N.am  205  PUB205     -0.2989
     14  C1D       -8.9740  -39.2340   21.0240 C.3   205  PUB205      0.0973
     15  C2D      -10.2940  -38.5690   20.6200 C.2   205  PUB205     -0.0255
     16  C3D      -11.2270  -38.7580   21.7360 C.2   205  PUB205      0.0248
     17  C4D      -10.5260  -39.4090   22.7960 C.2   205  PUB205      0.2415
     18  CMD      -10.5810  -37.8410   19.3320 C.3   205  PUB205      0.0278
     19  CBD      -13.5330  -39.5760   22.0340 C.3   205  PUB205      0.0052
     20  OD       -11.0310  -39.7190   23.8940 O.2   205  PUB205     -0.2705
     21  NA        -3.9740  -42.5700   15.8800 N.am  205  PUB205     -0.2989
     22  C1A       -3.4410  -43.2050   14.7730 C.2   205  PUB205      0.2415
     23  C2A       -3.7290  -42.3810   13.5660 C.2   205  PUB205      0.0251
     24  C3A       -4.2410  -41.0990   14.0340 C.2   205  PUB205     -0.0259
     25  C4A       -4.2130  -41.1600   15.5230 C.3   205  PUB205      0.0961
     26  CMA       -3.5080  -42.8050   12.1070 C.3   205  PUB205      0.0352
     27  CBA       -5.8870  -40.4320   12.2870 C.3   205  PUB205      0.0047
     28  OA        -2.9260  -44.3240   14.7860 O.2   205  PUB205     -0.2705
     29  CHA       -3.1440  -40.2670   16.1050 C.3   205  PUB205      0.0670
     30  CAA       -4.7360  -39.9600   13.1950 C.3   205  PUB205      0.0235
     31  CAD      -12.6690  -38.3350   21.8060 C.3   205  PUB205      0.0304
     32  NB        -3.6220  -40.1220   18.5930 N.ar  205  PUB205     -0.3598
     33  C1B       -2.8990  -40.6430   17.5360 C.ar  205  PUB205      0.0310
     34  C2B       -1.7590  -41.2700   18.0360 C.ar  205  PUB205     -0.0132
     35  C3B       -1.8000  -41.1400   19.4620 C.ar  205  PUB205     -0.0127
     36  C4B       -2.9840  -40.3800   19.7880 C.ar  205  PUB205      0.0362
     37  CHB       -3.2930  -39.9740   21.0490 C.3   205  PUB205      0.1017
     38  CMB       -0.6950  -41.9070   17.2210 C.3   205  PUB205      0.0319
     39  CAB       -0.8220  -41.7090   20.4470 C.3   205  PUB205      0.0390
     40  CBB       -1.3820  -43.0160   21.0180 C.3   205  PUB205      0.1187
     41  CGB       -1.2210  -44.1840   20.0550 C.2   205  PUB205      0.3652
     42  O1B       -0.1590  -44.8520   20.0940 O.co2 205  PUB205     -0.2456
     43  O2B       -2.1490  -44.4310   19.2520 O.co2 205  PUB205     -0.2456
     44  HND       -8.9820  -40.5860   22.5210 H     205  PUB205      0.1500
     45  HNA       -3.3560  -42.6380   16.6290 H     205  PUB205      0.1500
     46  HNB       -4.4610  -39.6440   18.5180 H     205  PUB205      0.1653
@<TRIPOS>BOND
     1    26    23    1
     2    27    30    1
     3    30    24    1
     4    23    24    2
     5    23    22    1
     6    24    25    1
     7    22    28    2
     8    22    21   am
     9    25    21    1
    10    25    29    1
    11    21    45    1
    12    29    33    1
    13    38    34    1
    14    33    34   ar
    15    33    32   ar
    16    34    35   ar
    17    46    32    1
    18    32    36   ar
    19    43    41   ar
    20    18    15    1
    21    35    36   ar
    22    35    39    1
    23    36    37    1
    24    41    42   ar
    25    41    40    1
    26    39    40    1
    27    15    14    1
    28    15    16    2
    29     2     6    2
    30     2     3    2
    31     1    14    1
    32     1     6    1
    33    14    13    1
    34    37     3    1
    35     6     5    1
    36     3     4    1
    37    16    31    1
    38    16    17    1
    39    31    19    1
    40    13    44    1
    41    13    17   am
    42    17    20    2
    43     5     4    2
    44     5     7    1
    45     4     8    1
    46     8     9    1
    47     9    10    1
    48    11    10   ar
    49    10    12   ar
