@<TRIPOS>MOLECULE
1b8d_TYR_G_1.pdb
 14 14 0 0 0
SMALL
GASTEIGER

@<TRIPOS>ATOM
      1  N          9.3570   -2.8700  -13.0600 N.3    99  TYR99      -0.2388
      2  CA        10.3320   -3.9820  -13.2930 C.3    99  TYR99       0.1374
      3  C         10.3490   -4.8170  -12.0200 C.2    99  TYR99       0.2244
      4  O          9.7490   -5.9080  -12.0470 O.2    99  TYR99      -0.2868
      5  CB        11.7480   -3.4430  -13.5780 C.3    99  TYR99       0.0514
      6  CG        12.5140   -4.2160  -14.6430 C.ar   99  TYR99      -0.0201
      7  CD1       13.1990   -5.3970  -14.3370 C.ar   99  TYR99      -0.0011
      8  CD2       12.5230   -3.7810  -15.9720 C.ar   99  TYR99      -0.0011
      9  CE1       13.8670   -6.1230  -15.3370 C.ar   99  TYR99       0.0363
     10  CE2       13.1900   -4.5010  -16.9820 C.ar   99  TYR99       0.0363
     11  CZ        13.8530   -5.6610  -16.6620 C.ar   99  TYR99       0.1337
     12  OH        14.4910   -6.3640  -17.6570 O.3    99  TYR99      -0.5055
     13  H          9.7630   -2.4580  -12.1940 H      99  TYR99       0.1418
     14  HH        14.3100   -5.9550  -18.5060 H      99  TYR99       0.2922
@<TRIPOS>BOND
     1    14    12    1
     2    12    11    1
     3    10    11   ar
     4    10     8   ar
     5    11     9   ar
     6     8     6   ar
     7     9     7   ar
     8     6     7   ar
     9     6     5    1
    10     5     2    1
    11     2     1    1
    12     2     3    1
    13     1    13    1
    14     4     3    2
