@<TRIPOS>MOLECULE
1b8d_PEB_A_1.pdb
 46 49 0 0 0
SMALL
GASTEIGER

@<TRIPOS>ATOM
      1  CHC       35.1880   -3.5380   12.2340 C.3   201  PEB201      0.0785
      2  NC        36.7920   -1.6440   12.8640 N.2   201  PEB201     -0.4108
      3  C1C       36.6590   -0.4790   13.5920 C.2   201  PEB201      0.1102
      4  C2C       35.3670   -0.2860   14.0990 C.2   201  PEB201      0.0023
      5  C3C       34.6150   -1.3990   13.6490 C.2   201  PEB201      0.0018
      6  C4C       35.5250   -2.2290   12.8960 C.2   201  PEB201      0.1060
      7  CMC       33.1420   -1.6520   13.8800 C.3   201  PEB201      0.0331
      8  CAC       34.8740    0.8520   14.9290 C.3   201  PEB201      0.0402
      9  CBC       35.0090    0.5230   16.4040 C.3   201  PEB201      0.1188
     10  CGC       36.4540    0.4020   16.8430 C.2   201  PEB201      0.3652
     11  O1C       36.8920   -0.7230   17.1470 O.co2 201  PEB201     -0.2456
     12  O2C       37.1530    1.4300   16.8850 O.co2 201  PEB201     -0.2456
     13  ND        34.5390   -4.4770   14.4600 N.am  201  PEB201     -0.3020
     14  C1D       35.2750   -4.7250   13.2160 C.3   201  PEB201      0.0829
     15  C2D       34.7240   -5.9810   12.6300 C.3   201  PEB201      0.0448
     16  C3D       33.7380   -6.4820   13.5320 C.2   201  PEB201      0.0282
     17  C4D       33.6280   -5.5110   14.6600 C.2   201  PEB201      0.2416
     18  CMD       35.1360   -6.6190   11.3390 C.3   201  PEB201      0.0065
     19  CAD       33.0370   -7.6620   13.3590 C.2   201  PEB201     -0.0255
     20  CBD       32.1340   -8.1140   14.2980 C.3   201  PEB201      0.0305
     21  OD        32.8380   -5.5940   15.6410 O.2   201  PEB201     -0.2705
     22  NA        43.5830   -0.5360   10.1960 N.am  201  PEB201     -0.3056
     23  C1A       44.2020   -0.3210    8.9830 C.2   201  PEB201      0.2220
     24  C2A       43.5760   -1.2120    7.9910 C.3   201  PEB201      0.0781
     25  C3A       42.4940   -1.9290    8.7750 C.3   201  PEB201      0.0270
     26  C4A       42.3470   -1.1310   10.0310 C.3   201  PEB201      0.0778
     27  CMA       42.9700   -0.4050    6.8410 C.3   201  PEB201      0.0096
     28  CBA       43.0270   -4.2650    7.8240 C.3   201  PEB201      0.0001
     29  OA        45.3110    0.1950    8.8340 O.2   201  PEB201     -0.2751
     30  CHA       41.5020   -1.4840   11.0360 C.3   201  PEB201      0.0627
     31  CAA       42.9130   -3.3760    9.0680 C.3   201  PEB201      0.0021
     32  NB        39.5110   -0.9200   12.2750 N.ar  201  PEB201     -0.3598
     33  C1B       40.8140   -0.6790   11.8860 C.ar  201  PEB201      0.0307
     34  C2B       41.2470    0.5250   12.5550 C.ar  201  PEB201     -0.0132
     35  C3B       40.1780    0.9690   13.3210 C.ar  201  PEB201     -0.0127
     36  C4B       39.0660    0.0590   13.1330 C.ar  201  PEB201      0.0362
     37  CHB       37.8250    0.2320   13.6660 C.3   201  PEB201      0.1017
     38  CMB       42.5800    1.2100   12.4700 C.3   201  PEB201      0.0319
     39  CAB       40.1860    2.1940   14.1570 C.3   201  PEB201      0.0390
     40  CBB       39.9700    3.3440   13.2070 C.3   201  PEB201      0.1187
     41  CGB       40.1780    4.6940   13.8580 C.2   201  PEB201      0.3652
     42  O1B       40.7300    5.5910   13.1850 O.co2 201  PEB201     -0.2456
     43  O2B       39.7910    4.8580   15.0340 O.co2 201  PEB201     -0.2456
     44  HND       35.1590   -4.4320   15.2150 H     201  PEB201      0.1497
     45  HNA       43.9810   -0.2930   11.0580 H     201  PEB201      0.1494
     46  HNB       38.9300   -1.6360   12.0290 H     201  PEB201      0.1653
@<TRIPOS>BOND
     1    27    24    1
     2    28    31    1
     3    24    25    1
     4    24    23    1
     5    25    31    1
     6    25    26    1
     7    29    23    2
     8    23    22   am
     9    26    22    1
    10    26    30    1
    11    22    45    1
    12    30    33    1
    13    18    15    1
    14    33    32   ar
    15    33    34   ar
    16    46    32    1
    17     1     6    1
    18     1    14    1
    19    32    36   ar
    20    38    34    1
    21    34    35   ar
    22    15    14    1
    23    15    16    1
    24     2     6    2
    25     2     3    2
    26     6     5    1
    27    36    35   ar
    28    36    37    1
    29    42    41   ar
    30    40    41    1
    31    40    39    1
    32    14    13    1
    33    35    39    1
    34    19    16    2
    35    19    20    1
    36    16    17    1
    37     3    37    1
    38     3     4    1
    39     5     7    1
    40     5     4    2
    41    41    43   ar
    42     4     8    1
    43    13    17   am
    44    13    44    1
    45    17    21    2
    46     8     9    1
    47     9    10    1
    48    10    12   ar
    49    10    11   ar
