@<TRIPOS>MOLECULE
1b8d_III_G_1.pdb
 19 19 0 0 0
SMALL
GASTEIGER

@<TRIPOS>ATOM
      1  N         -1.8940   -8.2960   11.8220 N.3     1  GLY1       -0.2365
      2  CA        -1.0580   -8.3790   13.0470 C.3     1  GLY1        0.1694
      3  C         -0.0300   -9.4340   12.7400 C.2     1  GLY1        0.2402
      4  O          1.0940   -9.1210   12.3590 O.2     1  GLY1       -0.2735
      5  H         -1.1960   -8.1220   11.0630 H       1  GLY1        0.1419
      6  N         -0.4390  -10.6880   12.8760 N.am    2  TYR2       -0.2979
      7  CA         0.4240  -11.8240   12.5750 C.3     2  TYR2        0.1412
      8  C          0.8510  -11.7710   11.1100 C.2     2  TYR2        0.2270
      9  O          2.0470  -11.9970   10.8230 O.2     2  TYR2       -0.2865
     10  CB        -0.3450  -13.1270   12.8170 C.3     2  TYR2        0.0540
     11  CG        -0.1590  -13.7090   14.1940 C.ar    2  TYR2       -0.0199
     12  CD1       -0.8690  -13.2220   15.2950 C.ar    2  TYR2       -0.0011
     13  CD2        0.7380  -14.7470   14.3980 C.ar    2  TYR2       -0.0011
     14  CE1       -0.6800  -13.7720   16.5810 C.ar    2  TYR2        0.0363
     15  CE2        0.9290  -15.2920   15.6570 C.ar    2  TYR2        0.0363
     16  CZ         0.2200  -14.8030   16.7400 C.ar    2  TYR2        0.1337
     17  OH         0.4360  -15.3800   17.9530 O.3     2  TYR2       -0.5055
     18  H         -1.3320  -10.9140   13.1820 H       2  TYR2        0.1498
     19  HH         1.1320  -16.0450   17.8740 H       2  TYR2        0.2922
@<TRIPOS>BOND
     1     9     8    2
     2     5     1    1
     3     8     7    1
     4     1     2    1
     5     4     3    2
     6     7    10    1
     7     7     6    1
     8     3     6   am
     9     3     2    1
    10    10    11    1
    11     6    18    1
    12    11    13   ar
    13    11    12   ar
    14    13    15   ar
    15    12    14   ar
    16    15    16   ar
    17    14    16   ar
    18    16    17    1
    19    19    17    1
