@<TRIPOS>MOLECULE
1b8g_PLP_A_1.pdb
 15 15 0 0 0
SMALL
GASTEIGER

@<TRIPOS>ATOM
      1  N1         6.1600   19.4750  104.5950 N.ar  500  PLP500     -0.2452
      2  C2         6.1300   19.3590  105.9570 C.ar  500  PLP500      0.0978
      3  C2A        5.6080   20.5200  106.7700 C.3   500  PLP500      0.0555
      4  C3         6.6140   18.1490  106.5300 C.ar  500  PLP500      0.2049
      5  O3         6.6470   17.9570  107.8670 O.3   500  PLP500     -0.2857
      6  C4         7.0890   17.1080  105.6920 C.ar  500  PLP500      0.0182
      7  C4A        7.5290   15.8220  106.3830 C.3   500  PLP500      0.0342
      8  C5         7.0940   17.3090  104.2810 C.ar  500  PLP500      0.0261
      9  C6         6.6160   18.4920  103.7770 C.ar  500  PLP500      0.0965
     10  C5A        7.6310   16.2710  103.2950 C.3   500  PLP500      0.1815
     11  O4P        6.5670   15.3430  103.0170 O.3   500  PLP500     -0.2653
     12  P          6.7850   14.2520  101.8480 P.3   500  PLP500      0.5329
     13  O1P        7.7380   13.2330  102.3830 O.3   500  PLP500     -0.1145
     14  O2P        7.4610   15.0170  100.6580 O.2   500  PLP500     -0.2224
     15  O3P        5.4140   13.8020  101.4360 O.3   500  PLP500     -0.1145
@<TRIPOS>BOND
     1    14    12    2
     2    15    12    1
     3    12    13    1
     4    12    11    1
     5    11    10    1
     6    10     8    1
     7     9     8   ar
     8     9     1   ar
     9     8     6   ar
    10     1     2   ar
    11     6     7    1
    12     6     4   ar
    13     2     4   ar
    14     2     3    1
    15     4     5    1
