@<TRIPOS>MOLECULE
1b8n_IMG_A_1.pdb
 20 22 0 0 0
SMALL
GASTEIGER

@<TRIPOS>ATOM
      1  O5'      -66.6900   90.3810   97.6050 O.3   600  IMG600     -0.2188
      2  C5'      -65.3860   90.2550   97.0230 C.3   600  IMG600      0.2020
      3  C4'      -65.0230   88.8980   96.3610 C.3   600  IMG600      0.1389
      4  N4'      -66.0870   88.7440   95.3660 N.3   600  IMG600     -0.2083
      5  C3'      -63.7130   88.8060   95.5100 C.3   600  IMG600      0.2023
      6  O3'      -63.1890   87.4580   95.3440 O.3   600  IMG600     -0.2188
      7  C2'      -64.1210   89.3510   94.0980 C.3   600  IMG600      0.2036
      8  O2'      -63.5970   88.5380   93.0400 O.3   600  IMG600     -0.2185
      9  C1'      -65.6640   89.2910   94.0800 C.3   600  IMG600      0.1320
     10  C9       -66.3690   90.7420   93.8760 C.2   600  IMG600      0.0481
     11  C8       -67.6470   91.0320   94.1550 C.2   600  IMG600      0.0996
     12  N7       -67.9010   92.4140   93.8430 N.2   600  IMG600     -0.2292
     13  C5       -66.6630   92.9030   93.3710 C.2   600  IMG600      0.2065
     14  C6       -66.3870   94.2710   92.9020 C.1   600  IMG600      0.2362
     15  O6       -67.1280   95.2670   92.8890 O.2   600  IMG600     -0.2069
     16  N1       -65.0700   94.3360   92.5080 N.2   600  IMG600     -0.2486
     17  N2       -62.9040   93.5180   91.9370 N.pl3 600  IMG600     -0.0226
     18  C2       -64.1390   93.3000   92.5200 C.1   600  IMG600      0.2519
     19  N3       -64.4690   92.0930   92.9490 N.2   600  IMG600     -0.3232
     20  C4       -65.7330   91.9400   93.3610 C.2   600  IMG600      0.1737
@<TRIPOS>BOND
     1    17    18    1
     2    16    18    2
     3    16    14    2
     4    18    19    2
     5    15    14    2
     6    14    13    1
     7    19    20    2
     8     8     7    1
     9    20    13    1
    10    20    10    1
    11    13    12    2
    12    12    11    1
    13    10     9    1
    14    10    11    2
    15     9     7    1
    16     9     4    1
    17     7     5    1
    18     6     5    1
    19     4     3    1
    20     5     3    1
    21     3     2    1
    22     2     1    1
