@<TRIPOS>MOLECULE
1b8o_IMH_A_1.pdb
 19 21 0 0 0
SMALL
GASTEIGER

@<TRIPOS>ATOM
      1  O5'       21.7480   90.5640   76.5980 O.3   600  IMH600     -0.2188
      2  C5'       21.5380   89.1540   76.4120 C.3   600  IMH600      0.2020
      3  C4'       20.2210   88.7130   75.6980 C.3   600  IMH600      0.1389
      4  N4'       20.0680   89.7020   74.6260 N.3   600  IMH600     -0.2083
      5  C3'       20.1890   87.3530   74.9510 C.3   600  IMH600      0.2023
      6  O3'       18.8590   86.7640   74.8620 O.3   600  IMH600     -0.2188
      7  C2'       20.7010   87.6800   73.4910 C.3   600  IMH600      0.2036
      8  O2'       19.8950   87.0710   72.4580 O.3   600  IMH600     -0.2185
      9  C1'       20.6180   89.2150   73.3680 C.3   600  IMH600      0.1309
     10  C9        22.0500   89.9520   73.1120 C.2   600  IMH600      0.0348
     11  C8        22.2840   91.2710   73.2430 C.2   600  IMH600      0.0984
     12  N7        23.6620   91.5480   72.9460 N.2   600  IMH600     -0.2310
     13  C5        24.2050   90.2850   72.6460 C.2   600  IMH600      0.1804
     14  C6        25.6000   90.0060   72.2640 C.1   600  IMH600      0.1716
     15  O6        26.5520   90.7960   72.2070 O.2   600  IMH600     -0.2206
     16  N1        25.7420   88.6250   72.0150 N.2   600  IMH600     -0.1739
     17  C2        24.7180   87.6480   72.1050 C.3   600  IMH600      0.2626
     18  N3        23.4910   87.9970   72.4590 N.2   600  IMH600     -0.2415
     19  C4        23.2780   89.3130   72.7160 C.2   600  IMH600      0.1059
@<TRIPOS>BOND
     1    16    17    1
     2    16    14    2
     3    17    18    1
     4    15    14    2
     5    14    13    1
     6     8     7    1
     7    18    19    2
     8    13    19    1
     9    13    12    2
    10    19    10    1
    11    12    11    1
    12    10    11    2
    13    10     9    1
    14     9     7    1
    15     9     4    1
    16     7     5    1
    17     4     3    1
    18     6     5    1
    19     5     3    1
    20     3     2    1
    21     2     1    1
