@<TRIPOS>MOLECULE
1b8u_NAD_A_1.pdb
 44 48 0 0 0
SMALL
GASTEIGER

@<TRIPOS>ATOM
      1  PA        27.7920    9.5250   26.9900 P.3   334  NAD334      0.2189
      2  O1A       27.7450   10.0410   25.6020 O.2   334  NAD334     -0.5170
      3  O2A       27.8270    8.0630   27.1930 O.3   334  NAD334     -0.4371
      4  O5B       26.6510   10.2880   27.8360 O.3   334  NAD334     -0.3112
      5  C5B       26.3910   11.6940   27.7580 C.3   334  NAD334      0.1813
      6  C4B       24.8930   11.7300   27.9720 C.3   334  NAD334      0.1821
      7  O4B       24.4230   13.0490   28.2720 O.3   334  NAD334     -0.3135
      8  C3B       24.2060   11.2690   26.6930 C.3   334  NAD334      0.2184
      9  O3B       23.4210   10.0850   26.8760 O.3   334  NAD334     -0.2174
     10  C2B       23.3920   12.4630   26.2170 C.3   334  NAD334      0.2570
     11  O2B       22.1890   12.0960   25.5140 O.3   334  NAD334     -0.2130
     12  C1B       23.2050   13.2520   27.5140 C.3   334  NAD334      0.3186
     13  N9A       22.9380   14.7220   27.3100 N.pl3 334  NAD334     -0.1439
     14  C8A       23.3500   15.4870   26.2690 C.3   334  NAD334      0.3377
     15  N7A       22.8730   16.7240   26.3920 N.2   334  NAD334     -0.2095
     16  C5A       22.2000   16.6910   27.5400 C.2   334  NAD334      0.2526
     17  C6A       21.4520   17.7230   28.0230 C.2   334  NAD334      0.4393
     18  N6A       21.3470   18.8300   27.2970 N.pl3 334  NAD334      0.2180
     19  N1A       20.7210   17.5060   29.1400 N.2   334  NAD334      0.0021
     20  C2A       20.7110   16.3180   29.7380 C.3   334  NAD334      0.5254
     21  N3A       21.4260   15.3060   29.2420 N.2   334  NAD334     -0.0055
     22  C4A       22.1920   15.4810   28.1290 C.2   334  NAD334      0.3518
     23  O3        28.9920   10.2060   27.7990 O.3   334  NAD334     -0.2703
     24  PN        29.9360    9.8700   29.0020 P.3   334  NAD334      0.2189
     25  O1N       31.0380    9.0050   28.5060 O.2   334  NAD334     -0.5170
     26  O2N       29.2480    9.4310   30.2150 O.3   334  NAD334     -0.4371
     27  O5D       30.5080   11.3310   29.1650 O.3   334  NAD334     -0.3112
     28  C5D       29.7430   12.4100   29.7440 C.3   334  NAD334      0.1813
     29  C4D       30.6520   13.6190   29.9650 C.3   334  NAD334      0.1799
     30  O4D       31.7220   13.2010   30.8400 O.3   334  NAD334     -0.3327
     31  C3D       31.3490   14.0890   28.6860 C.3   334  NAD334      0.2158
     32  O3D       31.3130   15.5240   28.4970 O.3   334  NAD334     -0.2175
     33  C2D       32.7360   13.4540   28.8410 C.3   334  NAD334      0.2309
     34  O2D       33.7770   13.9260   27.9840 O.3   334  NAD334     -0.2158
     35  C1D       32.9480   13.7110   30.2980 C.3   334  NAD334      0.2263
     36  N1N       34.1370   13.1520   30.9710 N.pl3 334  NAD334     -0.2787
     37  C2N       34.4740   13.8250   32.1440 C.3   334  NAD334      0.1244
     38  C3N       35.4210   13.2940   32.9960 C.2   334  NAD334      0.0544
     39  C7N       35.7620   14.1100   34.2370 C.2   334  NAD334      0.2818
     40  O7N       36.7680   13.8830   34.8920 O.2   334  NAD334     -0.2670
     41  N7N       34.8620   15.0150   34.6070 N.am  334  NAD334     -0.0839
     42  C4N       36.0080   12.0540   32.7070 C.2   334  NAD334      0.0033
     43  C5N       35.6870   11.3610   31.5280 C.2   334  NAD334      0.0157
     44  C6N       34.7760   11.9340   30.6330 C.2   334  NAD334      0.0633
@<TRIPOS>BOND
     1    11    10    1
     2     2     1    2
     3    10     8    1
     4    10    12    1
     5    14    15    1
     6    14    13    1
     7    15    16    2
     8     8     9    1
     9     8     6    1
    10     1     3    1
    11     1    23    1
    12     1     4    1
    13    18    17    1
    14    13    12    1
    15    13    22    1
    16    12     7    1
    17    16    17    1
    18    16    22    1
    19     5     4    1
    20     5     6    1
    21    23    24    1
    22     6     7    1
    23    34    33    1
    24    17    19    2
    25    22    21    2
    26    32    31    1
    27    25    24    2
    28    31    33    1
    29    31    29    1
    30    33    35    1
    31    24    27    1
    32    24    26    1
    33    19    20    1
    34    27    28    1
    35    21    20    1
    36    28    29    1
    37    29    30    1
    38    35    30    1
    39    35    36    1
    40    44    36    1
    41    44    43    2
    42    36    37    1
    43    43    42    1
    44    37    38    1
    45    42    38    2
    46    38    39    1
    47    39    41   am
    48    39    40    2
