@<TRIPOS>MOLECULE
1b8v_NAD_A_1.pdb
 44 48 0 0 0
SMALL
GASTEIGER

@<TRIPOS>ATOM
      1  PA        28.2770    9.7240   27.8270 P.3   334  NAD334      0.2189
      2  O1A       28.2610   10.3200   26.4610 O.2   334  NAD334     -0.5170
      3  O2A       28.3150    8.2430   27.9410 O.3   334  NAD334     -0.4371
      4  O5B       27.0580   10.2830   28.6790 O.3   334  NAD334     -0.3112
      5  C5B       26.7240   11.6590   28.7340 C.3   334  NAD334      0.1813
      6  C4B       25.2290   11.6400   28.8940 C.3   334  NAD334      0.1821
      7  O4B       24.8540   13.0040   29.0970 O.3   334  NAD334     -0.3135
      8  C3B       24.5540   11.1750   27.6100 C.3   334  NAD334      0.2184
      9  O3B       23.6040   10.1490   27.8790 O.3   334  NAD334     -0.2174
     10  C2B       23.8690   12.4160   27.0520 C.3   334  NAD334      0.2570
     11  O2B       22.6460   12.2420   26.3040 O.3   334  NAD334     -0.2130
     12  C1B       23.6510   13.1580   28.3400 C.3   334  NAD334      0.3186
     13  N9A       23.3690   14.5790   28.0990 N.pl3 334  NAD334     -0.1439
     14  C8A       23.8030   15.3370   27.0640 C.3   334  NAD334      0.3377
     15  N7A       23.3460   16.5800   27.2050 N.2   334  NAD334     -0.2095
     16  C5A       22.6630   16.5300   28.3500 C.2   334  NAD334      0.2526
     17  C6A       22.0050   17.5980   28.8880 C.2   334  NAD334      0.4393
     18  N6A       22.1690   18.7850   28.3120 N.pl3 334  NAD334      0.2180
     19  N1A       21.2620   17.3670   29.9940 N.2   334  NAD334      0.0021
     20  C2A       21.1860   16.1490   30.5450 C.3   334  NAD334      0.5254
     21  N3A       21.8400   15.1100   30.0170 N.2   334  NAD334     -0.0055
     22  C4A       22.6040   15.3070   28.9110 C.2   334  NAD334      0.3518
     23  O3        29.5270   10.3560   28.5900 O.3   334  NAD334     -0.2703
     24  PN        30.2720   10.0100   29.9220 P.3   334  NAD334      0.2189
     25  O1N       31.4190    9.1410   29.5690 O.2   334  NAD334     -0.5170
     26  O2N       29.3320    9.5300   30.9450 O.3   334  NAD334     -0.4371
     27  O5D       30.9020   11.4330   30.3220 O.3   334  NAD334     -0.3112
     28  C5D       30.0760   12.5500   30.7280 C.3   334  NAD334      0.1813
     29  C4D       30.8930   13.8270   30.9320 C.3   334  NAD334      0.1799
     30  O4D       31.9020   13.5820   31.9440 O.3   334  NAD334     -0.3327
     31  C3D       31.6240   14.2040   29.6390 C.3   334  NAD334      0.2158
     32  O3D       31.5980   15.6050   29.3480 O.3   334  NAD334     -0.2175
     33  C2D       33.0040   13.6310   29.9060 C.3   334  NAD334      0.2309
     34  O2D       34.0120   14.0820   29.0070 O.3   334  NAD334     -0.2158
     35  C1D       33.1480   14.0240   31.3670 C.3   334  NAD334      0.2263
     36  N1N       34.3170   13.5020   32.1090 N.pl3 334  NAD334     -0.2787
     37  C2N       34.7250   14.2090   33.2460 C.3   334  NAD334      0.1244
     38  C3N       35.8150   13.7940   34.0010 C.2   334  NAD334      0.0544
     39  C7N       36.2740   14.5950   35.2260 C.2   334  NAD334      0.2818
     40  O7N       37.0770   14.1060   36.0180 O.2   334  NAD334     -0.2670
     41  N7N       35.7200   15.7930   35.3980 N.am  334  NAD334     -0.0839
     42  C4N       36.4950   12.6420   33.6120 C.2   334  NAD334      0.0033
     43  C5N       36.1000   11.9220   32.4790 C.2   334  NAD334      0.0157
     44  C6N       35.0180   12.3550   31.7100 C.2   334  NAD334      0.0633
@<TRIPOS>BOND
     1    11    10    1
     2     2     1    2
     3    10     8    1
     4    10    12    1
     5    14    15    1
     6    14    13    1
     7    15    16    2
     8     8     9    1
     9     8     6    1
    10     1     3    1
    11     1    23    1
    12     1     4    1
    13    13    12    1
    14    13    22    1
    15    18    17    1
    16    12     7    1
    17    16    17    1
    18    16    22    1
    19    23    24    1
    20     4     5    1
    21     5     6    1
    22    17    19    2
    23     6     7    1
    24    22    21    2
    25    34    33    1
    26    32    31    1
    27    25    24    2
    28    31    33    1
    29    31    29    1
    30    33    35    1
    31    24    27    1
    32    24    26    1
    33    19    20    1
    34    21    20    1
    35    27    28    1
    36    28    29    1
    37    29    30    1
    38    35    30    1
    39    35    36    1
    40    44    36    1
    41    44    43    2
    42    36    37    1
    43    43    42    1
    44    37    38    1
    45    42    38    2
    46    38    39    1
    47    39    41   am
    48    39    40    2
