@<TRIPOS>MOLECULE
1b8y_IN7_A_1.pdb
 26 28 0 0 0
SMALL
GASTEIGER

@<TRIPOS>ATOM
      1  C1        16.4370    8.1110   18.8350 C.ar  502  IN7502      0.0479
      2  C2        16.4080    8.4840   20.1980 C.ar  502  IN7502      0.0159
      3  C3        15.9000    7.6090   21.1620 C.ar  502  IN7502      0.0212
      4  C7        18.0070    9.2300   15.6150 C.3   502  IN7502      0.0258
      5  C6        15.9040    6.8600   18.4390 C.ar  502  IN7502      0.0159
      6  O2        15.0640    3.8730   21.5820 O.2   502  IN7502     -0.1516
      7  C4        15.4570    6.3390   20.7640 C.ar  502  IN7502      0.1236
      8  C5        15.3990    5.9670   19.4060 C.ar  502  IN7502      0.0212
      9  O3        11.8280    7.3580   21.4890 O.co2 502  IN7502     -0.2440
     10  S         15.0200    5.2200   22.0640 S.O2  502  IN7502      0.0774
     11  C11       18.5830   10.5510   16.1060 C.3   502  IN7502      0.0257
     12  C13       18.6300   10.8780   17.5890 C.3   502  IN7502      0.0258
     13  C15       17.4540   10.3170   18.3620 C.3   502  IN7502      0.0911
     14  N1        16.9670    8.9940   17.9170 N.pl3 502  IN7502     -0.3075
     15  C18       16.8520    8.7250   16.4730 C.3   502  IN7502      0.0911
     16  C10       20.6670   13.0040   13.2980 C.ar  502  IN7502     -0.0000
     17  C12       21.2510   12.7380   14.5490 C.ar  502  IN7502     -0.0003
     18  C14       20.5460   11.9450   15.4800 C.ar  502  IN7502     -0.0043
     19  C16       19.2700   11.4320   15.1510 C.ar  502  IN7502     -0.0224
     20  C17       18.6770   11.7290   13.9010 C.ar  502  IN7502     -0.0043
     21  C19       19.3870   12.5120   12.9650 C.ar  502  IN7502     -0.0003
     22  O1        15.7680    5.6020   23.2110 O.2   502  IN7502     -0.1516
     23  N2        13.4270    5.4730   22.6580 N.3   502  IN7502     -0.0656
     24  C8        12.2390    5.0450   21.9600 C.3   502  IN7502      0.2288
     25  C9        11.8140    6.1060   21.0180 C.2   502  IN7502      0.3842
     26  O4        11.5150    5.8160   19.9150 O.co2 502  IN7502     -0.2440
@<TRIPOS>BOND
     1    21    16   ar
     2    21    20   ar
     3    16    17   ar
     4    20    19   ar
     5    17    18   ar
     6    19    18   ar
     7    19    11    1
     8     4    11    1
     9     4    15    1
    10    11    12    1
    11    15    14    1
    12    12    13    1
    13    14    13    1
    14    14     1    1
    15     5     1   ar
    16     5     8   ar
    17     1     2   ar
    18     8     7   ar
    19    26    25   ar
    20     2     3   ar
    21     7     3   ar
    22     7    10    1
    23    25     9   ar
    24    25    24    1
    25     6    10    2
    26    24    23    1
    27    10    23    1
    28    10    22    2
