@<TRIPOS>MOLECULE
1b99_FUP_A_1.pdb
 24 25 0 0 0
SMALL
GASTEIGER

@<TRIPOS>ATOM
      1  PB         4.0900  -20.2660    5.3540 P.3   160  FUP160      0.5373
      2  O1B        5.2120  -19.9610    6.2440 O.3   160  FUP160     -0.1143
      3  O2B        3.2200  -19.0770    5.2040 O.3   160  FUP160     -0.1143
      4  O3B        4.4530  -20.8870    4.0730 O.2   160  FUP160     -0.2221
      5  O3A        3.1690  -21.3310    6.0920 O.3   160  FUP160     -0.2261
      6  PA         1.9920  -22.2540    5.5870 P.3   160  FUP160      0.2231
      7  O1A        2.1520  -22.4010    4.1250 O.2   160  FUP160     -0.5169
      8  O2A        1.9670  -23.4670    6.4240 O.3   160  FUP160     -0.4370
      9  O5'        0.6850  -21.3720    5.9140 O.3   160  FUP160     -0.3111
     10  C5'        0.0260  -20.5560    4.9190 C.3   160  FUP160      0.1814
     11  C4'       -0.8500  -19.5810    5.6240 C.3   160  FUP160      0.1794
     12  O4'       -1.4630  -20.2190    6.7440 O.3   160  FUP160     -0.3337
     13  C3'       -0.0140  -18.4690    6.2030 C.3   160  FUP160      0.1947
     14  F3'       -0.1730  -17.2940    5.4300 F     160  FUP160     -0.2344
     15  C2'       -0.3770  -18.4610    7.7010 C.3   160  FUP160      0.0898
     16  C1'       -1.6620  -19.2900    7.8300 C.3   160  FUP160      0.2092
     17  N1        -1.9630  -20.0680    9.1060 N.am  160  FUP160     -0.1790
     18  C2        -3.1400  -19.8090    9.8430 C.1   160  FUP160      0.2844
     19  O2        -3.8430  -18.8190    9.7310 O.2   160  FUP160     -0.1918
     20  N3        -3.5270  -20.7230   10.7760 N.2   160  FUP160     -0.2452
     21  C4        -2.8780  -21.9170   11.0350 C.1   160  FUP160      0.2182
     22  O4        -3.3260  -22.6720   11.8880 O.2   160  FUP160     -0.2085
     23  C5        -1.6840  -22.1590   10.2500 C.2   160  FUP160      0.1242
     24  C6        -1.2600  -21.2310    9.3600 C.2   160  FUP160      0.0928
@<TRIPOS>BOND
     1     4     1    2
     2     7     6    2
     3    10    11    1
     4    10     9    1
     5     3     1    1
     6     1     5    1
     7     1     2    1
     8    14    13    1
     9     6     9    1
    10     6     5    1
    11     6     8    1
    12    11    13    1
    13    11    12    1
    14    13    15    1
    15    12    16    1
    16    15    16    1
    17    16    17    1
    18    17    24    1
    19    17    18   am
    20    24    23    2
    21    19    18    2
    22    18    20    2
    23    23    21    1
    24    20    21    2
    25    21    22    2
