@<TRIPOS>MOLECULE
1b9h_PLP_A_1.pdb
 15 15 0 0 0
SMALL
GASTEIGER

@<TRIPOS>ATOM
      1  N1        18.3630   32.2000   14.6320 N.ar  389  PLP389     -0.2452
      2  C2        18.2020   33.1270   15.6490 C.ar  389  PLP389      0.0978
      3  C2A       18.0540   32.5280   17.0680 C.3   389  PLP389      0.0555
      4  C3        18.1010   34.4570   15.3350 C.ar  389  PLP389      0.2049
      5  O3        17.8840   35.3530   16.2700 O.3   389  PLP389     -0.2857
      6  C4        18.1480   34.9320   13.9670 C.ar  389  PLP389      0.0182
      7  C4A       18.1980   36.3920   13.6580 C.3   389  PLP389      0.0342
      8  C5        18.3260   33.9380   12.9840 C.ar  389  PLP389      0.0261
      9  C6        18.4680   32.5900   13.3440 C.ar  389  PLP389      0.0965
     10  C5A       18.3080   34.1520   11.4690 C.3   389  PLP389      0.1815
     11  O4P       18.9320   35.2190   10.9120 O.3   389  PLP389     -0.2653
     12  P         18.6470   36.1780    9.6740 P.3   389  PLP389      0.5329
     13  O1P       18.0520   35.3180    8.6050 O.2   389  PLP389     -0.2224
     14  O2P       19.9760   36.7890    9.3310 O.3   389  PLP389     -0.1145
     15  O3P       17.7410   37.1680   10.2640 O.3   389  PLP389     -0.1145
@<TRIPOS>BOND
     1    13    12    2
     2    14    12    1
     3    12    15    1
     4    12    11    1
     5    11    10    1
     6    10     8    1
     7     8     9   ar
     8     8     6   ar
     9     9     1   ar
    10     7     6    1
    11     6     4   ar
    12     1     2   ar
    13     4     2   ar
    14     4     5    1
    15     2     3    1
