@<TRIPOS>MOLECULE
1b9i_PXG_A_1.pdb
 25 26 0 0 0
SMALL
GASTEIGER

@<TRIPOS>ATOM
      1  N1        18.4840   32.2010   14.5720 N.ar  389  PXG389     -0.2452
      2  C2        18.1700   33.1710   15.5860 C.ar  389  PXG389      0.0978
      3  C2A       18.1280   32.6150   17.0520 C.3   389  PXG389      0.0555
      4  C3        17.8380   34.4880   15.2240 C.ar  389  PXG389      0.2065
      5  O3        17.5570   35.4220   16.0920 O.3   389  PXG389     -0.2856
      6  C5        18.1200   33.8260   12.8020 C.ar  389  PXG389      0.0278
      7  C6        18.5680   32.5440   13.2160 C.ar  389  PXG389      0.0965
      8  C5A       18.1760   34.1630   11.2830 C.3   389  PXG389      0.1816
      9  OP4       18.9930   35.2450   10.8430 O.3   389  PXG389     -0.2653
     10  P         18.6960   36.2080    9.5710 P.3   389  PXG389      0.5329
     11  OP1       18.2310   35.1540    8.5010 O.2   389  PXG389     -0.2224
     12  OP2       20.1280   36.6220    9.3240 O.3   389  PXG389     -0.1145
     13  OP3       17.7470   37.1520    9.9550 O.3   389  PXG389     -0.1145
     14  C4        17.8100   34.8980   13.7520 C.ar  389  PXG389      0.0394
     15  C4A       17.4800   36.2900   13.2770 C.3   389  PXG389      0.1415
     16  C7        13.4150   40.3560   15.9010 C.2   389  PXG389      0.3878
     17  C8        14.2400   39.7780   14.8250 C.ar  389  PXG389      0.0810
     18  O2        13.6460   39.8090   17.1750 O.co2 389  PXG389     -0.2406
     19  C9        15.1360   38.8030   15.1400 C.ar  389  PXG389      0.0227
     20  C10       16.0020   38.1830   14.1570 C.ar  389  PXG389      0.0659
     21  C11       15.9330   38.5980   12.8290 C.ar  389  PXG389      0.0161
     22  C12       14.9330   39.6550   12.4750 C.ar  389  PXG389      0.0015
     23  C13       14.1410   40.2560   13.4120 C.ar  389  PXG389      0.0067
     24  O8        12.5580   41.2380   15.7680 O.co2 389  PXG389     -0.2406
     25  N9        16.9400   37.1360   14.4000 N.pl3 389  PXG389     -0.2327
@<TRIPOS>BOND
     1    11    10    2
     2    12    10    1
     3    10    13    1
     4    10     9    1
     5     9     8    1
     6     8     6    1
     7    22    21   ar
     8    22    23   ar
     9     6     7   ar
    10     6    14   ar
    11    21    20   ar
    12     7     1   ar
    13    15    14    1
    14    15    25    1
    15    23    17   ar
    16    14     4   ar
    17    20    25    1
    18    20    19   ar
    19     1     2   ar
    20    17    19   ar
    21    17    16    1
    22     4     2   ar
    23     4     5    1
    24     2     3    1
    25    24    16   ar
    26    16    18   ar
