@<TRIPOS>MOLECULE
1b9j_III_B_1.pdb
 27 26 0 0 0
SMALL
GASTEIGER

@<TRIPOS>ATOM
      1  N          6.9680   16.5180   15.1370 N.3     1  LYS1       -0.1231
      2  CA         6.4590   17.7920   14.5610 C.3     1  LYS1        0.1693
      3  C          5.2330   18.2580   15.3170 C.2     1  LYS1        0.2592
      4  O          4.5010   17.4540   15.8810 O.2     1  LYS1       -0.2718
      5  CB         6.2740   17.7080   13.0310 C.3     1  LYS1        0.0285
      6  CG         5.3660   16.5370   12.6220 C.3     1  LYS1        0.0035
      7  CD         5.2460   16.4740   11.0950 C.3     1  LYS1        0.0206
      8  CE         6.5240   15.8850   10.4800 C.3     1  LYS1        0.1093
      9  NZ         6.6860   14.4660   10.9100 N.3     1  LYS1       -0.1314
     10  N          5.0010   19.5670   15.3040 N.am    2  LEU2       -0.1966
     11  CA         3.9000   20.1550   16.0690 C.3     2  LEU2        0.1728
     12  C          2.5980   20.1540   15.2880 C.2     2  LEU2        0.2617
     13  O          2.5550   20.4520   14.1020 O.2     2  LEU2       -0.2715
     14  CB         4.2860   21.6050   16.4320 C.3     2  LEU2        0.0311
     15  CG         5.2310   21.6380   17.6610 C.3     2  LEU2        0.0022
     16  CD1        6.6620   21.3850   17.2120 C.3     2  LEU2        0.0001
     17  CD2        5.1140   22.9610   18.3830 C.3     2  LEU2        0.0001
     18  N          1.5100   19.7250   15.9380 N.am    3  LYS3       -0.1942
     19  CA         0.2260   19.7150   15.2460 C.3     3  LYS3        0.1978
     20  C         -0.7570   20.6010   16.0220 C.2     3  LYS3        0.3842
     21  O         -1.7670   20.9340   15.3740 O.co2   3  LYS3       -0.2437
     22  CB        -0.3840   18.3050   15.1970 C.3     3  LYS3        0.0333
     23  CG        -1.4300   18.2580   14.0720 C.3     3  LYS3        0.0039
     24  CD        -2.1520   16.9300   14.0720 C.3     3  LYS3        0.0206
     25  CE        -3.3970   16.9820   13.1820 C.3     3  LYS3        0.1093
     26  NZ        -2.9390   16.8030   11.7770 N.3     3  LYS3       -0.1314
     27  OXT       -0.4940   20.9340   17.1970 O.co2   3  LYS3       -0.2437
@<TRIPOS>BOND
     1     8     9    1
     2     8     7    1
     3     7     6    1
     4    26    25    1
     5     6     5    1
     6     5     2    1
     7    25    24    1
     8    23    24    1
     9    23    22    1
    10    13    12    2
    11     2     1    1
    12     2     3    1
    13    22    19    1
    14    19    18    1
    15    19    20    1
    16    12    18   am
    17    12    11    1
    18    10     3   am
    19    10    11    1
    20     3     4    2
    21    21    20   ar
    22    20    27   ar
    23    11    14    1
    24    14    15    1
    25    16    15    1
    26    15    17    1
