@<TRIPOS>MOLECULE
1b9s_FDI_A_1.pdb
 21 21 0 0 0
SMALL
GASTEIGER

@<TRIPOS>ATOM
      1  C1        33.5870   -9.7130   64.2290 C.ar  468  FDI468      0.0181
      2  C2        32.2850   -9.4600   63.7000 C.ar  468  FDI468      0.0886
      3  C3        31.2190  -10.3660   64.0090 C.ar  468  FDI468      0.0888
      4  C4        31.4760  -11.5020   64.8300 C.ar  468  FDI468      0.0245
      5  C5        32.7670  -11.7590   65.3550 C.ar  468  FDI468      0.0811
      6  C6        33.8260  -10.8520   65.0500 C.ar  468  FDI468      0.0080
      7  C10       32.9920  -12.9650   66.2010 C.2   468  FDI468      0.3878
      8  O11       31.9170  -13.7590   66.4190 O.co2 468  FDI468     -0.2406
      9  O12       34.0660  -13.2130   66.6530 O.co2 468  FDI468     -0.2406
     10  N13       29.9440  -10.1580   63.5200 N.am  468  FDI468     -0.1779
     11  C14       28.8040  -10.6760   64.0940 C.2   468  FDI468      0.2451
     12  C15       27.9830   -9.6620   64.9570 C.3   468  FDI468      0.0786
     13  O16       28.4160  -11.8350   63.9350 O.2   468  FDI468     -0.2730
     14  C17       27.6710   -8.3960   64.1190 C.3   468  FDI468      0.0091
     15  C18       26.2190   -8.2830   63.6280 C.3   468  FDI468      0.0005
     16  C24       28.7640   -9.3610   66.2760 C.3   468  FDI468      0.0091
     17  C26       28.7360  -10.4960   67.3210 C.3   468  FDI468      0.0005
     18  N32       32.0850   -8.3570   62.9020 N.am  468  FDI468     -0.1779
     19  C33       31.5340   -7.1880   63.3370 C.2   468  FDI468      0.2461
     20  C34       31.4230   -6.1220   62.2430 C.3   468  FDI468      0.0968
     21  O38       31.1480   -6.9660   64.4800 O.2   468  FDI468     -0.2730
@<TRIPOS>BOND
     1    20    19    1
     2    18    19   am
     3    18     2    1
     4    19    21    2
     5    10     3    1
     6    10    11   am
     7    15    14    1
     8     2     3   ar
     9     2     1   ar
    10    13    11    2
    11     3     4   ar
    12    11    12    1
    13    14    12    1
    14     1     6   ar
    15     4     5   ar
    16    12    16    1
    17     6     5   ar
    18     5     7    1
    19     7     8   ar
    20     7     9   ar
    21    16    17    1
