@<TRIPOS>MOLECULE
1b9s_NAG_A_1.pdb
 14 14 0 0 0
SMALL
GASTEIGER

@<TRIPOS>ATOM
      1  C1        42.3260  -17.9630   33.6360 C.3   467  NAG467      0.1665
      2  C2        42.0230  -19.4000   33.1620 C.3   467  NAG467      0.1576
      3  C3        43.2340  -19.7240   32.2610 C.3   467  NAG467      0.2069
      4  C4        43.3540  -18.7140   31.0350 C.3   467  NAG467      0.2134
      5  C5        42.9550  -17.2280   31.3600 C.3   467  NAG467      0.1809
      6  C6        42.1560  -16.7220   30.1660 C.3   467  NAG467      0.2141
      7  C7        41.0970  -21.4410   34.1310 C.2   467  NAG467      0.2420
      8  C8        40.9290  -22.2800   35.3840 C.3   467  NAG467      0.0964
      9  N2        41.7830  -20.3130   34.2740 N.am  467  NAG467     -0.2019
     10  O3        43.0980  -21.0500   31.7510 O.3   467  NAG467     -0.2184
     11  O4        44.7130  -18.6630   30.5900 O.3   467  NAG467     -0.2176
     12  O5        42.0650  -17.1140   32.4940 O.3   467  NAG467     -0.3489
     13  O6        41.5660  -15.4840   30.4880 O.3   467  NAG467     -0.2176
     14  O7        40.6260  -21.8030   33.0550 O.2   467  NAG467     -0.2733
@<TRIPOS>BOND
     1     6    13    1
     2     6     5    1
     3    11     4    1
     4     4     5    1
     5     4     3    1
     6     5    12    1
     7    10     3    1
     8     3     2    1
     9    12     1    1
    10    14     7    2
    11     2     1    1
    12     2     9    1
    13     7     9   am
    14     7     8    1
