@<TRIPOS>MOLECULE
1b9t_NAG_A_1.pdb
 14 14 0 0 0
SMALL
GASTEIGER

@<TRIPOS>ATOM
      1  C1        41.0870  -18.2470   32.8570 C.3   467  NAG467      0.1665
      2  C2        41.4850  -19.6990   32.6700 C.3   467  NAG467      0.1576
      3  C3        42.9790  -19.6490   32.2810 C.3   467  NAG467      0.2069
      4  C4        43.1740  -18.7690   30.9420 C.3   467  NAG467      0.2134
      5  C5        42.5200  -17.3370   31.1290 C.3   467  NAG467      0.1809
      6  C6        42.4260  -16.4190   29.9140 C.3   467  NAG467      0.2141
      7  C7        41.0940  -21.6050   34.2150 C.2   467  NAG467      0.2420
      8  C8        40.7900  -21.9510   35.6570 C.3   467  NAG467      0.0964
      9  N2        41.2000  -20.3060   33.9560 N.am  467  NAG467     -0.2019
     10  O3        43.4570  -20.9770   32.1090 O.3   467  NAG467     -0.2184
     11  O4        44.5500  -18.6160   30.6150 O.3   467  NAG467     -0.2176
     12  O5        41.1730  -17.4970   31.6230 O.3   467  NAG467     -0.3489
     13  O6        41.6390  -15.2920   30.2470 O.3   467  NAG467     -0.2176
     14  O7        41.2290  -22.4750   33.3590 O.2   467  NAG467     -0.2733
@<TRIPOS>BOND
     1     6    13    1
     2     6     5    1
     3    11     4    1
     4     4     5    1
     5     4     3    1
     6     5    12    1
     7    12     1    1
     8    10     3    1
     9     3     2    1
    10     2     1    1
    11     2     9    1
    12    14     7    2
    13     9     7   am
    14     7     8    1
