@<TRIPOS>MOLECULE
1b9t_RAI_A_1.pdb
 23 24 0 0 0
SMALL
GASTEIGER

@<TRIPOS>ATOM
      1  C1        33.8350   -9.7190   64.6050 C.ar  468  RAI468      0.0181
      2  C2        32.5300   -9.4640   64.0870 C.ar  468  RAI468      0.0883
      3  C3        31.4600  -10.3440   64.4570 C.ar  468  RAI468      0.1729
      4  C4        31.7010  -11.4430   65.3090 C.ar  468  RAI468      0.0450
      5  C5        32.9860  -11.7000   65.8150 C.ar  468  RAI468      0.0828
      6  C6        34.0630  -10.8250   65.4590 C.ar  468  RAI468      0.0081
      7  C10       33.2090  -12.8620   66.6940 C.2   468  RAI468      0.3878
      8  O11       32.1250  -13.6200   66.9520 O.co2 468  RAI468     -0.2406
      9  N12       30.1790  -10.1610   64.0130 N.pl3 468  RAI468     -0.0592
     10  C13       29.2990  -11.0450   63.5120 C.cat 468  RAI468      0.5393
     11  N14       29.7330  -12.1730   62.9090 N.pl3 468  RAI468      0.1358
     12  N15       32.2740   -8.3760   63.2370 N.am  468  RAI468     -0.2542
     13  C16       32.4450   -8.3520   61.7310 C.3   468  RAI468      0.1259
     14  C17       32.2020   -6.8470   61.4010 C.3   468  RAI468      0.0334
     15  C18       31.5800   -6.1860   62.6270 C.3   468  RAI468      0.0874
     16  C19       31.7990   -7.1960   63.7300 C.2   468  RAI468      0.2295
     17  C24       31.3670   -9.2380   61.0210 C.3   468  RAI468      0.2030
     18  O25       31.6700   -9.4450   59.6410 O.3   468  RAI468     -0.2185
     19  C28       33.8760   -8.8440   61.2880 C.3   468  RAI468      0.2030
     20  O29       34.4430   -7.9650   60.3610 O.3   468  RAI468     -0.2185
     21  O32       34.2810  -13.1100   67.1400 O.co2 468  RAI468     -0.2406
     22  N33       27.9970  -10.7800   63.6210 N.pl3 468  RAI468      0.1358
     23  O34       31.5580   -6.9480   64.9060 O.2   468  RAI468     -0.2745
@<TRIPOS>BOND
     1    18    17    1
     2    20    19    1
     3    17    13    1
     4    19    13    1
     5    14    13    1
     6    14    15    1
     7    13    12    1
     8    15    16    1
     9    11    10    1
    10    12    16   am
    11    12     2    1
    12    10    22    1
    13    10     9    2
    14    16    23    2
    15     9     3    1
    16     2     3   ar
    17     2     1   ar
    18     3     4   ar
    19     1     6   ar
    20     4     5   ar
    21     6     5   ar
    22     5     7    1
    23     7     8   ar
    24     7    21   ar
