@<TRIPOS>MOLECULE
1b9v_RA2_A_1.pdb
 25 26 0 0 0
SMALL
GASTEIGER

@<TRIPOS>ATOM
      1  C1        33.8750   -9.4120   65.0710 C.ar  468  RA2468      0.0164
      2  C2        32.6830   -9.1850   64.3260 C.ar  468  RA2468      0.0687
      3  C3        31.6360  -10.1660   64.3690 C.ar  468  RA2468      0.0791
      4  C4        31.8140  -11.3380   65.1410 C.ar  468  RA2468      0.0239
      5  C5        32.9940  -11.5710   65.8730 C.ar  468  RA2468      0.0811
      6  C6        34.0310  -10.5980   65.8420 C.ar  468  RA2468      0.0079
      7  C10       33.1340  -12.8250   66.6530 C.2   468  RA2468      0.3878
      8  N11       32.5210   -8.0310   63.5490 N.am  468  RA2468     -0.2556
      9  N12       30.4840   -9.9330   63.6410 N.pl3 468  RA2468     -0.2381
     10  C13       29.1840  -10.6300   63.7590 C.3   468  RA2468      0.0925
     11  C14       29.2160  -11.9210   62.8880 C.3   468  RA2468      0.0216
     12  C15       27.9490  -12.7780   62.9190 C.3   468  RA2468      0.0018
     13  C21       28.0610   -9.6490   63.3340 C.3   468  RA2468      0.0216
     14  C23       27.7650   -8.5320   64.3440 C.3   468  RA2468      0.0018
     15  C29       33.0660   -7.7960   62.1590 C.3   468  RA2468      0.1259
     16  C30       32.0960   -6.7030   61.6670 C.3   468  RA2468      0.0334
     17  C31       31.7780   -5.8770   62.9210 C.3   468  RA2468      0.0874
     18  C32       31.7970   -6.9540   63.9980 C.2   468  RA2468      0.2295
     19  O37       31.2300   -6.8410   65.0770 O.2   468  RA2468     -0.2745
     20  C38       33.0290   -9.0750   61.2490 C.3   468  RA2468      0.2030
     21  O39       31.7020   -9.4880   60.9290 O.3   468  RA2468     -0.2185
     22  C42       34.5150   -7.2100   62.1450 C.3   468  RA2468      0.2030
     23  O43       35.1150   -7.1970   63.4350 O.3   468  RA2468     -0.2185
     24  O49       32.0780  -13.6760   66.5930 O.co2 468  RA2468     -0.2406
     25  O50       34.1150  -13.0700   67.2850 O.co2 468  RA2468     -0.2406
@<TRIPOS>BOND
     1    21    20    1
     2    20    15    1
     3    16    15    1
     4    16    17    1
     5    22    15    1
     6    22    23    1
     7    15     8    1
     8    11    12    1
     9    11    10    1
    10    17    18    1
    11    13    10    1
    12    13    14    1
    13     8    18   am
    14     8     2    1
    15     9    10    1
    16     9     3    1
    17    18    19    2
    18     2     3   ar
    19     2     1   ar
    20     3     4   ar
    21     1     6   ar
    22     4     5   ar
    23     6     5   ar
    24     5     7    1
    25    24     7   ar
    26     7    25   ar
