@<TRIPOS>MOLECULE
1b9v_NAG_A_1.pdb
 14 14 0 0 0
SMALL
GASTEIGER

@<TRIPOS>ATOM
      1  C1        41.2180  -17.9720   33.1230 C.3   467  NAG467      0.1665
      2  C2        41.3930  -19.4680   32.9240 C.3   467  NAG467      0.1576
      3  C3        42.8700  -19.5860   32.4030 C.3   467  NAG467      0.2069
      4  C4        43.0860  -18.7240   31.0480 C.3   467  NAG467      0.2134
      5  C5        42.5230  -17.2880   31.2180 C.3   467  NAG467      0.1809
      6  C6        42.3870  -16.4240   29.9830 C.3   467  NAG467      0.2141
      7  C7        40.8720  -21.3820   34.4090 C.2   467  NAG467      0.2420
      8  C8        40.5580  -21.8110   35.8220 C.3   467  NAG467      0.0964
      9  N2        41.0810  -20.0850   34.2130 N.am  467  NAG467     -0.2019
     10  O3        43.1520  -20.9550   32.1710 O.3   467  NAG467     -0.2184
     11  O4        44.4480  -18.6040   30.6540 O.3   467  NAG467     -0.2176
     12  O5        41.2070  -17.3570   31.8260 O.3   467  NAG467     -0.3489
     13  O6        41.6350  -15.2770   30.3430 O.3   467  NAG467     -0.2176
     14  O7        40.9300  -22.2150   33.5080 O.2   467  NAG467     -0.2733
@<TRIPOS>BOND
     1     6    13    1
     2     6     5    1
     3    11     4    1
     4     4     5    1
     5     4     3    1
     6     5    12    1
     7    12     1    1
     8    10     3    1
     9     3     2    1
    10     2     1    1
    11     2     9    1
    12    14     7    2
    13     9     7   am
    14     7     8    1
