@<TRIPOS>MOLECULE
1b9z_MAL_A_1.pdb
 23 24 0 0 0
SMALL
GASTEIGER

@<TRIPOS>ATOM
      1  C1        45.8800   43.5090   14.0060 C.3   900  MAL900      0.2695
      2  C2        46.2100   44.6210   13.0590 C.3   900  MAL900      0.2406
      3  C3        46.4370   44.0610   11.6660 C.3   900  MAL900      0.2198
      4  C4        47.5230   43.0030   11.6870 C.3   900  MAL900      0.2144
      5  C5        47.1370   41.8930   12.6030 C.3   900  MAL900      0.1835
      6  C6        48.1980   40.7800   12.7220 C.3   900  MAL900      0.2142
      7  O1        44.5770   43.1030   13.6550 O.3   900  MAL900     -0.3257
      8  O2        45.1590   45.5370   13.0450 O.3   900  MAL900     -0.2149
      9  O3        46.8370   45.1100   10.8010 O.3   900  MAL900     -0.2174
     10  O4        47.6960   42.4860   10.3830 O.3   900  MAL900     -0.2176
     11  O5        46.8650   42.4410   13.9190 O.3   900  MAL900     -0.3256
     12  O6        49.3340   41.1800   13.4620 O.3   900  MAL900     -0.2176
     13  C1'       41.3660   41.0910   15.1970 C.3   900  MAL900      0.3023
     14  C2'       42.1830   41.8060   16.2530 C.3   900  MAL900      0.2433
     15  C3'       43.1040   42.7740   15.5410 C.3   900  MAL900      0.2168
     16  C4'       43.9390   42.0740   14.4380 C.3   900  MAL900      0.1804
     17  C5'       43.0530   41.2110   13.4710 C.3   900  MAL900      0.1804
     18  C6'       43.7700   40.2830   12.4830 C.3   900  MAL900      0.2141
     19  O1'       40.4470   40.1990   15.7780 O.3   900  MAL900     -0.1869
     20  O2'       41.3190   42.4880   17.1520 O.3   900  MAL900     -0.2148
     21  O3'       43.9800   43.3640   16.4680 O.3   900  MAL900     -0.2175
     22  O5'       42.1900   40.3740   14.2510 O.3   900  MAL900     -0.3237
     23  O6'       44.6480   39.3470   13.1170 O.3   900  MAL900     -0.2176
@<TRIPOS>BOND
     1    10     4    1
     2     9     3    1
     3     3     4    1
     4     3     2    1
     5     4     5    1
     6    18    23    1
     7    18    17    1
     8     5     6    1
     9     5    11    1
    10     6    12    1
    11     8     2    1
    12     2     1    1
    13    17    22    1
    14    17    16    1
    15     7     1    1
    16     7    16    1
    17    11     1    1
    18    22    13    1
    19    16    15    1
    20    13    19    1
    21    13    14    1
    22    15    14    1
    23    15    21    1
    24    14    20    1
