@<TRIPOS>MOLECULE
1ba0_ADP_A_1.pdb
 27 29 0 0 0
SMALL
GASTEIGER

@<TRIPOS>ATOM
      1  PB        17.8390   28.7640   16.6340 P.3   486  ADP486      0.5373
      2  O1B       18.5730   29.0170   17.9070 O.3   486  ADP486     -0.1143
      3  O2B       18.3430   27.5910   15.8820 O.2   486  ADP486     -0.2221
      4  O3B       16.3620   28.7990   16.7550 O.3   486  ADP486     -0.1143
      5  PA        19.4570   30.8900   15.3440 P.3   486  ADP486      0.2231
      6  O1A       20.6440   30.0070   15.3880 O.3   486  ADP486     -0.4370
      7  O2A       19.1550   31.6130   14.0900 O.2   486  ADP486     -0.5169
      8  O3A       18.1350   30.0810   15.8100 O.3   486  ADP486     -0.2261
      9  O5'       19.6610   31.9400   16.4900 O.3   486  ADP486     -0.3111
     10  C5'       18.6540   32.8910   16.7730 C.3   486  ADP486      0.1813
     11  C4'       19.2020   33.8750   17.8000 C.3   486  ADP486      0.1821
     12  O4'       20.3980   34.5010   17.2910 O.3   486  ADP486     -0.3135
     13  C3'       18.2020   34.9760   18.1010 C.3   486  ADP486      0.2184
     14  O3'       18.2210   35.1890   19.5210 O.3   486  ADP486     -0.2174
     15  C2'       18.7940   36.1230   17.3260 C.3   486  ADP486      0.2570
     16  O2'       18.3740   37.3900   17.8850 O.3   486  ADP486     -0.2130
     17  C1'       20.2970   35.8960   17.5280 C.3   486  ADP486      0.3186
     18  N9        21.1610   36.5680   16.5390 N.pl3 486  ADP486     -0.1439
     19  C8        21.0950   36.5300   15.1460 C.3   486  ADP486      0.3377
     20  N7        22.0600   37.2030   14.5630 N.2   486  ADP486     -0.2095
     21  C5        22.8050   37.7200   15.6180 C.2   486  ADP486      0.2526
     22  C6        23.9410   38.5340   15.6340 C.2   486  ADP486      0.4393
     23  N6        24.4570   39.0280   14.5180 N.pl3 486  ADP486      0.2180
     24  N1        24.4290   38.8710   16.8270 N.2   486  ADP486      0.0021
     25  C2        23.8180   38.4320   17.9410 C.3   486  ADP486      0.5254
     26  N3        22.7430   37.6760   18.0740 N.2   486  ADP486     -0.0055
     27  C4        22.2750   37.3450   16.8350 C.2   486  ADP486      0.3518
@<TRIPOS>BOND
     1     7     5    2
     2    23    22    1
     3    20    19    1
     4    20    21    2
     5    19    18    1
     6     5     6    1
     7     5     8    1
     8     5     9    1
     9    21    22    1
    10    21    27    1
    11    22    24    2
    12     8     1    1
    13     3     1    2
    14     9    10    1
    15    18    27    1
    16    18    17    1
    17     1     4    1
    18     1     2    1
    19    10    11    1
    20    24    25    1
    21    27    26    2
    22    12    17    1
    23    12    11    1
    24    15    17    1
    25    15    16    1
    26    15    13    1
    27    11    13    1
    28    25    26    1
    29    13    14    1
