@<TRIPOS>MOLECULE
1ba1_ADP_A_1.pdb
 27 29 0 0 0
SMALL
GASTEIGER

@<TRIPOS>ATOM
      1  PB        17.6740   28.9140   16.4480 P.3   486  ADP486      0.5373
      2  O1B       18.3720   28.1410   15.4090 O.2   486  ADP486     -0.2221
      3  O2B       16.2630   29.2100   16.1230 O.3   486  ADP486     -0.1143
      4  O3B       17.9210   28.4420   17.8350 O.3   486  ADP486     -0.1143
      5  PA        19.4490   31.1150   15.6950 P.3   486  ADP486      0.2231
      6  O1A       20.7180   30.3550   15.8250 O.3   486  ADP486     -0.4370
      7  O2A       18.9890   31.5800   14.3770 O.2   486  ADP486     -0.5169
      8  O3A       18.3000   30.3680   16.5040 O.3   486  ADP486     -0.2261
      9  O5'       19.6650   32.4600   16.5270 O.3   486  ADP486     -0.3111
     10  C5'       18.6580   33.4680   16.7060 C.3   486  ADP486      0.1813
     11  C4'       19.1990   34.4570   17.7040 C.3   486  ADP486      0.1821
     12  O4'       20.4270   34.9910   17.1880 O.3   486  ADP486     -0.3135
     13  C3'       18.2500   35.6130   17.9730 C.3   486  ADP486      0.2184
     14  O3'       18.2290   35.7720   19.3740 O.3   486  ADP486     -0.2174
     15  C2'       18.9630   36.7290   17.2620 C.3   486  ADP486      0.2570
     16  O2'       18.7120   37.9880   17.8520 O.3   486  ADP486     -0.2130
     17  C1'       20.4190   36.3940   17.4330 C.3   486  ADP486      0.3186
     18  N9        21.2890   37.0290   16.4260 N.pl3 486  ADP486     -0.1439
     19  C8        21.2840   36.9170   15.0450 C.3   486  ADP486      0.3377
     20  N7        22.2170   37.6130   14.4440 N.2   486  ADP486     -0.2095
     21  C5        22.8850   38.2280   15.4900 C.2   486  ADP486      0.2526
     22  C6        23.9750   39.0980   15.5190 C.2   486  ADP486      0.4393
     23  N6        24.5410   39.6040   14.4160 N.pl3 486  ADP486      0.2180
     24  N1        24.3910   39.4990   16.7250 N.2   486  ADP486      0.0021
     25  C2        23.7730   39.0890   17.8140 C.3   486  ADP486      0.5254
     26  N3        22.7350   38.2860   17.9300 N.2   486  ADP486     -0.0055
     27  C4        22.3350   37.8830   16.7010 C.2   486  ADP486      0.3518
@<TRIPOS>BOND
     1     7     5    2
     2    23    22    1
     3    20    19    1
     4    20    21    2
     5    19    18    1
     6     2     1    2
     7    21    22    1
     8    21    27    1
     9    22    24    2
    10     5     6    1
    11     5     8    1
    12     5     9    1
    13     3     1    1
    14    18    27    1
    15    18    17    1
    16     1     8    1
    17     1     4    1
    18     9    10    1
    19    27    26    2
    20    10    11    1
    21    24    25    1
    22    12    17    1
    23    12    11    1
    24    15    17    1
    25    15    16    1
    26    15    13    1
    27    11    13    1
    28    25    26    1
    29    13    14    1
