@<TRIPOS>MOLECULE
1ba8_0IT_B_1.pdb
 32 33 0 0 0
SMALL
GASTEIGER

@<TRIPOS>ATOM
      1  C3        18.5050  -17.0080   26.1270 C.3     1  0IT1        0.1969
      2  S         17.8190  -17.6730   24.6280 S.O2    1  0IT1        0.0620
      3  C11       19.7260  -16.1890   25.9210 C.ar    1  0IT1        0.0030
      4  C6        20.9500  -16.7130   25.5920 C.ar    1  0IT1       -0.0025
      5  C5        22.0680  -15.8840   25.3950 C.ar    1  0IT1       -0.0003
      6  C4        21.9460  -14.5170   25.5360 C.ar    1  0IT1       -0.0000
      7  C31       20.7160  -14.0070   25.8690 C.ar    1  0IT1       -0.0003
      8  C21       19.5880  -14.8030   26.0630 C.ar    1  0IT1       -0.0025
      9  O2S       18.8640  -18.3330   23.9230 O.2     1  0IT1       -0.1558
     10  O1S       16.5900  -18.2410   24.9980 O.2     1  0IT1       -0.1558
     11  N         17.4360  -16.4350   23.5770 N.3     1  0IT1       -0.0739
     12  CA        18.4420  -15.7570   22.8520 C.3     1  0IT1        0.1733
     13  CB        19.0330  -16.4690   21.6970 C.3     1  0IT1        0.0304
     14  CG        19.9950  -15.6810   20.8840 C.3     1  0IT1        0.0235
     15  CD        19.7720  -14.1610   20.8010 C.3     1  0IT1        0.0940
     16  C         17.9020  -14.3370   22.4450 C.2     1  0IT1        0.2437
     17  O         16.8830  -13.9820   22.9910 O.2     1  0IT1       -0.2733
     18  N1        18.5700  -13.7210   21.5090 N.am    1  0IT1       -0.2701
     19  CA1       18.0610  -12.3810   21.1590 C.3     1  0IT1        0.1809
     20  C1        16.7650  -12.5590   20.3690 C.2     1  0IT1        0.2620
     21  O1        16.5080  -13.6410   19.8490 O.2     1  0IT1       -0.2715
     22  N2        15.9480  -11.5220   20.4040 N.am    1  0IT1       -0.1977
     23  CA2       14.6430  -11.5230   19.6890 C.3     1  0IT1        0.1597
     24  C2        14.7650  -10.7360   18.4010 C.2     1  0IT1        0.2287
     25  O2        13.7430  -10.2930   17.8470 O.2     1  0IT1       -0.2864
     26  CB1       13.5370  -10.9750   20.5490 C.3     1  0IT1        0.0334
     27  CG1       13.1190  -11.9050   21.6620 C.3     1  0IT1        0.0492
     28  CD1       12.1690  -11.2620   22.5840 C.3     1  0IT1        0.2205
     29  NE        11.6040  -12.2630   23.4450 N.pl3   1  0IT1       -0.0865
     30  CZ        10.8140  -12.0520   24.4600 C.cat   1  0IT1        0.5346
     31  NH1       10.5110  -10.7690   24.7930 N.pl3   1  0IT1        0.1354
     32  NH2       10.1950  -13.0590   25.1040 N.pl3   1  0IT1        0.1354
@<TRIPOS>BOND
     1    25    24    2
     2    24    23    1
     3    23    22    1
     4    23    26    1
     5    21    20    2
     6    20    22   am
     7    20    19    1
     8    26    27    1
     9    15    14    1
    10    15    18    1
    11    14    13    1
    12    19    18    1
    13    18    16   am
    14    27    28    1
    15    13    12    1
    16    16    12    1
    17    16    17    2
    18    28    29    1
    19    12    11    1
    20    29    30    2
    21    11     2    1
    22     9     2    2
    23    30    31    1
    24    30    32    1
    25     2    10    2
    26     2     1    1
    27     5     6   ar
    28     5     4   ar
    29     6     7   ar
    30     4     3   ar
    31     7     8   ar
    32     3     8   ar
    33     3     1    1
