@<TRIPOS>MOLECULE
1bab_HEM_A_1.pdb
 43 50 0 0 0
SMALL
GASTEIGER

@<TRIPOS>ATOM
      1  CHA        5.9870    8.8560  -19.3440 C.2   143  HEM143      0.0000
      2  CHB        8.2210   10.8530  -15.5410 C.2   143  HEM143      0.0000
      3  CHC        6.5540    7.2960  -12.6590 C.2   143  HEM143      0.0000
      4  CHD        4.6660    5.0990  -16.5740 C.2   143  HEM143      0.0000
      5  C1A        6.7640    9.7030  -18.5880 C.2   143  HEM143      0.0000
      6  C2A        7.5520   10.8230  -19.0680 C.2   143  HEM143      0.0000
      7  C3A        8.1900   11.3760  -18.0440 C.2   143  HEM143      0.0000
      8  C4A        7.8190   10.6080  -16.8610 C.2   143  HEM143      0.0000
      9  CMA        9.1670   12.5720  -18.0040 C.3   143  HEM143      0.0000
     10  CAA        7.6310   11.1780  -20.5680 C.3   143  HEM143      0.0000
     11  CBA        6.6780   12.2320  -21.0790 C.3   143  HEM143      0.0000
     12  CGA        6.9090   12.6250  -22.5370 C.2   143  HEM143      0.0000
     13  O1A        6.5750   13.7900  -22.8390 O.co2 143  HEM143      0.0000
     14  O2A        7.4150   11.8190  -23.3470 O.co2 143  HEM143      0.0000
     15  C1B        7.9750   10.0500  -14.4170 C.ar  143  HEM143      0.0000
     16  C2B        8.5010   10.2940  -13.0900 C.ar  143  HEM143      0.0000
     17  C3B        8.0270    9.3200  -12.3030 C.ar  143  HEM143      0.0000
     18  C4B        7.2240    8.4220  -13.1240 C.ar  143  HEM143      0.0000
     19  CMB        9.3550   11.5510  -12.7890 C.3   143  HEM143      0.0000
     20  CAB        8.2090    9.0660  -10.7810 C.2   143  HEM143      0.0000
     21  CBB        9.3380    9.4600  -10.1520 C.2   143  HEM143      0.0000
     22  C1C        5.9210    6.3780  -13.5070 C.2   143  HEM143      0.0000
     23  C2C        5.5130    5.0530  -13.0940 C.2   143  HEM143      0.0000
     24  C3C        5.0620    4.3970  -14.1910 C.2   143  HEM143      0.0000
     25  C4C        5.1120    5.3550  -15.2900 C.2   143  HEM143      0.0000
     26  CMC        5.6390    4.4940  -11.6470 C.3   143  HEM143      0.0000
     27  CAC        4.4980    2.9690  -14.2790 C.2   143  HEM143      0.0000
     28  CBC        4.9660    1.9300  -13.5800 C.2   143  HEM143      0.0000
     29  C1D        4.8510    5.9330  -17.6570 C.ar  143  HEM143      0.0000
     30  C2D        4.4950    5.5900  -19.0310 C.ar  143  HEM143      0.0000
     31  C3D        4.8810    6.6390  -19.7810 C.ar  143  HEM143      0.0000
     32  C4D        5.4820    7.6330  -18.9430 C.ar  143  HEM143      0.0000
     33  CMD        3.8430    4.2820  -19.4920 C.3   143  HEM143      0.0000
     34  CAD        4.7440    6.7660  -21.3270 C.3   143  HEM143      0.0000
     35  CBD        5.9300    6.0050  -21.9600 C.3   143  HEM143      0.0000
     36  CGD        5.9180    6.1380  -23.5010 C.2   143  HEM143      0.0000
     37  O1D        6.8850    6.7590  -23.9810 O.co2 143  HEM143      0.0000
     38  O2D        4.9320    5.6430  -24.0560 O.co2 143  HEM143      0.0000
     39  NA         6.9260    9.5770  -17.2220 N.2   143  HEM143      0.0000
     40  NB         7.1940    8.8940  -14.4200 N.ar  143  HEM143      0.0000
     41  NC         5.6340    6.5610  -14.8600 N.2   143  HEM143      0.0000
     42  ND         5.4220    7.1940  -17.6070 N.ar  143  HEM143      0.0000
     43 FE          5.8990    8.2880  -15.9580 Fe    143  HEM143      0.0000
@<TRIPOS>BOND
     1    38    36   ar
     2    37    36   ar
     3    36    35    1
     4    14    12   ar
     5    13    12   ar
     6    12    11    1
     7    35    34    1
     8    34    31    1
     9    11    10    1
    10    10     6    1
    11    31    30   ar
    12    31    32   ar
    13    33    30    1
    14     1    32    2
    15     1     5    1
    16     6     5    1
    17     6     7    2
    18    30    29   ar
    19    32    42   ar
    20     5    39    2
    21     7     9    1
    22     7     8    1
    23    29    42   ar
    24    29     4    2
    25    42    43    1
    26    39     8    1
    27    39    43    1
    28     8     2    2
    29     4    25    1
    30    43    41    1
    31    43    40    1
    32     2    15    1
    33    25    41    2
    34    25    24    1
    35    41    22    1
    36    40    15   ar
    37    40    18   ar
    38    15    16   ar
    39    27    24    1
    40    27    28    2
    41    24    23    2
    42    22    23    1
    43    22     3    2
    44    18     3    1
    45    18    17   ar
    46    23    26    1
    47    16    19    1
    48    16    17   ar
    49    17    20    1
    50    20    21    2
