@<TRIPOS>MOLECULE
1baf_NPP_L_1.pdb
 28 29 0 0 0
SMALL
GASTEIGER

@<TRIPOS>ATOM
      1  N1        -5.3420   62.7400  178.1720 N.4   250  NPP250      0.3133
      2  O1        -4.9830   63.8990  177.8920 O.co2 250  NPP250     -0.7402
      3  C2        -4.8810   61.5940  177.2670 C.3   250  NPP250      0.0438
      4  CM1       -5.4880   61.7260  175.8690 C.3   250  NPP250      0.0571
      5  CM2       -3.3580   61.6310  177.1220 C.3   250  NPP250      0.0571
      6  C3        -5.2250   60.2450  177.8620 C.3   250  NPP250      0.0731
      7  C4        -5.2030   60.2980  179.3610 C.3   250  NPP250      0.1036
      8  C5        -6.4010   61.0870  179.7640 C.3   250  NPP250      0.0731
      9  C6        -6.2270   62.5390  179.4010 C.3   250  NPP250      0.0438
     10  CM3       -5.5750   63.1440  180.6390 C.3   250  NPP250      0.0571
     11  CM4       -7.5770   63.2010  179.1470 C.3   250  NPP250      0.0571
     12  N2        -5.2520   58.9270  179.9430 N.pl3 250  NPP250     -0.2372
     13  C7        -4.4770   58.5770  181.1640 C.ar  250  NPP250      0.0890
     14  C8        -4.5280   57.2950  181.6610 C.ar  250  NPP250      0.1593
     15  N3        -5.2440   56.1650  181.0140 N.pl3 250  NPP250      0.0590
     16  O2        -5.3020   55.0710  181.5760 O.2   250  NPP250     -0.1261
     17  O3        -5.8130   56.3250  179.9540 O.2   250  NPP250     -0.1261
     18  C9        -3.8520   56.9780  182.7720 C.ar  250  NPP250      0.0508
     19  C10       -3.1130   57.8950  183.4120 C.ar  250  NPP250      0.1593
     20  N4        -2.3610   57.3450  184.5670 N.pl3 250  NPP250      0.0590
     21  O4        -2.5110   56.1530  184.8690 O.2   250  NPP250     -0.1261
     22  O5        -1.5980   58.0540  185.2120 O.2   250  NPP250     -0.1261
     23  C11       -3.0460   59.1940  182.9440 C.ar  250  NPP250      0.0891
     24  C12       -3.7340   59.5300  181.8110 C.ar  250  NPP250      0.0355
     25  N5        -2.2810   60.2490  183.6680 N.pl3 250  NPP250     -0.2343
     26  C13       -2.4000   61.7090  183.3120 C.3   250  NPP250      0.1327
     27  C14       -1.4610   62.5560  184.2070 C.3   250  NPP250      0.1326
     28  N6        -2.1690   63.4130  185.1590 N.3   250  NPP250     -0.1294
@<TRIPOS>UNITY_ATOM_ATTR
1 1
charge 1
2 1
charge -1
@<TRIPOS>BOND
     1     4     3    1
     2     5     3    1
     3     3     6    1
     4     3     1    1
     5     6     7    1
     6     2     1    1
     7     1     9    1
     8    11     9    1
     9     7     8    1
    10     7    12    1
    11     9     8    1
    12     9    10    1
    13    12    13    1
    14    17    15    2
    15    15    16    2
    16    15    14    1
    17    13    14   ar
    18    13    24   ar
    19    14    18   ar
    20    24    23   ar
    21    18    19   ar
    22    23    19   ar
    23    23    25    1
    24    26    25    1
    25    26    27    1
    26    19    20    1
    27    27    28    1
    28    20    21    2
    29    20    22    2
