@<TRIPOS>MOLECULE
1bag_GLC_A_1.pdb
 11 11 0 0 0
SMALL
GASTEIGER

@<TRIPOS>ATOM
      1  C1        -9.2770   44.2120   23.0700 C.3   426  GLC426      0.1777
      2  C2        -8.7990   45.4990   23.7380 C.3   426  GLC426      0.2141
      3  C3        -9.9720   46.4650   23.8610 C.3   426  GLC426      0.2173
      4  C4       -10.6120   46.7070   22.5060 C.3   426  GLC426      0.2142
      5  C5       -10.9750   45.3700   21.8420 C.3   426  GLC426      0.1810
      6  C6       -11.4310   45.5350   20.4080 C.3   426  GLC426      0.2141
      7  O2        -8.2760   45.2220   25.0290 O.3   426  GLC426     -0.2176
      8  O3        -9.5300   47.7030   24.3930 O.3   426  GLC426     -0.2175
      9  O4       -11.7740   47.5050   22.6830 O.3   426  GLC426     -0.2176
     10  O5        -9.8130   44.5170   21.8010 O.3   426  GLC426     -0.3481
     11  O6       -10.3070   45.6440   19.5440 O.3   426  GLC426     -0.2176
@<TRIPOS>BOND
     1    11     6    1
     2     6     5    1
     3    10     5    1
     4    10     1    1
     5     5     4    1
     6     4     9    1
     7     4     3    1
     8     1     2    1
     9     2     3    1
    10     2     7    1
    11     3     8    1
