@<TRIPOS>MOLECULE
1bag_BGC_A_1.pdb
 12 12 0 0 0
SMALL
GASTEIGER

@<TRIPOS>ATOM
      1  C2       -20.6220   42.2760   32.4220 C.3   430  BGC430      0.2434
      2  C3       -19.9160   41.2550   31.5430 C.3   430  BGC430      0.2199
      3  C4       -18.6370   41.8410   30.9750 C.3   430  BGC430      0.2144
      4  C5       -17.7680   42.3950   32.1110 C.3   430  BGC430      0.1836
      5  C6       -16.4950   43.0810   31.6300 C.3   430  BGC430      0.2142
      6  C1       -19.6750   42.8070   33.4830 C.3   430  BGC430      0.3024
      7  O1       -20.3240   43.8060   34.1820 O.3   430  BGC430     -0.1869
      8  O2       -21.7370   41.6760   33.0600 O.3   430  BGC430     -0.2148
      9  O3       -20.7660   40.8760   30.4790 O.3   430  BGC430     -0.2174
     10  O4       -17.9280   40.8080   30.2520 O.3   430  BGC430     -0.2176
     11  O5       -18.5120   43.3710   32.8670 O.3   430  BGC430     -0.3236
     12  O6       -16.7910   44.2080   30.8170 O.3   430  BGC430     -0.2176
@<TRIPOS>BOND
     1    10     3    1
     2     9     2    1
     3    12     5    1
     4     3     2    1
     5     3     4    1
     6     2     1    1
     7     5     4    1
     8     4    11    1
     9     1     8    1
    10     1     6    1
    11    11     6    1
    12     6     7    1
