@<TRIPOS>MOLECULE
1bap_ARA_A_1.pdb
 10 10 0 0 0
SMALL
GASTEIGER

@<TRIPOS>ATOM
      1  C1        14.2480   56.4070   55.0250 C.3   307  ARA307      0.3024
      2  C2        12.8670   56.9600   54.6590 C.3   307  ARA307      0.2434
      3  C3        12.3510   56.2350   53.4220 C.3   307  ARA307      0.2199
      4  C4        13.3440   56.4000   52.2620 C.3   307  ARA307      0.2143
      5  C5        14.7080   55.9120   52.7130 C.3   307  ARA307      0.1804
      6  O1        14.7630   57.1900   56.0990 O.3   307  ARA307     -0.1869
      7  O2        11.9740   56.8460   55.7570 O.3   307  ARA307     -0.2148
      8  O3        11.0640   56.7230   53.0250 O.3   307  ARA307     -0.2174
      9  O4        13.3990   57.7360   51.7710 O.3   307  ARA307     -0.2176
     10  O5        15.1410   56.5870   53.9120 O.3   307  ARA307     -0.3237
@<TRIPOS>BOND
     1     9     4    1
     2     4     5    1
     3     4     3    1
     4     5    10    1
     5     8     3    1
     6     3     2    1
     7    10     1    1
     8     2     1    1
     9     2     7    1
    10     1     6    1
