@<TRIPOS>MOLECULE
1bap_ARB_A_1.pdb
 10 10 0 0 0
SMALL
GASTEIGER

@<TRIPOS>ATOM
      1  C1        14.3640   56.8380   55.1890 C.3   308  ARB308      0.3024
      2  C2        12.9110   57.1690   54.8300 C.3   308  ARB308      0.2434
      3  C3        12.4400   56.2570   53.7020 C.3   308  ARB308      0.2199
      4  C4        13.3660   56.4000   52.4950 C.3   308  ARB308      0.2143
      5  C5        14.7910   56.1060   52.9230 C.3   308  ARB308      0.1804
      6  O1        14.4030   55.5460   55.7260 O.3   308  ARB308     -0.1869
      7  O2        12.0680   57.0900   55.9750 O.3   308  ARB308     -0.2148
      8  O3        11.0980   56.5510   53.3130 O.3   308  ARB308     -0.2174
      9  O4        13.2490   57.6710   51.8650 O.3   308  ARB308     -0.2176
     10  O5        15.1900   56.9680   54.0210 O.3   308  ARB308     -0.3237
@<TRIPOS>BOND
     1     9     4    1
     2     4     5    1
     3     4     3    1
     4     5    10    1
     5     8     3    1
     6     3     2    1
     7    10     1    1
     8     2     1    1
     9     2     7    1
    10     1     6    1
