@<TRIPOS>MOLECULE
1bav_BIP_A_1.pdb
 12 12 0 0 0
SMALL
GASTEIGER

@<TRIPOS>ATOM
      1  C1        21.1600   29.4480   15.1440 C.2   311  BIP311      0.3646
      2  O1        22.0800   30.0600   15.7030 O.co2 311  BIP311     -0.2457
      3  O2        21.2760   28.2550   14.7800 O.co2 311  BIP311     -0.2457
      4  C2        19.8200   30.1910   15.0160 C.3   311  BIP311      0.1077
      5  C3        18.6320   29.2170   15.0040 C.3   311  BIP311      0.0122
      6  C         19.8560   31.1460   13.8110 C.3   311  BIP311      0.0376
      7  C1'       20.2180   30.4870   12.5030 C.ar  311  BIP311     -0.0216
      8  C2'       21.5360   30.4660   12.0670 C.ar  311  BIP311     -0.0043
      9  C3'       21.8850   29.8440   10.8580 C.ar  311  BIP311     -0.0003
     10  C4'       20.9040   29.2400   10.0800 C.ar  311  BIP311     -0.0000
     11  C5'       19.5740   29.2610   10.5060 C.ar  311  BIP311     -0.0003
     12  C6'       19.2390   29.8810   11.7090 C.ar  311  BIP311     -0.0043
@<TRIPOS>BOND
     1    10    11   ar
     2    10     9   ar
     3    11    12   ar
     4     9     8   ar
     5    12     7   ar
     6     8     7   ar
     7     7     6    1
     8     6     4    1
     9     3     1   ar
    10     5     4    1
    11     4     1    1
    12     1     2   ar
