@<TRIPOS>MOLECULE
1bb0_0IV_B_1.pdb
 35 37 0 0 0
SMALL
GASTEIGER

@<TRIPOS>ATOM
      1  C         18.4750  -17.0660   26.1510 C.3     1  0IV1        0.1969
      2  C1        19.7430  -16.2770   26.0710 C.ar    1  0IV1        0.0030
      3  C2        19.6430  -14.9080   26.2530 C.ar    1  0IV1       -0.0025
      4  C3        20.7650  -14.1190   25.9670 C.ar    1  0IV1       -0.0003
      5  C4        21.8960  -14.6380   25.3580 C.ar    1  0IV1       -0.0000
      6  C5        21.9440  -16.0070   25.1040 C.ar    1  0IV1       -0.0003
      7  C6        20.9050  -16.8210   25.5490 C.ar    1  0IV1       -0.0025
      8  S         17.8250  -17.6630   24.6010 S.O2    1  0IV1        0.0620
      9  O1S       16.5590  -18.1930   24.9700 O.2     1  0IV1       -0.1558
     10  O2S       18.7900  -18.3260   23.7910 O.2     1  0IV1       -0.1558
     11  N         17.4920  -16.3810   23.6000 N.3     1  0IV1       -0.0739
     12  CA        18.4820  -15.7300   22.8430 C.3     1  0IV1        0.1733
     13  CB        19.1620  -16.4910   21.7530 C.3     1  0IV1        0.0304
     14  CG        20.1430  -15.6500   20.9750 C.3     1  0IV1        0.0235
     15  CD        19.7760  -14.2200   20.6820 C.3     1  0IV1        0.0940
     16  C7        17.9000  -14.3990   22.3120 C.2     1  0IV1        0.2437
     17  O         16.9460  -13.9800   22.9600 O.2     1  0IV1       -0.2733
     18  N1        18.6560  -13.7130   21.4880 N.am    1  0IV1       -0.2701
     19  CA1       18.1290  -12.3510   21.4180 C.3     1  0IV1        0.1809
     20  C8        16.8320  -12.7310   20.6150 C.2     1  0IV1        0.2617
     21  O1        16.7940  -13.6380   19.7430 O.2     1  0IV1       -0.2715
     22  C21       11.6690  -13.8310   21.5510 C.3     1  0IV1        0.0406
     23  C31       12.2190  -13.8810   23.1160 C.3     1  0IV1        0.1678
     24  N2        15.8250  -11.7010   20.5730 N.am    1  0IV1       -0.2030
     25  CA2       14.6260  -11.6790   19.8100 C.3     1  0IV1        0.1283
     26  C9        14.7720  -11.1810   18.4660 C.3     1  0IV1        0.2036
     27  O2        13.9280  -10.6470   17.5260 O.3     1  0IV1       -0.2185
     28  CB1       13.6810  -10.9870   20.6100 C.3     1  0IV1        0.0276
     29  CZ        11.2960  -11.9580   24.5990 C.cat   1  0IV1        0.4954
     30  NE        12.2760  -12.3890   23.7370 N.pl3   1  0IV1       -0.1885
     31  C11       12.9020  -13.0670   20.6870 C.3     1  0IV1        0.0067
     32  CG1       12.6450  -11.6780   21.3270 C.3     1  0IV1        0.0393
     33  CD1       13.0430  -11.6160   22.8430 C.3     1  0IV1        0.1677
     34  NH1       11.0470  -10.6820   24.7320 N.pl3   1  0IV1        0.1298
     35  NH2       10.5620  -12.7380   25.2420 N.pl3   1  0IV1        0.1298
@<TRIPOS>BOND
     1    27    26    1
     2    26    25    1
     3    21    20    2
     4    25    24    1
     5    25    28    1
     6    24    20   am
     7    28    32    1
     8    20    19    1
     9    15    14    1
    10    15    18    1
    11    31    32    1
    12    31    22    1
    13    14    13    1
    14    32    33    1
    15    19    18    1
    16    18    16   am
    17    22    23    1
    18    13    12    1
    19    16    12    1
    20    16    17    2
    21    12    11    1
    22    33    30    1
    23    23    30    1
    24    11     8    1
    25    30    29    1
    26    10     8    2
    27    29    34    2
    28    29    35    1
    29     8     9    2
    30     8     1    1
    31     6     5   ar
    32     6     7   ar
    33     5     4   ar
    34     7     2   ar
    35     4     3   ar
    36     2     1    1
    37     2     3   ar
