@<TRIPOS>MOLECULE
1bb5_CTO_A_1.pdb
 43 45 0 0 0
SMALL
GASTEIGER

@<TRIPOS>ATOM
      1  C11        6.6800   21.2060   34.1780 C.3   800  CTO800      0.2586
      2  C21        6.0940   19.7710   33.9720 C.3   800  CTO800      0.1842
      3  N21        6.4640   18.8660   35.0740 N.am  800  CTO800     -0.1992
      4  C71        5.5830   18.0050   35.6590 C.2   800  CTO800      0.2420
      5  O71        4.3500   18.1130   35.5600 O.2   800  CTO800     -0.2733
      6  C81        6.1970   16.8860   36.4640 C.3   800  CTO800      0.0964
      7  C31        6.5840   19.2100   32.6250 C.3   800  CTO800      0.2094
      8  O31        6.0330   17.8980   32.4060 O.3   800  CTO800     -0.2183
      9  C41        6.1690   20.1510   31.4950 C.3   800  CTO800      0.2136
     10  O41        6.6190   19.6400   30.2240 O.3   800  CTO800     -0.2176
     11  C51        6.7780   21.5600   31.7470 C.3   800  CTO800      0.1834
     12  O51        6.3240   22.0590   33.0580 O.3   800  CTO800     -0.3262
     13  C61        6.3830   22.5860   30.6880 C.3   800  CTO800      0.2142
     14  O61        5.1800   23.2560   31.0360 O.3   800  CTO800     -0.2176
     15  C12        6.5000   24.0990   38.4340 C.3   800  CTO800      0.2586
     16  C22        5.5590   24.5180   37.3000 C.3   800  CTO800      0.1841
     17  N22        4.4500   25.3240   37.8270 N.am  800  CTO800     -0.1992
     18  C72        4.1360   26.5700   37.4060 C.2   800  CTO800      0.2420
     19  O72        4.7700   27.1820   36.5350 O.2   800  CTO800     -0.2733
     20  C82        2.9350   27.1950   38.0700 C.3   800  CTO800      0.0964
     21  C32        5.0610   23.2750   36.5430 C.3   800  CTO800      0.2062
     22  O32        4.2140   23.6950   35.4550 O.3   800  CTO800     -0.2184
     23  C42        6.2430   22.4550   36.0260 C.3   800  CTO800      0.1795
     24  O42        5.7290   21.2870   35.3200 O.3   800  CTO800     -0.3264
     25  C52        7.1160   22.0300   37.2680 C.3   800  CTO800      0.1803
     26  O52        7.5640   23.2370   37.9480 O.3   800  CTO800     -0.3263
     27  C62        8.3740   21.2490   36.9220 C.3   800  CTO800      0.2141
     28  O62        9.1800   21.9950   36.0250 O.3   800  CTO800     -0.2176
     29  C13        8.3610   26.5910   42.8600 C.3   800  CTO800      0.2917
     30  O13        8.8470   26.5030   44.4570 O.3   800  CTO800     -0.1879
     31  C23        9.2790   25.7060   41.9850 C.3   800  CTO800      0.1870
     32  N23       10.6700   26.1530   42.0850 N.am  800  CTO800     -0.1991
     33  C73       11.6620   25.4240   42.6280 C.2   800  CTO800      0.2420
     34  O73       11.4850   24.3760   43.2530 O.2   800  CTO800     -0.2733
     35  C83       13.0460   25.9760   42.4300 C.3   800  CTO800      0.0964
     36  C33        8.7970   25.7720   40.5320 C.3   800  CTO800      0.2063
     37  O33        9.6180   24.9340   39.7090 O.3   800  CTO800     -0.2184
     38  C43        7.3470   25.3090   40.4640 C.3   800  CTO800      0.1795
     39  O43        6.8750   25.3760   39.1280 O.3   800  CTO800     -0.3264
     40  C53        6.4660   26.2160   41.3500 C.3   800  CTO800      0.1803
     41  O53        6.9760   26.1670   42.7270 O.3   800  CTO800     -0.3243
     42  C63        4.9950   25.8000   41.3820 C.3   800  CTO800      0.2141
     43  O63        4.8570   24.4420   41.7510 O.3   800  CTO800     -0.2176
@<TRIPOS>BOND
     1    10     9    1
     2    13    14    1
     3    13    11    1
     4     9    11    1
     5     9     7    1
     6    11    12    1
     7     8     7    1
     8     7     2    1
     9    12     1    1
    10     2     1    1
    11     2     3    1
    12     1    24    1
    13     3     4   am
    14    24    23    1
    15    22    21    1
    16     5     4    2
    17     4     6    1
    18    28    27    1
    19    23    21    1
    20    23    25    1
    21    19    18    2
    22    21    16    1
    23    27    25    1
    24    25    26    1
    25    16    17    1
    26    16    15    1
    27    18    17   am
    28    18    20    1
    29    26    15    1
    30    15    39    1
    31    39    38    1
    32    37    36    1
    33    38    36    1
    34    38    40    1
    35    36    31    1
    36    40    42    1
    37    40    41    1
    38    42    43    1
    39    31    32    1
    40    31    29    1
    41    32    33   am
    42    35    33    1
    43    33    34    2
    44    41    29    1
    45    29    30    1
