@<TRIPOS>MOLECULE
1bb7_GUM_A_1.pdb
 41 44 0 0 0
SMALL
GASTEIGER

@<TRIPOS>ATOM
      1  O1        47.9560   44.6330   25.6570 O.2   130  GUM130     -0.4209
      2  C2        47.2270   40.7110   25.3880 C.ar  130  GUM130      0.0058
      3  O2        49.8590   45.7530   24.9880 O.2   130  GUM130     -0.2445
      4  C3        45.9310   40.8090   25.9880 C.ar  130  GUM130      0.0372
      5  C4        45.2020   41.9110   26.4850 C.ar  130  GUM130      0.1444
      6  C5        45.6430   43.2830   26.4940 C.ar  130  GUM130      0.0745
      7  C6        46.9940   43.4280   25.9130 C.ar  130  GUM130      0.1514
      8  C7        49.7260   43.4220   24.6860 C.ar  130  GUM130      0.0781
      9  C8        49.1710   42.1260   24.7410 C.ar  130  GUM130     -0.0125
     10  C1        47.8280   42.0750   25.3320 C.ar  130  GUM130      0.0311
     11  C9        49.2830   44.7160   25.0750 C.ar  130  GUM130      0.3456
     12  C10       49.8200   40.8570   24.2480 C.3   130  GUM130      0.0313
     13  O3        43.9330   41.7660   27.0010 O.3   130  GUM130     -0.4509
     14  C11       43.0850   42.6470   27.5600 C.3   130  GUM130      0.3109
     15  C12       41.4760   42.5980   27.6450 C.3   130  GUM130      0.1977
     16  C13       40.7520   43.9970   27.9960 C.3   130  GUM130      0.2075
     17  C14       41.6010   44.5710   29.2090 C.3   130  GUM130      0.1796
     18  C15       43.0520   44.7880   28.7230 C.3   130  GUM130      0.1813
     19  O4        43.6940   43.5450   28.4760 O.3   130  GUM130     -0.3164
     20  N1        40.8880   42.0250   26.4410 N.am  130  GUM130     -0.1979
     21  C16       44.0200   45.5840   29.5990 C.3   130  GUM130      0.2141
     22  O5        43.6610   46.0170   30.9110 O.3   130  GUM130     -0.2176
     23  C17       40.5290   40.7420   26.5210 C.2   130  GUM130      0.2421
     24  O6        40.6460   39.9340   27.3640 O.2   130  GUM130     -0.2733
     25  C18       39.8510   40.7210   25.1380 C.3   130  GUM130      0.0964
     26  O7        40.9040   45.8270   29.2560 O.3   130  GUM130     -0.3264
     27  O8        39.5640   43.5430   28.6520 O.3   130  GUM130     -0.2184
     28  C19       40.5800   46.2010   30.5740 C.3   130  GUM130      0.2586
     29  C20       40.2350   47.6750   30.7140 C.3   130  GUM130      0.1842
     30  C21       39.4420   48.0310   31.9630 C.3   130  GUM130      0.2094
     31  C22       38.1470   47.2400   32.0980 C.3   130  GUM130      0.2136
     32  C23       38.2290   45.7320   31.8260 C.3   130  GUM130      0.1834
     33  O9        39.3750   45.4870   30.9290 O.3   130  GUM130     -0.3262
     34  N2        41.5340   48.3750   30.7850 N.am  130  GUM130     -0.1992
     35  O10       37.4710   47.4370   33.3620 O.3   130  GUM130     -0.2176
     36  C24       36.9720   45.1570   31.2900 C.3   130  GUM130      0.2142
     37  O11       36.0250   45.9420   30.5900 O.3   130  GUM130     -0.2176
     38  C25       41.9280   49.2940   29.8890 C.2   130  GUM130      0.2420
     39  O12       41.4860   49.3070   28.7310 O.2   130  GUM130     -0.2733
     40  C26       42.9780   50.2950   30.3820 C.3   130  GUM130      0.0964
     41  O13       39.0830   49.4250   31.9600 O.3   130  GUM130     -0.2183
@<TRIPOS>BOND
     1    12     9    1
     2     8     9   ar
     3     8    11   ar
     4     9    10   ar
     5     3    11    2
     6    11     1   ar
     7    25    23    1
     8    10     2   ar
     9    10     7   ar
    10     2     4   ar
    11     1     7   ar
    12     7     6   ar
    13     4     5   ar
    14    20    23   am
    15    20    15    1
    16     5     6   ar
    17     5    13    1
    18    23    24    2
    19    13    14    1
    20    14    15    1
    21    14    19    1
    22    15    16    1
    23    16    27    1
    24    16    17    1
    25    19    18    1
    26    18    17    1
    27    18    21    1
    28    39    38    2
    29    17    26    1
    30    26    28    1
    31    21    22    1
    32    38    40    1
    33    38    34   am
    34    28    29    1
    35    28    33    1
    36    37    36    1
    37    29    34    1
    38    29    30    1
    39    33    32    1
    40    36    32    1
    41    32    31    1
    42    41    30    1
    43    30    31    1
    44    31    35    1
