@<TRIPOS>MOLECULE
1bbb_HEM_A_1.pdb
 43 50 0 0 0
SMALL
GASTEIGER

@<TRIPOS>ATOM
      1  CHA       10.1080   10.2480  -17.8170 C.2   142  HEM142      0.0000
      2  CHB       11.1950   11.9520  -13.4440 C.2   142  HEM142      0.0000
      3  CHC        9.3750    7.9680  -11.4220 C.2   142  HEM142      0.0000
      4  CHD        8.6750    6.0750  -15.8140 C.2   142  HEM142      0.0000
      5  C1A       10.6000   11.0460  -16.8040 C.2   142  HEM142      0.0000
      6  C2A       11.3000   12.3030  -16.9930 C.2   142  HEM142      0.0000
      7  C3A       11.5940   12.7860  -15.7940 C.2   142  HEM142      0.0000
      8  C4A       11.1020   11.8310  -14.8150 C.2   142  HEM142      0.0000
      9  CMA       12.3340   14.1050  -15.4240 C.3   142  HEM142      0.0000
     10  CAA       11.5930   12.9230  -18.3790 C.3   142  HEM142      0.0000
     11  CBA       10.8190   14.2160  -18.6470 C.3   142  HEM142      0.0000
     12  CGA       11.1540   14.8960  -19.9500 C.2   142  HEM142      0.0000
     13  O1A       10.3820   14.6640  -20.9090 O.co2 142  HEM142      0.0000
     14  O2A       12.1780   15.6350  -19.9570 O.co2 142  HEM142      0.0000
     15  C1B       10.7420   11.0470  -12.5120 C.ar  142  HEM142      0.0000
     16  C2B       10.7440   11.2380  -11.0770 C.ar  142  HEM142      0.0000
     17  C3B       10.2660   10.1200  -10.5130 C.ar  142  HEM142      0.0000
     18  C4B        9.9240    9.2130  -11.5940 C.ar  142  HEM142      0.0000
     19  CMB       11.2840   12.5430  -10.4030 C.3   142  HEM142      0.0000
     20  CAB       10.0500    9.7870   -9.0280 C.2   142  HEM142      0.0000
     21  CBB       11.0060    9.8960   -8.1090 C.2   142  HEM142      0.0000
     22  C1C        9.0760    7.0880  -12.4440 C.2   142  HEM142      0.0000
     23  C2C        8.6400    5.7250  -12.2580 C.2   142  HEM142      0.0000
     24  C3C        8.4660    5.1840  -13.4690 C.2   142  HEM142      0.0000
     25  C4C        8.7460    6.2180  -14.4450 C.2   142  HEM142      0.0000
     26  CMC        8.4780    5.0830  -10.8560 C.3   142  HEM142      0.0000
     27  CAC        8.0180    3.7640  -13.8540 C.2   142  HEM142      0.0000
     28  CBC        8.5540    2.7070  -13.2420 C.2   142  HEM142      0.0000
     29  C1D        8.9640    7.0580  -16.7280 C.ar  142  HEM142      0.0000
     30  C2D        8.8800    6.9160  -18.1610 C.ar  142  HEM142      0.0000
     31  C3D        9.2520    8.0630  -18.7070 C.ar  142  HEM142      0.0000
     32  C4D        9.6340    8.9530  -17.6430 C.ar  142  HEM142      0.0000
     33  CMD        8.4110    5.6170  -18.8650 C.3   142  HEM142      0.0000
     34  CAD        9.3500    8.4610  -20.2080 C.3   142  HEM142      0.0000
     35  CBD       10.5490    7.8240  -20.8870 C.3   142  HEM142      0.0000
     36  CGD       10.6430    8.0720  -22.3720 C.2   142  HEM142      0.0000
     37  O1D        9.7570    7.5860  -23.0890 O.co2 142  HEM142      0.0000
     38  O2D       11.6300    8.7510  -22.7080 O.co2 142  HEM142      0.0000
     39  NA        10.5170   10.7570  -15.4710 N.2   142  HEM142      0.0000
     40  NB        10.1910    9.8000  -12.7990 N.ar  142  HEM142      0.0000
     41  NC         9.1230    7.3790  -13.7850 N.2   142  HEM142      0.0000
     42  ND         9.4340    8.3260  -16.4320 N.ar  142  HEM142      0.0000
     43 FE          9.8140    9.0700  -14.6250 Fe    142  HEM142      0.0000
@<TRIPOS>BOND
     1    37    36   ar
     2    38    36   ar
     3    36    35    1
     4    13    12   ar
     5    35    34    1
     6    34    31    1
     7    14    12   ar
     8    12    11    1
     9    33    30    1
    10    31    30   ar
    11    31    32   ar
    12    11    10    1
    13    10     6    1
    14    30    29   ar
    15     1    32    2
    16     1     5    1
    17    32    42   ar
    18     6     5    1
    19     6     7    2
    20     5    39    2
    21    29    42   ar
    22    29     4    2
    23    42    43    1
    24     4    25    1
    25     7     9    1
    26     7     8    1
    27    39     8    1
    28    39    43    1
    29     8     2    2
    30    43    41    1
    31    43    40    1
    32    25    41    2
    33    25    24    1
    34    27    24    1
    35    27    28    2
    36    41    22    1
    37    24    23    2
    38     2    15    1
    39    40    15   ar
    40    40    18   ar
    41    15    16   ar
    42    22    23    1
    43    22     3    2
    44    23    26    1
    45    18     3    1
    46    18    17   ar
    47    16    17   ar
    48    16    19    1
    49    17    20    1
    50    20    21    2
