@<TRIPOS>MOLECULE
1bbh_HEM_A_1.pdb
 43 50 0 0 0
SMALL
GASTEIGER

@<TRIPOS>ATOM
      1 FE         24.3940   44.9620   56.8930 Fe    132  HEM132      0.0000
      2  CHA       25.4340   44.3920   53.7390 C.2   132  HEM132      0.0000
      3  CHB       22.9410   41.9600   56.9810 C.2   132  HEM132      0.0000
      4  CHC       24.0930   45.1770   60.3020 C.2   132  HEM132      0.0000
      5  CHD       26.1090   47.9010   56.8960 C.2   132  HEM132      0.0000
      6  NA        24.2140   43.4390   55.5440 N.2   132  HEM132      0.0000
      7  C1A       24.6780   43.3800   54.3070 C.2   132  HEM132      0.0000
      8  C2A       24.2890   42.1820   53.7040 C.2   132  HEM132      0.0000
      9  C3A       23.5700   41.4900   54.6730 C.2   132  HEM132      0.0000
     10  C4A       23.5550   42.2980   55.7800 C.2   132  HEM132      0.0000
     11  CMA       22.8790   40.1280   54.5410 C.3   132  HEM132      0.0000
     12  CAA       24.5610   41.7110   52.2920 C.3   132  HEM132      0.0000
     13  CBA       25.9190   41.0280   52.1850 C.3   132  HEM132      0.0000
     14  CGA       26.1860   40.4650   50.7870 C.2   132  HEM132      0.0000
     15  O1A       25.9310   39.2810   50.6020 O.co2 132  HEM132      0.0000
     16  O2A       26.6470   41.1610   49.8870 O.co2 132  HEM132      0.0000
     17  NB        23.6890   43.7350   58.4000 N.ar  132  HEM132      0.0000
     18  C1B       22.9970   42.6110   58.2040 C.ar  132  HEM132      0.0000
     19  C2B       22.3490   42.1750   59.3610 C.ar  132  HEM132      0.0000
     20  C3B       22.6960   43.1110   60.3520 C.ar  132  HEM132      0.0000
     21  C4B       23.5210   44.0400   59.6990 C.ar  132  HEM132      0.0000
     22  CMB       21.4200   40.9660   59.4460 C.3   132  HEM132      0.0000
     23  CAB       22.4230   43.1350   61.7380 C.3   132  HEM132      0.0000
     24  CBB       22.4340   41.9250   62.6020 C.3   132  HEM132      0.0000
     25  NC        25.0450   46.2800   58.3500 N.2   132  HEM132      0.0000
     26  C1C       24.8230   46.2110   59.6640 C.2   132  HEM132      0.0000
     27  C2C       25.3560   47.3170   60.3240 C.2   132  HEM132      0.0000
     28  C3C       25.8900   48.1740   59.3490 C.2   132  HEM132      0.0000
     29  C4C       25.6810   47.4790   58.1520 C.2   132  HEM132      0.0000
     30  CMC       25.2050   47.4950   61.8200 C.3   132  HEM132      0.0000
     31  CAC       26.5050   49.4720   59.5450 C.3   132  HEM132      0.0000
     32  CBC       26.9220   50.0740   60.8720 C.3   132  HEM132      0.0000
     33  ND        25.5710   45.9730   55.5410 N.ar  132  HEM132      0.0000
     34  C1D       26.1090   47.2050   55.6950 C.ar  132  HEM132      0.0000
     35  C2D       26.7070   47.6420   54.5270 C.ar  132  HEM132      0.0000
     36  C3D       26.5050   46.6230   53.6270 C.ar  132  HEM132      0.0000
     37  C4D       25.8160   45.6180   54.2990 C.ar  132  HEM132      0.0000
     38  CMD       27.4890   48.9430   54.2310 C.3   132  HEM132      0.0000
     39  CAD       27.0560   46.5560   52.2270 C.3   132  HEM132      0.0000
     40  CBD       28.4680   45.9410   52.2900 C.3   132  HEM132      0.0000
     41  CGD       29.1590   45.8410   50.9370 C.2   132  HEM132      0.0000
     42  O1D       28.5600   45.5810   49.8980 O.co2 132  HEM132      0.0000
     43  O2D       30.3550   46.0300   50.9160 O.co2 132  HEM132      0.0000
@<TRIPOS>BOND
     1    16    14   ar
     2    42    41   ar
     3    15    14   ar
     4    14    13    1
     5    43    41   ar
     6    41    40    1
     7    13    12    1
     8    39    40    1
     9    39    36    1
    10    12     8    1
    11    36    37   ar
    12    36    35   ar
    13     8     7    1
    14     8     9    2
    15     2    37    2
    16     2     7    1
    17    38    35    1
    18    37    33   ar
    19     7     6    2
    20    35    34   ar
    21    11     9    1
    22     9    10    1
    23    33    34   ar
    24    33     1    1
    25     6    10    1
    26     6     1    1
    27    34     5    2
    28    10     3    2
    29     1    25    1
    30     1    17    1
    31     5    29    1
    32     3    18    1
    33    29    25    2
    34    29    28    1
    35    18    17   ar
    36    18    19   ar
    37    25    26    1
    38    17    21   ar
    39    28    31    1
    40    28    27    2
    41    19    22    1
    42    19    20   ar
    43    31    32    1
    44    26     4    2
    45    26    27    1
    46    21     4    1
    47    21    20   ar
    48    27    30    1
    49    20    23    1
    50    23    24    1
