@<TRIPOS>MOLECULE
1bbp_BLV_A_1.pdb
 43 46 0 0 0
SMALL
GASTEIGER

@<TRIPOS>ATOM
      1  NA        11.5360   21.4250   38.2990 N.2   500  BLV500     -0.3375
      2  C1A       10.9170   20.3000   38.6360 C.1   500  BLV500      0.2000
      3  C2A       11.6000   19.1490   38.0190 C.2   500  BLV500      0.0712
      4  C3A       12.6560   19.6920   37.2970 C.2   500  BLV500      0.0128
      5  C4A       12.5920   21.0920   37.4660 C.2   500  BLV500      0.1254
      6  CMA       13.6250   18.9540   36.4650 C.3   500  BLV500      0.0339
      7  OA         9.8890   20.2130   39.2990 O.2   500  BLV500     -0.2096
      8  CAA       11.2760   17.7250   38.2250 C.3   500  BLV500      0.0508
      9  CBA       12.0040   17.2410   39.4920 C.3   500  BLV500      0.1195
     10  CGA       11.6640   15.7730   39.6990 C.2   500  BLV500      0.3652
     11  O1A       10.4900   15.3940   39.4520 O.co2 500  BLV500     -0.2456
     12  O2A       12.5590   14.9970   40.1160 O.co2 500  BLV500     -0.2456
     13  CHB       13.5360   21.9610   36.9110 C.3   500  BLV500      0.1181
     14  NB        12.5960   24.2820   37.1120 N.2   500  BLV500     -0.4104
     15  C1B       13.4230   23.3020   36.5430 C.2   500  BLV500      0.1114
     16  C2B       14.2670   23.8820   35.5750 C.2   500  BLV500      0.0021
     17  C3B       13.8980   25.2420   35.4920 C.2   500  BLV500      0.0018
     18  C4B       12.9030   25.4730   36.4620 C.2   500  BLV500      0.1114
     19  CMB       15.3490   23.1820   34.8390 C.3   500  BLV500      0.0331
     20  CAB       14.4920   26.3190   34.6680 C.3   500  BLV500      0.0284
     21  CBB       14.7120   25.9820   33.1920 C.3   500  BLV500      0.0051
     22  CHC       12.4050   26.7620   36.6830 C.3   500  BLV500      0.1170
     23  NC        10.6810   26.6020   38.4510 N.2   500  BLV500     -0.4104
     24  C1C       11.3340   27.2410   37.4410 C.2   500  BLV500      0.1114
     25  C2C       10.7800   28.5120   37.2650 C.2   500  BLV500      0.0021
     26  C3C        9.8030   28.7170   38.2820 C.2   500  BLV500      0.0018
     27  C4C        9.7500   27.4850   38.9910 C.2   500  BLV500      0.1114
     28  CMC       11.1710   29.4490   36.1970 C.3   500  BLV500      0.0331
     29  CAC        9.0600   29.9920   38.4760 C.3   500  BLV500      0.0284
     30  CBC        8.1120   30.1260   39.6750 C.3   500  BLV500      0.0051
     31  CHD        9.0300   27.1870   40.1440 C.3   500  BLV500      0.1181
     32  ND        10.6960   25.6820   41.2260 N.2   500  BLV500     -0.3375
     33  C1D        9.5120   26.4220   41.2100 C.2   500  BLV500      0.1254
     34  C2D        8.8380   26.2680   42.4250 C.2   500  BLV500      0.0128
     35  C3D        9.5900   25.3280   43.1660 C.2   500  BLV500      0.0712
     36  C4D       10.8030   25.0540   42.3730 C.1   500  BLV500      0.2000
     37  CMD        7.5380   26.8840   42.7650 C.3   500  BLV500      0.0339
     38  OD        11.7150   24.2920   42.6930 O.2   500  BLV500     -0.2096
     39  CAD        9.1820   24.5690   44.3560 C.3   500  BLV500      0.0508
     40  CBD        9.4510   25.3210   45.6450 C.3   500  BLV500      0.1195
     41  CGD        9.0430   24.3030   46.6920 C.2   500  BLV500      0.3652
     42  O1D        7.8210   24.1870   46.9680 O.co2 500  BLV500     -0.2456
     43  O2D        9.9490   23.5970   47.2010 O.co2 500  BLV500     -0.2456
@<TRIPOS>BOND
     1    21    20    1
     2    20    17    1
     3    19    16    1
     4    17    16    2
     5    17    18    1
     6    16    15    1
     7    28    25    1
     8    18    22    1
     9    18    14    2
    10     6     4    1
    11    15    13    1
    12    15    14    2
    13    22    24    1
    14    13     5    1
    15    25    24    1
    16    25    26    2
    17     4     5    1
    18     4     3    2
    19    24    23    2
    20     5     1    2
    21     3     8    1
    22     3     2    1
    23     8     9    1
    24    26    29    1
    25    26    27    1
    26     1     2    2
    27    23    27    2
    28    29    30    1
    29     2     7    2
    30    27    31    1
    31    11    10   ar
    32     9    10    1
    33    10    12   ar
    34    31    33    1
    35    33    32    2
    36    33    34    1
    37    32    36    2
    38    36    38    2
    39    36    35    1
    40    34    37    1
    41    34    35    2
    42    35    39    1
    43    39    40    1
    44    40    41    1
    45    41    42   ar
    46    41    43   ar
