@<TRIPOS>MOLECULE
1bbu_LYS_A_1.pdb
 10 9 0 0 0
SMALL
GASTEIGER

@<TRIPOS>ATOM
      1  N        -19.0050  133.7060   39.8580 N.3   505  LYS505     -0.1208
      2  CA       -19.1540  134.4810   41.0870 C.3   505  LYS505      0.1943
      3  C        -18.8930  133.6560   42.3620 C.2   505  LYS505      0.3819
      4  O        -18.6910  132.4280   42.2530 O.co2 505  LYS505     -0.2441
      5  CB       -20.5460  135.1220   41.1390 C.3   505  LYS505      0.0307
      6  CG       -20.8160  136.1870   40.0710 C.3   505  LYS505      0.0036
      7  CD       -19.8420  137.3730   40.1670 C.3   505  LYS505      0.0206
      8  CE       -20.2200  138.4940   39.2000 C.3   505  LYS505      0.1093
      9  NZ       -19.8330  138.2070   37.8080 N.3   505  LYS505     -0.1314
     10  OXT      -18.8670  134.2540   43.4660 O.co2 505  LYS505     -0.2441
@<TRIPOS>BOND
     1     9     8    1
     2     8     7    1
     3     1     2    1
     4     6     7    1
     5     6     5    1
     6     2     5    1
     7     2     3    1
     8     4     3   ar
     9     3    10   ar
