@<TRIPOS>MOLECULE
1bc5_SAH_A_1.pdb
 26 28 0 0 0
SMALL
GASTEIGER

@<TRIPOS>ATOM
      1  N         48.9140   42.0700   22.6360 N.3   287  SAH287     -0.1208
      2  CA        49.2220   41.6260   21.2870 C.3   287  SAH287      0.1952
      3  CB        49.3240   40.0850   21.2210 C.3   287  SAH287      0.0422
      4  CG        48.0040   39.3480   21.2900 C.3   287  SAH287      0.0597
      5  SD        48.1630   37.5730   21.2920 S.3   287  SAH287     -0.1375
      6  C         48.1420   42.1310   20.3220 C.2   287  SAH287      0.3819
      7  O         47.3330   42.9960   20.7420 O.co2 287  SAH287     -0.2441
      8  OXT       48.3380   41.9400   19.1060 O.co2 287  SAH287     -0.2441
      9  C5'       47.9800   37.2040   23.0740 C.3   287  SAH287      0.0899
     10  C4'       49.1620   36.6570   23.8680 C.3   287  SAH287      0.1630
     11  O4'       48.7960   36.5120   25.2560 O.3   287  SAH287     -0.3153
     12  C3'       49.6630   35.2870   23.4240 C.3   287  SAH287      0.2168
     13  O3'       50.9090   35.4620   22.7390 O.3   287  SAH287     -0.2175
     14  C2'       49.8540   34.4600   24.7080 C.3   287  SAH287      0.2569
     15  O2'       51.0980   33.8320   24.8600 O.3   287  SAH287     -0.2130
     16  C1'       49.5800   35.4890   25.8110 C.3   287  SAH287      0.3185
     17  N9        49.0050   35.0230   27.0680 N.pl3 287  SAH287     -0.1439
     18  C8        47.9820   34.1340   27.3070 C.3   287  SAH287      0.3377
     19  N7        47.7930   33.8830   28.5780 N.2   287  SAH287     -0.2095
     20  C5        48.7400   34.6710   29.2210 C.2   287  SAH287      0.2526
     21  C6        49.0700   34.8480   30.5760 C.2   287  SAH287      0.4393
     22  N6        48.4810   34.1870   31.5730 N.pl3 287  SAH287      0.2180
     23  N1        50.0470   35.7280   30.8750 N.2   287  SAH287      0.0021
     24  C2        50.6530   36.3820   29.8760 C.3   287  SAH287      0.5254
     25  N3        50.4450   36.2900   28.5640 N.2   287  SAH287     -0.0055
     26  C4        49.4690   35.4040   28.3000 C.2   287  SAH287      0.3518
@<TRIPOS>BOND
     1     8     6   ar
     2     6     7   ar
     3     6     2    1
     4     3     2    1
     5     3     4    1
     6     2     1    1
     7     4     5    1
     8     5     9    1
     9    13    12    1
    10     9    10    1
    11    12    10    1
    12    12    14    1
    13    10    11    1
    14    14    15    1
    15    14    16    1
    16    11    16    1
    17    16    17    1
    18    17    18    1
    19    17    26    1
    20    18    19    1
    21    26    25    2
    22    26    20    1
    23    25    24    1
    24    19    20    2
    25    20    21    1
    26    24    23    1
    27    21    23    2
    28    21    22    1
