@<TRIPOS>MOLECULE
1bcc_U10_C_1.pdb
 29 29 0 0 0
SMALL
GASTEIGER

@<TRIPOS>ATOM
      1  C1        29.6850  111.4750   73.6130 C.2   383  U10383      0.0198
      2  C2        29.0850  110.1810   73.7960 C.2   383  U10383      0.2282
      3  C3        28.2060  109.6270   72.8450 C.2   383  U10383      0.2140
      4  C4        27.8860  110.3610   71.6780 C.2   383  U10383      0.2140
      5  C5        28.4560  111.6600   71.4540 C.2   383  U10383      0.2285
      6  C6        29.3750  112.2810   72.4060 C.2   383  U10383      0.0235
      7  C1M       30.6300  111.9570   74.7050 C.3   383  U10383      0.0343
      8  C3M       28.4250  107.1640   72.8620 C.3   383  U10383      0.2528
      9  C4M       27.4700  108.8730   69.8040 C.3   383  U10383      0.2528
     10  C7        29.9900  113.7250   72.0960 C.3   383  U10383      0.0548
     11  C8        30.2000  114.6300   73.2360 C.2   383  U10383     -0.0298
     12  C9        30.7340  115.9060   73.2810 C.2   383  U10383     -0.0475
     13  C10       30.8020  116.4920   74.6790 C.3   383  U10383      0.0260
     14  C11       31.2200  116.7400   72.0830 C.3   383  U10383      0.0264
     15  C12       31.0350  118.2730   72.2770 C.3   383  U10383      0.0297
     16  C13       31.9800  119.0340   71.4740 C.2   383  U10383     -0.0342
     17  C14       33.0600  119.7730   71.9680 C.2   383  U10383     -0.0478
     18  C15       33.9150  120.4940   70.9310 C.3   383  U10383      0.0260
     19  C16       33.4130  119.8860   73.4750 C.3   383  U10383      0.0263
     20  C17       34.5560  118.9820   73.9820 C.3   383  U10383      0.0297
     21  C18       35.6220  119.8250   74.5310 C.2   383  U10383     -0.0343
     22  C19       36.8380  119.4180   75.1160 C.2   383  U10383     -0.0482
     23  C20       37.7860  120.5020   75.6160 C.3   383  U10383      0.0260
     24  C21       37.2600  117.9660   75.2810 C.3   383  U10383      0.0217
     25  C22       38.4250  117.5440   74.3990 C.3   383  U10383      0.0047
     26  O2        29.3170  109.4880   74.7820 O.2   383  U10383     -0.2836
     27  O3        27.6480  108.3570   73.0620 O.2   383  U10383     -0.4652
     28  O4        27.0120  109.8090   70.7350 O.2   383  U10383     -0.4652
     29  O5        28.1220  112.2340   70.4040 O.2   383  U10383     -0.2835
@<TRIPOS>BOND
     1     9    28    1
     2    29     5    2
     3    28     4    1
     4    18    17    1
     5     5     4    1
     6     5     6    1
     7    16    17    2
     8    16    15    1
     9     4     3    2
    10    17    19    1
    11    14    15    1
    12    14    12    1
    13    10     6    1
    14    10    11    1
    15     6     1    2
    16     3    27    1
    17     3     2    1
    18     8    27    1
    19    11    12    2
    20    12    13    1
    21    19    20    1
    22     1     2    1
    23     1     7    1
    24     2    26    2
    25    20    21    1
    26    25    24    1
    27    21    22    2
    28    22    24    1
    29    22    23    1
