@<TRIPOS>MOLECULE
1bcc_III_I_2.pdb
 40 39 0 0 0
SMALL
GASTEIGER

@<TRIPOS>ATOM
      1  N         52.1780   79.9700   75.3880 N.3   202  UNK202     -0.1231
      2  CA        51.8890   79.0850   74.2240 C.3   202  UNK202      0.1694
      3  C         52.2960   79.6470   72.8410 C.2   202  UNK202      0.2592
      4  O         51.5060   79.5690   71.8820 O.2   202  UNK202     -0.2718
      5  CB        50.3960   78.7110   74.2290 C.3   202  UNK202      0.0304
      6  N         53.5120   80.2010   72.7330 N.am  203  UNK203     -0.1966
      7  CA        53.9990   80.7230   71.4470 C.3   203  UNK203      0.1728
      8  C         54.2780   79.5560   70.4790 C.2   203  UNK203      0.2616
      9  O         55.2800   78.8510   70.6220 O.2   203  UNK203     -0.2715
     10  CB        55.2620   81.5360   71.6450 C.3   203  UNK203      0.0334
     11  N         53.3830   79.3640   69.5060 N.am  204  UNK204     -0.1963
     12  CA        53.4700   78.3040   68.4990 C.3   204  UNK204      0.1728
     13  C         54.8830   77.9840   68.0090 C.2   204  UNK204      0.2617
     14  O         55.2130   76.8130   67.8000 O.2   204  UNK204     -0.2715
     15  CB        52.5890   78.6660   67.3080 C.3   204  UNK204      0.0334
     16  N         55.7040   79.0210   67.8200 N.am  205  UNK205     -0.1940
     17  CA        57.0660   78.8320   67.3400 C.3   205  UNK205      0.2014
     18  C         57.2290   79.4340   65.9520 C.2   205  UNK205      0.2639
     19  O         57.5040   78.7250   64.9750 O.2   205  UNK205     -0.2714
     20  N         57.0570   80.7530   65.8760 N.am  206  UNK206     -0.1963
     21  CA        57.1520   81.5120   64.6210 C.3   206  UNK206      0.1728
     22  C         58.5520   81.6270   64.0140 C.2   206  UNK206      0.2617
     23  O         58.8210   82.5420   63.2210 O.2   206  UNK206     -0.2715
     24  CB        56.5740   82.9130   64.8190 C.3   206  UNK206      0.0334
     25  N         59.4300   80.6970   64.3810 N.am  207  UNK207     -0.1940
     26  CA        60.7810   80.7160   63.8580 C.3   207  UNK207      0.2014
     27  C         60.8520   80.3880   62.3760 C.2   207  UNK207      0.2639
     28  O         60.9250   81.2860   61.5200 O.2   207  UNK207     -0.2714
     29  N         60.8160   79.0940   62.0700 N.am  208  UNK208     -0.1939
     30  CA        60.9030   78.6740   60.6870 C.3   208  UNK208      0.2014
     31  C         62.3670   78.5630   60.2890 C.2   208  UNK208      0.2639
     32  O         62.7120   77.7910   59.3750 O.2   208  UNK208     -0.2714
     33  N         63.2220   79.3400   60.9680 N.am  209  UNK209     -0.1939
     34  CA        64.6530   79.3140   60.7010 C.3   209  UNK209      0.2014
     35  C         65.1810   80.3250   59.6990 C.2   209  UNK209      0.2639
     36  O         65.0500   80.1550   58.4770 O.2   209  UNK209     -0.2714
     37  N         65.8040   81.3770   60.2230 N.am  210  UNK210     -0.1954
     38  CA        66.3580   82.4140   59.3700 C.3   210  UNK210      0.1869
     39  C         67.8370   82.2200   59.0780 C.2   210  UNK210      0.2309
     40  O         68.5280   83.2200   58.7780 O.2   210  UNK210     -0.2863
@<TRIPOS>BOND
     1    36    35    2
     2    40    39    2
     3    39    38    1
     4    38    37    1
     5    32    31    2
     6    35    37   am
     7    35    34    1
     8    31    30    1
     9    31    33   am
    10    30    29    1
    11    34    33    1
    12    28    27    2
    13    29    27   am
    14    27    26    1
    15    23    22    2
    16    26    25    1
    17    22    25   am
    18    22    21    1
    19    21    24    1
    20    21    20    1
    21    19    18    2
    22    20    18   am
    23    18    17    1
    24    15    12    1
    25    17    16    1
    26    14    13    2
    27    16    13   am
    28    13    12    1
    29    12    11    1
    30    11     8   am
    31     8     9    2
    32     8     7    1
    33     7    10    1
    34     7     6    1
    35     4     3    2
    36     6     3   am
    37     3     2    1
    38     2     5    1
    39     2     1    1
