@<TRIPOS>MOLECULE
1bcc_HEM_C_1.pdb
 43 50 0 0 0
SMALL
GASTEIGER

@<TRIPOS>ATOM
      1  CHA       20.8200  137.5710   77.6140 C.2   381  HEM381      0.0000
      2  CHB       19.9480  132.9560   77.3220 C.2   381  HEM381      0.0000
      3  CHC       24.3210  132.2440   78.9340 C.2   381  HEM381      0.0000
      4  CHD       25.0380  136.8350   79.5110 C.2   381  HEM381      0.0000
      5  C1A       20.2640  136.3800   77.3500 C.ar  381  HEM381      0.0000
      6  C2A       18.9380  136.2760   76.8350 C.ar  381  HEM381      0.0000
      7  C3A       18.6290  134.9970   77.0100 C.ar  381  HEM381      0.0000
      8  C4A       19.8470  134.3190   77.2990 C.ar  381  HEM381      0.0000
      9  CMA       17.2650  134.3730   76.8050 C.3   381  HEM381      0.0000
     10  CAA       18.0410  137.3670   76.2340 C.3   381  HEM381      0.0000
     11  CBA       18.3120  137.9340   74.8330 C.3   381  HEM381      0.0000
     12  CGA       17.3980  139.0990   74.4820 C.2   381  HEM381      0.0000
     13  O1A       17.5690  140.2040   75.0410 O.co2 381  HEM381      0.0000
     14  O2A       16.4910  138.9040   73.6560 O.co2 381  HEM381      0.0000
     15  C1B       21.0830  132.3310   77.7220 C.2   381  HEM381      0.0000
     16  C2B       21.2340  130.8740   77.8270 C.2   381  HEM381      0.0000
     17  C3B       22.5780  130.7020   78.1170 C.2   381  HEM381      0.0000
     18  C4B       23.0930  132.0240   78.4420 C.2   381  HEM381      0.0000
     19  CMB       20.1940  129.7590   77.6930 C.3   381  HEM381      0.0000
     20  CAB       23.2680  129.5140   78.0820 C.2   381  HEM381      0.0000
     21  CBB       23.0750  128.6310   79.0840 C.2   381  HEM381      0.0000
     22  C1C       24.8940  133.4570   79.1700 C.ar  381  HEM381      0.0000
     23  C2C       26.1400  133.5930   79.9030 C.ar  381  HEM381      0.0000
     24  C3C       26.4610  134.9190   79.8360 C.ar  381  HEM381      0.0000
     25  C4C       25.2350  135.5280   79.3760 C.ar  381  HEM381      0.0000
     26  CMC       26.8940  132.4920   80.6430 C.3   381  HEM381      0.0000
     27  CAC       27.6900  135.5360   80.1410 C.3   381  HEM381      0.0000
     28  CBC       28.4500  135.2330   81.2670 C.3   381  HEM381      0.0000
     29  C1D       23.9190  137.4410   79.0930 C.2   381  HEM381      0.0000
     30  C2D       23.8010  138.8810   79.0180 C.2   381  HEM381      0.0000
     31  C3D       22.5930  139.0880   78.4550 C.2   381  HEM381      0.0000
     32  C4D       22.0080  137.7860   78.1870 C.2   381  HEM381      0.0000
     33  CMD       24.7820  139.9560   79.4460 C.3   381  HEM381      0.0000
     34  CAD       22.1250  140.5010   78.2720 C.3   381  HEM381      0.0000
     35  CBD       22.3930  141.0630   76.8940 C.3   381  HEM381      0.0000
     36  CGD       21.2790  140.7760   75.9310 C.2   381  HEM381      0.0000
     37  O1D       21.4450  141.0590   74.7360 O.co2 381  HEM381      0.0000
     38  O2D       20.2290  140.2800   76.3620 O.co2 381  HEM381      0.0000
     39  NA        20.8570  135.1890   77.6190 N.ar  381  HEM381      0.0000
     40  NB        22.2170  133.0490   78.1540 N.2   381  HEM381      0.0000
     41  NC        24.2880  134.6500   78.8730 N.ar  381  HEM381      0.0000
     42  ND        22.8350  136.7360   78.5460 N.2   381  HEM381      0.0000
     43 FE         22.5400  134.8330   78.2630 Fe    381  HEM381      0.0000
@<TRIPOS>BOND
     1    14    12   ar
     2    12    11    1
     3    12    13   ar
     4    37    36   ar
     5    11    10    1
     6    36    38   ar
     7    36    35    1
     8    10     6    1
     9     9     7    1
    10     6     7   ar
    11     6     5   ar
    12    35    34    1
    13     7     8   ar
    14     8     2    2
    15     8    39   ar
    16     2    15    1
    17     5     1    2
    18     5    39   ar
    19     1    32    1
    20    39    43    1
    21    19    16    1
    22    15    16    1
    23    15    40    2
    24    16    17    2
    25    20    17    1
    26    20    21    2
    27    17    18    1
    28    40    43    1
    29    40    18    1
    30    32    31    1
    31    32    42    2
    32    43    42    1
    33    43    41    1
    34    34    31    1
    35    18     3    2
    36    31    30    2
    37    42    29    1
    38    41    22   ar
    39    41    25   ar
    40     3    22    1
    41    30    29    1
    42    30    33    1
    43    29     4    2
    44    22    23   ar
    45    25     4    1
    46    25    24   ar
    47    24    23   ar
    48    24    27    1
    49    23    26    1
    50    27    28    1
