@<TRIPOS>MOLECULE
1bcf_HEM_A_1.pdb
 43 50 0 0 0
SMALL
GASTEIGER

@<TRIPOS>ATOM
      1  CHA       73.8900   73.9650   27.8810 C.2   200  HEM200      0.0000
      2  CHB       74.9450   78.5900   28.9790 C.2   200  HEM200      0.0000
      3  CHC       77.4610   77.1160   33.0140 C.2   200  HEM200      0.0000
      4  CHD       76.2380   72.4250   31.8760 C.2   200  HEM200      0.0000
      5  C1A       74.0720   75.3650   27.8340 C.ar  200  HEM200      0.0000
      6  C2A       73.3460   76.2460   26.9710 C.ar  200  HEM200      0.0000
      7  C3A       73.5060   77.5020   27.3170 C.ar  200  HEM200      0.0000
      8  C4A       74.4310   77.4590   28.4080 C.ar  200  HEM200      0.0000
      9  CMA       72.7870   78.7010   26.7290 C.3   200  HEM200      0.0000
     10  CAA       72.4660   75.8130   25.8820 C.3   200  HEM200      0.0000
     11  CBA       71.0150   75.8780   26.3030 C.3   200  HEM200      0.0000
     12  CGA       70.1420   75.0290   25.3950 C.2   200  HEM200      0.0000
     13  O1A       69.1550   75.5680   24.8120 O.co2 200  HEM200      0.0000
     14  O2A       70.4670   73.8150   25.2450 O.co2 200  HEM200      0.0000
     15  C1B       75.8350   78.5840   30.0760 C.2   200  HEM200      0.0000
     16  C2B       76.3880   79.8130   30.6230 C.2   200  HEM200      0.0000
     17  C3B       77.1780   79.3840   31.7080 C.2   200  HEM200      0.0000
     18  C4B       77.0640   77.8950   31.8760 C.2   200  HEM200      0.0000
     19  CMB       75.8100   81.1620   30.1960 C.3   200  HEM200      0.0000
     20  CAB       77.8460   80.2060   32.6170 C.3   200  HEM200      0.0000
     21  CBB       78.0920   81.6130   32.3050 C.3   200  HEM200      0.0000
     22  C1C       77.1500   75.7330   33.1930 C.ar  200  HEM200      0.0000
     23  C2C       77.7120   74.8400   34.2460 C.ar  200  HEM200      0.0000
     24  C3C       77.5110   73.5520   33.7810 C.ar  200  HEM200      0.0000
     25  C4C       76.6680   73.5940   32.5770 C.ar  200  HEM200      0.0000
     26  CMC       78.3710   75.2970   35.5230 C.3   200  HEM200      0.0000
     27  CAC       78.1390   72.3540   34.0270 C.2   200  HEM200      0.0000
     28  CBC       78.6820   72.0580   35.2440 C.2   200  HEM200      0.0000
     29  C1D       75.5250   72.4550   30.6990 C.2   200  HEM200      0.0000
     30  C2D       75.0380   71.2820   30.0010 C.2   200  HEM200      0.0000
     31  C3D       74.3040   71.7130   28.9650 C.2   200  HEM200      0.0000
     32  C4D       74.3410   73.1590   28.9560 C.2   200  HEM200      0.0000
     33  CMD       75.3500   69.8570   30.3820 C.3   200  HEM200      0.0000
     34  CAD       73.6160   70.9010   27.8900 C.3   200  HEM200      0.0000
     35  CBD       74.4910   70.1080   26.9120 C.3   200  HEM200      0.0000
     36  CGD       73.6740   69.4680   25.7790 C.2   200  HEM200      0.0000
     37  O1D       74.1620   69.4720   24.6140 O.co2 200  HEM200      0.0000
     38  O2D       72.5440   68.9490   26.0360 O.co2 200  HEM200      0.0000
     39  NA        74.7470   76.1510   28.7880 N.ar  200  HEM200      0.0000
     40  NB        76.2290   77.4170   30.8250 N.2   200  HEM200      0.0000
     41  NC        76.4790   74.9330   32.1790 N.ar  200  HEM200      0.0000
     42  ND        75.1080   73.6320   30.0670 N.2   200  HEM200      0.0000
     43 FE         75.6200   75.5350   30.4860 Fe    200  HEM200      0.0000
@<TRIPOS>BOND
     1    37    36   ar
     2    13    12   ar
     3    14    12   ar
     4    12    11    1
     5    36    38   ar
     6    36    35    1
     7    10    11    1
     8    10     6    1
     9     9     7    1
    10    35    34    1
    11     6     7   ar
    12     6     5   ar
    13     7     8   ar
    14     5     1    2
    15     5    39   ar
    16     1    32    1
    17    34    31    1
    18     8    39   ar
    19     8     2    2
    20    39    43    1
    21    32    31    1
    22    32    42    2
    23    31    30    2
    24     2    15    1
    25    30    33    1
    26    30    29    1
    27    42    43    1
    28    42    29    1
    29    15    16    1
    30    15    40    2
    31    19    16    1
    32    43    40    1
    33    43    41    1
    34    16    17    2
    35    29     4    2
    36    40    18    1
    37    17    18    1
    38    17    20    1
    39     4    25    1
    40    18     3    2
    41    41    25   ar
    42    41    22   ar
    43    21    20    1
    44    25    24   ar
    45     3    22    1
    46    22    23   ar
    47    24    27    1
    48    24    23   ar
    49    27    28    2
    50    23    26    1
