@<TRIPOS>MOLECULE
1bch_A2G_1_1.pdb
 15 15 0 0 0
SMALL
GASTEIGER

@<TRIPOS>ATOM
      1  C1        47.5460   -3.0900   22.1570 C.3     1  A2G1        0.2917
      2  C2        46.0380   -3.0610   22.4420 C.3     1  A2G1        0.1871
      3  C3        45.7350   -3.8510   23.7200 C.3     1  A2G1        0.2095
      4  C4        46.3350   -5.2580   23.6400 C.3     1  A2G1        0.2136
      5  C5        47.8250   -5.1810   23.2790 C.3     1  A2G1        0.1835
      6  C6        48.4440   -6.5490   23.0690 C.3     1  A2G1        0.2142
      7  C7        45.0000   -1.0590   21.5860 C.2     1  A2G1        0.2421
      8  C8        44.5570    0.3750   21.8290 C.3     1  A2G1        0.0964
      9  O         48.0010   -4.4440   22.0500 O.3     1  A2G1       -0.3242
     10  O1        47.8130   -2.4540   20.9590 O.3     1  A2G1       -0.1879
     11  O3        44.3300   -3.9440   23.9020 O.3     1  A2G1       -0.2183
     12  O4        45.6440   -6.0140   22.6590 O.3     1  A2G1       -0.2176
     13  O6        49.7200   -6.4390   22.4570 O.3     1  A2G1       -0.2176
     14  O7        44.8050   -1.5820   20.4910 O.2     1  A2G1       -0.2733
     15  N2        45.5890   -1.6910   22.5980 N.am    1  A2G1       -0.1991
@<TRIPOS>BOND
     1    14     7    2
     2    10     1    1
     3     7     8    1
     4     7    15   am
     5     9     1    1
     6     9     5    1
     7     1     2    1
     8     2    15    1
     9     2     3    1
    10    13     6    1
    11    12     4    1
    12     6     5    1
    13     5     4    1
    14     4     3    1
    15     3    11    1
