@<TRIPOS>MOLECULE
1bch_NGA_2_1.pdb
 15 15 0 0 0
SMALL
GASTEIGER

@<TRIPOS>ATOM
      1  C1        20.8440   21.2850  -13.4200 C.3     1  NGA1        0.2917
      2  C2        19.8770   21.7630  -12.3200 C.3     1  NGA1        0.1871
      3  C3        18.4410   21.3240  -12.6420 C.3     1  NGA1        0.2095
      4  C4        18.0510   21.7400  -14.0700 C.3     1  NGA1        0.2136
      5  C5        19.1040   21.2510  -15.0660 C.3     1  NGA1        0.1835
      6  C6        18.8190   21.7270  -16.4770 C.3     1  NGA1        0.2142
      7  C7        21.1050   21.9060  -10.2490 C.2     1  NGA1        0.2421
      8  C8        21.5020   21.2740   -8.9200 C.3     1  NGA1        0.0964
      9  N2        20.2850   21.2150  -11.0380 N.am    1  NGA1       -0.1991
     10  O1        22.1060   21.8070  -13.1890 O.3     1  NGA1       -0.1879
     11  O3        17.5410   21.9080  -11.7100 O.3     1  NGA1       -0.2183
     12  O4        17.9390   23.1550  -14.1570 O.3     1  NGA1       -0.2176
     13  O5        20.4100   21.7560  -14.7030 O.3     1  NGA1       -0.3242
     14  O6        18.6190   20.6250  -17.3490 O.3     1  NGA1       -0.2176
     15  O7        21.5360   23.0180  -10.5470 O.2     1  NGA1       -0.2733
@<TRIPOS>BOND
     1    14     6    1
     2     6     5    1
     3     5    13    1
     4     5     4    1
     5    13     1    1
     6    12     4    1
     7     4     3    1
     8     1    10    1
     9     1     2    1
    10     3     2    1
    11     3    11    1
    12     2     9    1
    13     9     7   am
    14    15     7    2
    15     7     8    1
