@<TRIPOS>MOLECULE
1bcj_NGA_1_1.pdb
 15 15 0 0 0
SMALL
GASTEIGER

@<TRIPOS>ATOM
      1  C1        48.0370   -3.1700   21.2800 C.3     1  NGA1        0.2917
      2  C2        46.5930   -3.1570   21.8130 C.3     1  NGA1        0.1871
      3  C3        46.5410   -3.9110   23.1570 C.3     1  NGA1        0.2095
      4  C4        47.1420   -5.3110   23.0070 C.3     1  NGA1        0.2136
      5  C5        48.5440   -5.2160   22.3930 C.3     1  NGA1        0.1835
      6  C6        49.1810   -6.5670   22.1330 C.3     1  NGA1        0.2142
      7  C7        45.4850   -1.1490   21.0440 C.2     1  NGA1        0.2421
      8  C8        45.0800    0.2870   21.3510 C.3     1  NGA1        0.0964
      9  N2        46.1600   -1.7860   21.9970 N.am    1  NGA1       -0.1991
     10  O1        48.0910   -2.5600   20.0400 O.3     1  NGA1       -0.1879
     11  O3        45.2020   -4.0180   23.6140 O.3     1  NGA1       -0.2183
     12  O4        46.3060   -6.1070   22.1810 O.3     1  NGA1       -0.2176
     13  O5        48.4880   -4.5190   21.1290 O.3     1  NGA1       -0.3242
     14  O6        50.5990   -6.4830   22.1910 O.3     1  NGA1       -0.2176
     15  O7        45.1780   -1.6630   19.9620 O.2     1  NGA1       -0.2733
@<TRIPOS>BOND
     1    15     7    2
     2    10     1    1
     3     7     8    1
     4     7     9   am
     5    13     1    1
     6    13     5    1
     7     1     2    1
     8     2     9    1
     9     2     3    1
    10     6    14    1
    11     6     5    1
    12    12     4    1
    13     5     4    1
    14     4     3    1
    15     3    11    1
