@<TRIPOS>MOLECULE
1bcp_ATP_E_1.pdb
 31 33 0 0 0
SMALL
GASTEIGER

@<TRIPOS>ATOM
      1  PG        -8.0860   13.6030   -8.7250 P.3   111  ATP111      0.5373
      2  O1G       -9.5650   13.4250   -8.7880 O.2   111  ATP111     -0.2221
      3  O2G       -7.3340   12.4010   -8.2660 O.3   111  ATP111     -0.1143
      4  O3G       -7.6380   14.8900   -8.1440 O.3   111  ATP111     -0.1143
      5  PB        -8.4130   13.3850  -11.5990 P.3   111  ATP111      0.2277
      6  O1B       -8.6080   11.9100  -11.6300 O.3   111  ATP111     -0.4368
      7  O2B       -7.7320   14.0730  -12.7140 O.2   111  ATP111     -0.5168
      8  O3B       -7.5900   13.7550  -10.2600 O.3   111  ATP111     -0.2258
      9  PA       -10.5370   14.9760  -12.5350 P.3   111  ATP111      0.2189
     10  O1A      -11.9070   15.2630  -12.0850 O.3   111  ATP111     -0.4371
     11  O2A       -9.6410   16.1010  -12.8830 O.2   111  ATP111     -0.5170
     12  O3A       -9.8480   14.0790  -11.4030 O.3   111  ATP111     -0.2700
     13  O5'      -10.6650   13.9920  -13.8030 O.3   111  ATP111     -0.3112
     14  C5'      -11.4160   12.7650  -13.8080 C.3   111  ATP111      0.1813
     15  C4'      -11.2790   11.8250  -15.0730 C.3   111  ATP111      0.1821
     16  O4'      -11.7290   12.5960  -16.2000 O.3   111  ATP111     -0.3135
     17  C3'       -9.9440   11.3120  -15.3990 C.3   111  ATP111      0.2184
     18  O3'      -10.0160   10.5100  -16.5730 O.3   111  ATP111     -0.2174
     19  C2'       -9.4100   12.9330  -15.6100 C.3   111  ATP111      0.2570
     20  O2'       -8.0830   12.9080  -16.1670 O.3   111  ATP111     -0.2130
     21  C1'      -10.4120   12.8700  -16.6130 C.3   111  ATP111      0.3186
     22  N9       -10.4240   14.1580  -17.3180 N.pl3 111  ATP111     -0.1439
     23  C8       -10.8270   15.3490  -16.7730 C.3   111  ATP111      0.3377
     24  N7       -11.0130   16.3080  -17.6290 N.2   111  ATP111     -0.2095
     25  C5       -10.7120   15.7260  -18.8510 C.2   111  ATP111      0.2526
     26  C6       -10.7160   16.2260  -20.1550 C.2   111  ATP111      0.4393
     27  N6       -10.8950   17.5150  -20.4310 N.pl3 111  ATP111      0.2180
     28  N1       -10.3780   15.3880  -21.1260 N.2   111  ATP111      0.0021
     29  C2       -10.0580   14.1390  -20.8300 C.3   111  ATP111      0.5254
     30  N3       -10.0130   13.5370  -19.6550 N.2   111  ATP111     -0.0055
     31  C4       -10.3650   14.4100  -18.6830 C.2   111  ATP111      0.3518
@<TRIPOS>BOND
     1    28    29    1
     2    28    26    2
     3    29    30    1
     4    27    26    1
     5    26    25    1
     6    30    31    2
     7    25    31    1
     8    25    24    2
     9    31    22    1
    10    24    23    1
    11    22    23    1
    12    22    21    1
    13    21    16    1
    14    21    19    1
    15    18    17    1
    16    16    15    1
    17    20    19    1
    18    19    17    1
    19    17    15    1
    20    15    14    1
    21    14    13    1
    22    13     9    1
    23    11     9    2
    24     7     5    2
    25     9    10    1
    26     9    12    1
    27     6     5    1
    28     5    12    1
    29     5     8    1
    30     8     1    1
    31     2     1    2
    32     1     3    1
    33     1     4    1
