@<TRIPOS>MOLECULE
1bcr_III_C_1.pdb
 18 17 0 0 0
SMALL
GASTEIGER

@<TRIPOS>ATOM
      1  N         72.5500   36.4330   71.8620 N.3     3  VAL3       -0.1231
      2  CA        71.4330   35.9140   72.7160 C.3     3  VAL3        0.1692
      3  C         70.5510   34.8130   71.9650 C.2     3  VAL3        0.2588
      4  O         70.4800   34.8430   70.7560 O.2     3  VAL3       -0.2718
      5  CB        70.6450   37.2170   73.0770 C.3     3  VAL3        0.0266
      6  CG1       69.1790   36.9620   73.4280 C.3     3  VAL3        0.0020
      7  CG2       71.2460   37.9730   74.2640 C.3     3  VAL3        0.0020
      8  OH1       67.7170   32.0280   73.7090 O.3     4  OAR4       -0.2185
      9  N1        69.8630   33.8090   72.6160 N.am    4  OAR4       -0.2033
     10  N2        73.5210   31.0750   71.0750 N.pl3   4  OAR4       -0.0865
     11  N3        74.1620   32.1490   69.0960 N.pl3   4  OAR4        0.1354
     12  N4        75.6770   31.7770   70.8030 N.pl3   4  OAR4        0.1354
     13  C1        69.1000   32.7550   71.8490 C.3     4  OAR4        0.1283
     14  C2        69.9310   31.5340   71.6020 C.3     4  OAR4        0.0281
     15  C3        71.3170   31.9910   71.2620 C.3     4  OAR4        0.0488
     16  C4        72.1610   30.9240   70.6350 C.3     4  OAR4        0.2205
     17  C5        74.4400   31.6670   70.3200 C.cat   4  OAR4        0.5346
     18  C6        67.6900   32.2880   72.2740 C.3     4  OAR4        0.2036
@<TRIPOS>BOND
     1    11    17    1
     2    17    12    1
     3    17    10    2
     4    16    10    1
     5    16    15    1
     6     4     3    2
     7    15    14    1
     8    14    13    1
     9    13    18    1
    10    13     9    1
    11     1     2    1
    12     3     9   am
    13     3     2    1
    14    18     8    1
    15     2     5    1
    16     5     6    1
    17     5     7    1
