@<TRIPOS>MOLECULE
1bcr_ARG_A_1.pdb
 12 11 0 0 0
SMALL
GASTEIGER

@<TRIPOS>ATOM
      1  N         66.3100   34.1280   73.8520 N.3   426  ARG426     -0.1208
      2  CA        65.2740   34.8610   73.1530 C.3   426  ARG426      0.1944
      3  C         64.0150   34.0400   72.9550 C.2   426  ARG426      0.3819
      4  O         63.7500   33.2100   73.8550 O.co2 426  ARG426     -0.2441
      5  CB        65.7370   35.5240   71.8560 C.3   426  ARG426      0.0343
      6  CG        64.9710   36.8170   71.5930 C.3   426  ARG426      0.0490
      7  CD        65.8460   37.9860   71.1690 C.3   426  ARG426      0.2205
      8  NE        65.4420   38.5270   69.8710 N.pl3 426  ARG426     -0.0865
      9  CZ        66.0030   39.5670   69.2340 C.cat 426  ARG426      0.5346
     10  NH1       67.0360   40.2550   69.7600 N.pl3 426  ARG426      0.1354
     11  NH2       65.5020   39.9380   68.0480 N.pl3 426  ARG426      0.1354
     12  OXT       63.3390   34.3100   71.9360 O.co2 426  ARG426     -0.2441
@<TRIPOS>BOND
     1    11     9    1
     2     9    10    1
     3     9     8    2
     4     8     7    1
     5     7     6    1
     6     6     5    1
     7     5     2    1
     8    12     3   ar
     9     3     2    1
    10     3     4   ar
    11     2     1    1
