@<TRIPOS>MOLECULE
1bcs_III_C_1.pdb
 44 46 0 0 0
SMALL
GASTEIGER

@<TRIPOS>ATOM
      1  N         73.7180   38.2240   74.3120 N.am    1  PHE1       -0.1770
      2  CA        74.0450   39.6380   74.3400 C.3     1  PHE1        0.2037
      3  C         75.5540   39.8880   74.2850 C.2     1  PHE1        0.3846
      4  O         76.3230   38.8700   74.4310 O.co2   1  PHE1       -0.2437
      5  CB        73.4800   40.3770   75.5530 C.3     1  PHE1        0.0597
      6  CG        72.0020   40.5160   75.6820 C.ar    1  PHE1       -0.0199
      7  CD1       71.3590   41.6490   75.1810 C.ar    1  PHE1       -0.0042
      8  CD2       71.2930   39.6170   76.4690 C.ar    1  PHE1       -0.0042
      9  CE1       69.9910   41.8650   75.3390 C.ar    1  PHE1       -0.0003
     10  CE2       69.9300   39.8320   76.6500 C.ar    1  PHE1       -0.0003
     11  CZ        69.2780   40.9340   76.0790 C.ar    1  PHE1       -0.0000
     12  OXT       75.8480   41.1180   74.1070 O.co2   1  PHE1       -0.2437
     13  NE        75.0790   32.7470   70.6000 N.2     2  CSI2       -0.1948
     14  CD2       74.9610   33.1460   71.8970 C.1     2  CSI2        0.1813
     15  CD1       74.5590   33.4920   69.4160 C.3     2  CSI2        0.1458
     16  NH        75.4560   32.3990   72.9010 N.pl3   2  CSI2       -0.0348
     17  CB        73.6930   34.8590   71.2000 C.2     2  CSI2        0.1301
     18  CG1       73.3910   34.3970   69.7850 C.3     2  CSI2        0.0849
     19  NG2       74.3610   34.2910   72.2040 N.2     2  CSI2       -0.3420
     20  N         73.2730   36.3910   73.0700 N.am    2  CSI2       -0.1726
     21  CA        72.7570   35.8700   71.8250 C.3     2  CSI2        0.2226
     22  C         71.5440   35.1630   72.3100 C.2     2  CSI2        0.2683
     23  O         71.5770   34.3880   73.2870 O.2     2  CSI2       -0.2710
     24  O3        73.8250   38.2770   72.1600 O.2     2  CSI2       -0.2492
     25  C7        73.8600   37.5680   73.1630 C.2     2  CSI2        0.3405
     26  N         70.4790   35.5200   71.6690 N.am    3  LEU3       -0.1960
     27  CA        69.1840   35.0280   72.0500 C.3     3  LEU3        0.1728
     28  C         68.5910   33.9770   71.1270 C.2     3  LEU3        0.2612
     29  O         68.3110   34.2640   69.9640 O.2     3  LEU3       -0.2715
     30  CB        68.2310   36.2270   72.2140 C.3     3  LEU3        0.0311
     31  CG        68.8530   37.3190   73.0900 C.3     3  LEU3        0.0022
     32  CD1       67.9290   38.5100   73.0940 C.3     3  LEU3        0.0001
     33  CD2       68.9900   36.8360   74.5330 C.3     3  LEU3        0.0001
     34  N         68.3520   32.7840   71.6640 N.am    4  PHE4       -0.2027
     35  CA        67.7290   31.7420   70.9010 C.3     4  PHE4        0.1325
     36  C         66.1910   31.7380   71.1670 C.3     4  PHE4        0.2039
     37  O         66.0170   31.6070   72.5530 O.3     4  PHE4       -0.2185
     38  CB        68.4320   30.4340   71.2740 C.3     4  PHE4        0.0507
     39  CG        69.9290   30.5560   71.0200 C.ar    4  PHE4       -0.0204
     40  CD1       70.8620   30.5500   72.0600 C.ar    4  PHE4       -0.0042
     41  CD2       70.4290   30.6900   69.7190 C.ar    4  PHE4       -0.0042
     42  CE1       72.2370   30.6390   71.8220 C.ar    4  PHE4       -0.0003
     43  CE2       71.8010   30.7860   69.4560 C.ar    4  PHE4       -0.0003
     44  CZ        72.7130   30.7650   70.5140 C.ar    4  PHE4       -0.0000
@<TRIPOS>BOND
     1    15    18    1
     2    15    13    1
     3    43    41   ar
     4    43    44   ar
     5    41    39   ar
     6    18    17    1
     7    29    28    2
     8    44    42   ar
     9    13    14    2
    10    35    36    1
    11    35    38    1
    12    35    34    1
    13    39    38    1
    14    39    40   ar
    15    28    34   am
    16    28    27    1
    17    36    37    1
    18    17    21    1
    19    17    19    2
    20    26    27    1
    21    26    22   am
    22    42    40   ar
    23    21    22    1
    24    21    20    1
    25    14    19    2
    26    14    16    1
    27    27    30    1
    28    24    25    2
    29    30    31    1
    30    22    23    2
    31    20    25   am
    32    31    32    1
    33    31    33    1
    34    25     1   am
    35    12     3   ar
    36     3     2    1
    37     3     4   ar
    38     1     2    1
    39     2     5    1
    40     7     9   ar
    41     7     6   ar
    42     9    11   ar
    43     5     6    1
    44     6     8   ar
    45    11    10   ar
    46     8    10   ar
