@<TRIPOS>MOLECULE
1bcs_ARG_A_1.pdb
 12 11 0 0 0
SMALL
GASTEIGER

@<TRIPOS>ATOM
      1  N         64.3720   33.0960   73.0160 N.3   426  ARG426     -0.1208
      2  CA        63.6990   34.2150   72.4340 C.3   426  ARG426      0.1944
      3  C         62.3160   33.9000   72.2890 C.2   426  ARG426      0.3819
      4  O         62.0550   33.1510   73.2610 O.co2 426  ARG426     -0.2441
      5  CB        64.1570   34.9170   71.1830 C.3   426  ARG426      0.0343
      6  CG        63.8350   36.3660   71.5030 C.3   426  ARG426      0.0490
      7  CD        64.6520   37.3540   70.7550 C.3   426  ARG426      0.2205
      8  NE        63.9650   37.5980   69.5340 N.pl3 426  ARG426     -0.0865
      9  CZ        64.2380   38.6200   68.7750 C.cat 426  ARG426      0.5346
     10  NH1       65.2110   39.4990   69.1100 N.pl3 426  ARG426      0.1354
     11  NH2       63.5210   38.7580   67.6540 N.pl3 426  ARG426      0.1354
     12  OXT       61.7720   34.5150   71.3000 O.co2 426  ARG426     -0.2441
@<TRIPOS>BOND
     1    11     9    1
     2     9    10    1
     3     9     8    2
     4     8     7    1
     5     7     6    1
     6     5     6    1
     7     5     2    1
     8    12     3   ar
     9     3     2    1
    10     3     4   ar
    11     2     1    1
