@<TRIPOS>MOLECULE
1bcu_PRL_H_1.pdb
 16 18 0 0 0
SMALL
GASTEIGER

@<TRIPOS>ATOM
      1  C1         8.9820   23.1820   49.5160 C.2   280  PRL280     -0.0137
      2  C2         9.6700   23.6490   48.4750 C.2   280  PRL280      0.0143
      3  C3        10.6650   22.8510   47.7940 C.2   280  PRL280      0.0910
      4  C4        10.9020   21.5730   48.2640 C.2   280  PRL280      0.0462
      5  C5         9.9390   17.8640   51.1430 C.ar  280  PRL280      0.0501
      6  C6         9.2310   17.2530   52.1630 C.ar  280  PRL280      0.0916
      7  C7         8.2220   18.0300   52.8520 C.ar  280  PRL280      0.0182
      8  C8         7.9680   19.2990   52.5280 C.ar  280  PRL280      0.0036
      9  C9         8.4750   21.2720   51.0580 C.2   280  PRL280     -0.0125
     10  N10       10.3850   19.7760   49.7680 N.2   280  PRL280     -0.4055
     11  C11       10.1960   21.0700   49.3360 C.2   280  PRL280      0.1180
     12  C12        8.6900   19.9650   51.4640 C.ar  280  PRL280      0.0261
     13  C13        9.1900   21.8460   50.0200 C.3   280  PRL280      0.0963
     14  C14        9.6910   19.1730   50.7930 C.ar  280  PRL280      0.1320
     15  N15       11.2740   23.3260   46.6840 N.pl3 280  PRL280     -0.1280
     16  N16        9.4530   15.9620   52.5020 N.pl3 280  PRL280     -0.1280
@<TRIPOS>BOND
     1    15     3    1
     2     3     4    2
     3     3     2    1
     4     4    11    1
     5     2     1    2
     6    11    10    2
     7    11    13    1
     8     1    13    1
     9    10    14    2
    10    13     9    1
    11    14     5   ar
    12    14    12   ar
    13     9    12    2
    14     5     6   ar
    15    12     8   ar
    16     6    16    1
    17     6     7   ar
    18     8     7   ar
