@<TRIPOS>MOLECULE
1bcx_XYP_A_2.pdb
 10 10 0 0 0
SMALL
GASTEIGER

@<TRIPOS>ATOM
      1  O4A       34.8980   19.5680   34.1070 O.3   502  XYP502     -0.1869
      2  C1B       34.5040   20.6580   34.8830 C.3   502  XYP502      0.3024
      3  C2B       33.9820   20.1700   36.2520 C.3   502  XYP502      0.2434
      4  C3B       33.9620   21.2610   37.3570 C.3   502  XYP502      0.2199
      5  C4B       35.1260   22.2620   37.2510 C.3   502  XYP502      0.2143
      6  C5B       35.2880   22.6840   35.8050 C.3   502  XYP502      0.1804
      7  O2B       32.6560   19.6750   36.0960 O.3   502  XYP502     -0.2148
      8  O3B       33.9980   20.6310   38.6310 O.3   502  XYP502     -0.2174
      9  O4B       34.8360   23.4320   38.0550 O.3   502  XYP502     -0.2176
     10  O5B       35.6360   21.5180   35.0380 O.3   502  XYP502     -0.3237
@<TRIPOS>BOND
     1     1     2    1
     2     2    10    1
     3     2     3    1
     4    10     6    1
     5     6     5    1
     6     7     3    1
     7     3     4    1
     8     5     4    1
     9     5     9    1
    10     4     8    1
