@<TRIPOS>MOLECULE
1bd0_IN5_A_1.pdb
 22 22 0 0 0
SMALL
GASTEIGER

@<TRIPOS>ATOM
      1  C1        22.0110   10.4550   68.6300 C.2   389  IN5389      0.0961
      2  C2        24.4090   10.6550   69.0910 C.2   389  IN5389      0.0714
      3  C3        24.3510   12.0370   68.8320 C.3   389  IN5389      0.2110
      4  O4        18.2590   13.0270   66.0390 O.3   389  IN5389     -0.1145
      5  O5        19.9910   14.4190   64.6920 O.2   389  IN5389     -0.2224
      6  C7        20.5900   12.3820   67.9800 C.3   389  IN5389      0.1816
      7  C8        23.0230   14.0860   68.1890 C.2   389  IN5389      0.0788
      8  C9        24.1760   16.0850   67.4540 C.3   389  IN5389      0.1438
      9  C10       23.2130   17.1490   68.0300 C.3   389  IN5389      0.0313
     10  N1        23.2450    9.8780   68.9890 N.2   389  IN5389     -0.2499
     11  C4        23.1130   12.6330   68.4690 C.2   389  IN5389      0.0291
     12  C5        21.9350   11.8260   68.3710 C.2   389  IN5389      0.0270
     13  O1        25.4990   12.8120   68.9280 O.3   389  IN5389     -0.2121
     14  C6        25.7350   10.0470   69.4680 C.3   389  IN5389      0.0503
     15  O2        20.7190   12.9560   66.6750 O.3   389  IN5389     -0.2653
     16  N2        24.1090   14.8780   68.2310 N.pl3 389  IN5389     -0.2310
     17  P1        19.5940   13.8840   66.1360 P.3   389  IN5389      0.5329
     18  O3        19.3890   15.1350   67.0950 O.3   389  IN5389     -0.1145
     19  P2        25.7820   16.8880   67.7780 P.3   389  IN5389      0.1367
     20  O6        25.9330   18.3420   67.2930 O.3   389  IN5389     -0.3560
     21  O7        26.7320   15.8420   67.1480 O.2   389  IN5389     -0.4584
     22  O8        26.0950   16.7400   69.3110 O.3   389  IN5389     -0.3560
@<TRIPOS>BOND
     1     5    17    2
     2     4    17    1
     3    17    15    1
     4    17    18    1
     5    15     6    1
     6    21    19    2
     7    20    19    1
     8     8    19    1
     9     8     9    1
    10     8    16    1
    11    19    22    1
    12     6    12    1
    13     7    16    1
    14     7    11    2
    15    12    11    1
    16    12     1    2
    17    11     3    1
    18     1    10    1
    19     3    13    1
    20     3     2    1
    21    10     2    2
    22     2    14    1
