@<TRIPOS>MOLECULE
1bda_2Z0_A_1.pdb
 41 42 0 0 0
SMALL
GASTEIGER

@<TRIPOS>ATOM
      1  C1         8.5890   11.5830   36.8930 C.ar  245  2Z0245      0.0200
      2  C2         8.0840   10.9630   35.8230 C.ar  245  2Z0245      0.1236
      3  C3         6.7490   10.5060   35.8110 C.ar  245  2Z0245      0.0200
      4  C4         5.9390   10.6970   36.9330 C.ar  245  2Z0245      0.0026
      5  C4A        6.4710   11.3510   38.0570 C.ar  245  2Z0245      0.0134
      6  C5         5.7010   11.5730   39.2370 C.ar  245  2Z0245      0.0479
      7  C6         6.2720   12.2140   40.3040 C.ar  245  2Z0245      0.0145
      8  C7         7.5780   12.6430   40.2510 C.ar  245  2Z0245      0.0013
      9  C8         8.3620   12.4440   39.1360 C.ar  245  2Z0245      0.0001
     10  C8A        7.8210   11.7940   38.0270 C.ar  245  2Z0245      0.0025
     11  N          4.2900   11.1690   39.4440 N.pl3 245  2Z0245     -0.3041
     12  CM1        3.2310   11.8670   38.7750 C.3   245  2Z0245      0.1122
     13  CM2        3.9930   10.0370   40.3630 C.3   245  2Z0245      0.1122
     14  S          9.2700   10.8740   34.6210 S.O2  245  2Z0245      0.0772
     15  O1S       10.6410   10.5140   35.2740 O.2   245  2Z0245     -0.1516
     16  O2S        8.8450    9.8550   33.5050 O.2   245  2Z0245     -0.1516
     17  N1         9.5610   12.4890   34.3530 N.3   245  2Z0245     -0.0699
     18  CA         8.6970   12.9480   33.2840 C.3   245  2Z0245      0.1757
     19  C          9.3480   12.5590   31.9770 C.2   245  2Z0245      0.2596
     20  O         10.5700   12.4980   31.8830 O.2   245  2Z0245     -0.2718
     21  CB         8.5140   14.4680   33.3360 C.3   245  2Z0245      0.0405
     22  CG         7.6850   14.9690   34.5000 C.3   245  2Z0245      0.1161
     23  CD         8.5040   15.7560   35.5070 C.2   245  2Z0245      0.3649
     24  OE1        9.0410   15.1390   36.4540 O.co2 245  2Z0245     -0.2457
     25  OE2        8.5990   17.0000   35.3590 O.co2 245  2Z0245     -0.2457
     26  N2         8.5370   12.2190   30.9920 N.am  245  2Z0245     -0.1942
     27  CA1        9.0940   11.8750   29.7050 C.3   245  2Z0245      0.2014
     28  C9         9.6630   13.1340   29.0890 C.2   245  2Z0245      0.2635
     29  O1         9.4690   14.2410   29.6190 O.2   245  2Z0245     -0.2714
     30  O2        10.8740   15.3200   25.3030 O.3   245  2Z0245     -0.2213
     31  N3        10.3620   12.9630   27.9730 N.am  245  2Z0245     -0.2031
     32  CA2       10.9630   14.0820   27.2690 C.3   245  2Z0245      0.1257
     33  CC        10.7920   13.9590   25.7820 C.3   245  2Z0245      0.1718
     34  CB1       12.4340   14.2230   27.6650 C.3   245  2Z0245      0.0280
     35  CG1       12.6670   14.5490   29.1450 C.3   245  2Z0245      0.0488
     36  CD1       14.1370   14.7700   29.3750 C.3   245  2Z0245      0.2205
     37  NE        14.4750   15.0620   30.7580 N.pl3 245  2Z0245     -0.0865
     38  CZ        15.7260   15.1300   31.2130 C.cat 245  2Z0245      0.5346
     39  NH2       15.9430   15.4760   32.4760 N.pl3 245  2Z0245      0.1354
     40  NH1       16.7580   14.9210   30.3940 N.pl3 245  2Z0245      0.1354
     41  CE         9.4500   13.2040   25.4200 C.3   245  2Z0245      0.0373
@<TRIPOS>BOND
     1    30    33    1
     2    41    33    1
     3    33    32    1
     4    32    34    1
     5    32    31    1
     6    34    35    1
     7    31    28   am
     8    28    29    2
     9    28    27    1
    10    35    36    1
    11    36    37    1
    12    27    26    1
    13    40    38    1
    14    37    38    2
    15    26    19   am
    16    38    39    1
    17    20    19    2
    18    19    18    1
    19    18    21    1
    20    18    17    1
    21    21    22    1
    22    16    14    2
    23    17    14    1
    24    22    23    1
    25    14    15    2
    26    14     2    1
    27    25    23   ar
    28    23    24   ar
    29     3     2   ar
    30     3     4   ar
    31     2     1   ar
    32     1    10   ar
    33     4     5   ar
    34    10     5   ar
    35    10     9   ar
    36     5     6   ar
    37    12    11    1
    38     9     8   ar
    39     6    11    1
    40     6     7   ar
    41    11    13    1
    42     8     7   ar
