@<TRIPOS>MOLECULE
1bdb_NAD_A_1.pdb
 44 48 0 0 0
SMALL
GASTEIGER

@<TRIPOS>ATOM
      1  PA        23.0600   48.6050   11.3550 P.3   300  NAD300      0.2189
      2  O1A       23.8540   47.4610   11.8600 O.2   300  NAD300     -0.5170
      3  O2A       21.9150   48.9050   12.2370 O.3   300  NAD300     -0.4371
      4  O5B       22.5090   48.2970    9.9030 O.3   300  NAD300     -0.3112
      5  C5B       23.2930   47.4560    8.9970 C.3   300  NAD300      0.1813
      6  C4B       22.2450   46.6740    8.1770 C.3   300  NAD300      0.1821
      7  O4B       23.0630   45.9980    7.1750 O.3   300  NAD300     -0.3135
      8  C3B       21.5700   45.5860    9.0290 C.3   300  NAD300      0.2184
      9  O3B       20.1780   45.4500    8.7780 O.3   300  NAD300     -0.2174
     10  C2B       22.3610   44.3380    8.6530 C.3   300  NAD300      0.2570
     11  O2B       21.6550   43.1080    8.7860 O.3   300  NAD300     -0.2130
     12  C1B       22.6700   44.6410    7.1620 C.3   300  NAD300      0.3186
     13  N9A       23.8700   43.8920    6.7460 N.pl3 300  NAD300     -0.1439
     14  C8A       25.0650   43.7740    7.3980 C.3   300  NAD300      0.3377
     15  N7A       25.9310   43.0020    6.7380 N.2   300  NAD300     -0.2095
     16  C5A       25.2350   42.5870    5.6320 C.2   300  NAD300      0.2526
     17  C6A       25.5930   41.7580    4.5650 C.2   300  NAD300      0.4393
     18  N6A       26.7960   41.1720    4.4720 N.pl3 300  NAD300      0.2180
     19  N1A       24.6500   41.5670    3.6130 N.2   300  NAD300      0.0021
     20  C2A       23.4230   42.1680    3.7210 C.3   300  NAD300      0.5254
     21  N3A       23.0030   42.9450    4.6660 N.2   300  NAD300     -0.0055
     22  C4A       23.9570   43.1190    5.6110 C.2   300  NAD300      0.3518
     23  O3        24.0460   49.8250   11.0790 O.3   300  NAD300     -0.2703
     24  PN        23.9080   51.3290   10.5660 P.3   300  NAD300      0.2189
     25  O1N       24.3090   52.1980   11.6850 O.3   300  NAD300     -0.4371
     26  O2N       22.5530   51.6700   10.1270 O.2   300  NAD300     -0.5170
     27  O5D       24.9460   51.3450    9.3430 O.3   300  NAD300     -0.3112
     28  C5D       24.3840   51.7550    8.0610 C.3   300  NAD300      0.1813
     29  C4D       25.4610   52.4670    7.2740 C.3   300  NAD300      0.1799
     30  O4D       25.7390   53.6780    8.0330 O.3   300  NAD300     -0.3327
     31  C3D       26.7820   51.6920    7.1750 C.3   300  NAD300      0.2158
     32  O3D       27.4180   51.9080    5.9250 O.3   300  NAD300     -0.2175
     33  C2D       27.6160   52.2950    8.3120 C.3   300  NAD300      0.2309
     34  O2D       29.0040   52.1590    7.9810 O.3   300  NAD300     -0.2158
     35  C1D       27.1400   53.7420    8.2510 C.3   300  NAD300      0.2263
     36  N1N       27.3880   54.5730    9.4180 N.pl3 300  NAD300     -0.2787
     37  C2N       26.9920   54.1710   10.6510 C.3   300  NAD300      0.1244
     38  C3N       27.2810   54.9580   11.7340 C.2   300  NAD300      0.0544
     39  C7N       26.9240   54.6850   13.2330 C.2   300  NAD300      0.2818
     40  O7N       27.4830   55.3850   14.0840 O.2   300  NAD300     -0.2670
     41  N7N       26.0190   53.7310   13.4840 N.am  300  NAD300     -0.0839
     42  C4N       27.9650   56.1980   11.6360 C.2   300  NAD300      0.0033
     43  C5N       28.2520   56.5580   10.3240 C.2   300  NAD300      0.0157
     44  C6N       28.0030   55.8300    9.1890 C.2   300  NAD300      0.0633
@<TRIPOS>BOND
     1    19    20    1
     2    19    17    2
     3    20    21    1
     4    18    17    1
     5    17    16    1
     6    21    22    2
     7    22    16    1
     8    22    13    1
     9    16    15    2
    10    32    31    1
    11    15    14    1
    12    13    12    1
    13    13    14    1
    14    12     7    1
    15    12    10    1
    16     7     6    1
    17    31    29    1
    18    31    33    1
    19    29    30    1
    20    29    28    1
    21    34    33    1
    22    30    35    1
    23    28    27    1
    24     6     5    1
    25     6     8    1
    26    35    33    1
    27    35    36    1
    28    10    11    1
    29    10     8    1
    30     9     8    1
    31     5     4    1
    32    44    36    1
    33    44    43    2
    34    27    24    1
    35    36    37    1
    36     4     1    1
    37    26    24    2
    38    43    42    1
    39    24    23    1
    40    24    25    1
    41    37    38    1
    42    23     1    1
    43     1     2    2
    44     1     3    1
    45    42    38    2
    46    38    39    1
    47    39    41   am
    48    39    40    2
