@<TRIPOS>MOLECULE
1bdg_GLC_A_1.pdb
 12 12 0 0 0
SMALL
GASTEIGER

@<TRIPOS>ATOM
      1  C1        26.5540   22.9440   65.9540 C.3   501  GLC501      0.3024
      2  C2        25.6020   22.0270   65.1860 C.3   501  GLC501      0.2434
      3  C3        26.3680   20.8520   64.6230 C.3   501  GLC501      0.2199
      4  C4        27.5180   21.3550   63.7680 C.3   501  GLC501      0.2144
      5  C5        28.4030   22.2570   64.6000 C.3   501  GLC501      0.1836
      6  C6        29.5410   22.8500   63.7910 C.3   501  GLC501      0.2142
      7  O1        27.1500   22.2000   66.9630 O.3   501  GLC501     -0.1869
      8  O2        24.5740   21.5390   66.0460 O.3   501  GLC501     -0.2148
      9  O3        25.5120   20.0400   63.8330 O.3   501  GLC501     -0.2174
     10  O4        28.2590   20.2660   63.2720 O.3   501  GLC501     -0.2176
     11  O5        27.6270   23.3500   65.0950 O.3   501  GLC501     -0.3236
     12  O6        29.1370   24.0220   63.1150 O.3   501  GLC501     -0.2176
@<TRIPOS>BOND
     1    12     6    1
     2    10     4    1
     3     4     5    1
     4     4     3    1
     5     6     5    1
     6     9     3    1
     7     5    11    1
     8     3     2    1
     9    11     1    1
    10     2     1    1
    11     2     8    1
    12     1     7    1
