@<TRIPOS>MOLECULE
1bdh_HPA_A_1.pdb
 10 11 0 0 0
SMALL
GASTEIGER

@<TRIPOS>ATOM
      1  N1        56.8630    2.6100  -10.9250 N.2   599  HPA599     -0.1726
      2  C2        57.6380    2.5940   -9.7900 C.3   599  HPA599      0.2725
      3  N3        58.3080    3.6320   -9.3260 N.2   599  HPA599     -0.1902
      4  C4        58.1330    4.7090  -10.1230 C.1   599  HPA599      0.0598
      5  C5        57.3820    4.8230  -11.2710 C.2   599  HPA599      0.2226
      6  C6        56.6490    3.7070  -11.7430 C.1   599  HPA599      0.1796
      7  O6        55.8880    3.5830  -12.7170 O.2   599  HPA599     -0.2200
      8  N7        57.4950    6.1040  -11.7870 N.2   599  HPA599     -0.2230
      9  C8        58.2660    6.7310  -10.9520 C.3   599  HPA599      0.2622
     10  N9        58.6970    5.9440   -9.9150 N.2   599  HPA599     -0.1910
@<TRIPOS>BOND
     1     7     6    2
     2     8     5    2
     3     8     9    1
     4     6     5    1
     5     6     1    2
     6     5     4    1
     7     9    10    1
     8     1     2    1
     9     4    10    2
    10     4     3    2
    11     2     3    1
