@<TRIPOS>MOLECULE
1bdi_HPA_A_1.pdb
 10 11 0 0 0
SMALL
GASTEIGER

@<TRIPOS>ATOM
      1  N1        56.9830    2.4690  -11.0450 N.2   599  HPA599     -0.1726
      2  C2        57.7520    2.5170   -9.9110 C.3   599  HPA599      0.2725
      3  N3        58.3950    3.6000   -9.5040 N.2   599  HPA599     -0.1902
      4  C4        58.2060    4.6630  -10.3190 C.1   599  HPA599      0.0598
      5  C5        57.4650    4.7120  -11.4730 C.2   599  HPA599      0.2226
      6  C6        56.7760    3.5490  -11.8970 C.1   599  HPA599      0.1796
      7  O6        56.0710    3.3940  -12.9010 O.2   599  HPA599     -0.2200
      8  N7        57.5460    5.9780  -12.0390 N.2   599  HPA599     -0.2230
      9  C8        58.3140    6.6610  -11.2370 C.3   599  HPA599      0.2622
     10  N9        58.7320    5.9290  -10.1550 N.2   599  HPA599     -0.1910
@<TRIPOS>BOND
     1     7     6    2
     2     8     5    2
     3     8     9    1
     4     6     5    1
     5     6     1    2
     6     5     4    1
     7     9    10    1
     8     1     2    1
     9     4    10    2
    10     4     3    2
    11     2     3    1
