@<TRIPOS>MOLECULE
1bdl_IM1_A_1.pdb
 38 40 0 0 0
SMALL
GASTEIGER

@<TRIPOS>ATOM
      1  C1       -13.6500   15.0960   42.0230 C.3   400  IM1400      0.1379
      2  C2       -13.0110   16.2490   42.7830 C.3   400  IM1400      0.0437
      3  C3       -14.5580   14.3960   43.0250 C.3   400  IM1400      0.0437
      4  C4       -14.5160   15.6670   40.9040 C.3   400  IM1400      0.0437
      5  O5       -12.6090   14.2160   41.6550 O.3   400  IM1400     -0.4408
      6  C6       -12.3090   13.6110   40.4230 C.2   400  IM1400      0.4209
      7  O7       -11.1620   13.7590   39.9980 O.2   400  IM1400     -0.2246
      8  N8       -13.1870   12.9030   39.7080 N.am  400  IM1400     -0.1675
      9  C9       -12.8170   12.2760   38.4290 C.3   400  IM1400      0.1333
     10  C10      -13.9030   11.2450   38.0990 C.3   400  IM1400      0.0507
     11  C11      -13.4030    9.8120   38.2280 C.ar  400  IM1400     -0.0204
     12  C12      -14.0170    8.8020   37.4810 C.ar  400  IM1400     -0.0042
     13  C13      -13.5710    7.4880   37.6000 C.ar  400  IM1400     -0.0003
     14  C14      -12.5130    7.1850   38.4560 C.ar  400  IM1400     -0.0000
     15  C15      -11.9010    8.1870   39.2070 C.ar  400  IM1400     -0.0003
     16  C16      -12.3420    9.5010   39.0930 C.ar  400  IM1400     -0.0042
     17  C17      -12.4860   13.1280   37.1410 C.3   400  IM1400      0.1727
     18  O18      -11.2820   12.5710   36.5960 O.3   400  IM1400     -0.2213
     19  C19      -13.5780   13.1830   36.0370 C.3   400  IM1400      0.0442
     20  C20      -13.1420   13.2530   34.5700 C.3   400  IM1400      0.0851
     21  C21      -14.4070   13.0000   33.7130 C.3   400  IM1400      0.0356
     22  C22      -14.2220   13.1810   32.2030 C.ar  400  IM1400     -0.0217
     23  C23      -14.8930   14.2080   31.5350 C.ar  400  IM1400     -0.0043
     24  C24      -14.7020   14.3900   30.1680 C.ar  400  IM1400     -0.0003
     25  C25      -13.8480   13.5420   29.4700 C.ar  400  IM1400     -0.0000
     26  C26      -13.1750   12.5190   30.1290 C.ar  400  IM1400     -0.0003
     27  C27      -13.3650   12.3340   31.4920 C.ar  400  IM1400     -0.0043
     28  C28      -12.4650   14.5780   34.2000 C.2   400  IM1400      0.2422
     29  O29      -12.8250   15.6470   34.7020 O.2   400  IM1400     -0.2733
     30  N30      -11.4980   14.5200   33.2920 N.am  400  IM1400     -0.1919
     31  C31      -10.7480   15.6810   32.7980 C.3   400  IM1400      0.1795
     32  C32       -9.3160   15.7850   33.4010 C.3   400  IM1400      0.0370
     33  C34       -9.3890   15.8910   34.9160 C.3   400  IM1400      0.0030
     34  C35      -10.6210   15.4560   31.2890 C.1   400  IM1400      0.0316
     35  N36       -9.7840   14.5510   30.8120 N.2   400  IM1400     -0.1932
     36  C37       -9.9720   14.5780   29.4460 C.2   400  IM1400      0.1307
     37  C38      -10.9460   15.5330   29.1670 C.2   400  IM1400      0.1307
     38  N39      -11.3380   16.0690   30.3710 N.2   400  IM1400     -0.1932
@<TRIPOS>BOND
     1    37    36    2
     2    37    38    1
     3    36    35    1
     4    25    26   ar
     5    25    24   ar
     6    26    27   ar
     7    24    23   ar
     8    38    34    2
     9    35    34    2
    10    34    31    1
    11    27    22   ar
    12    23    22   ar
    13    22    21    1
    14    31    30    1
    15    31    32    1
    16    30    28   am
    17    32    33    1
    18    21    20    1
    19    28    20    1
    20    28    29    2
    21    20    19    1
    22    19    17    1
    23    18    17    1
    24    17     9    1
    25    12    13   ar
    26    12    11   ar
    27    13    14   ar
    28    10    11    1
    29    10     9    1
    30    11    16   ar
    31     9     8    1
    32    14    15   ar
    33    16    15   ar
    34     8     6   am
    35     7     6    2
    36     6     5    1
    37     4     1    1
    38     5     1    1
    39     1     2    1
    40     1     3    1
