@<TRIPOS>MOLECULE
1bdm_NAX_A_1.pdb
 45 49 0 0 0
SMALL
GASTEIGER

@<TRIPOS>ATOM
      1  PA        27.4510   25.1000   24.4870 P.3   334  NAX334      0.2189
      2  O1A       27.5720   25.1490   23.0130 O.2   334  NAX334     -0.5170
      3  O2A       28.6960   25.1490   25.2640 O.3   334  NAX334     -0.4371
      4  O5B       26.6210   23.8000   24.8530 O.3   334  NAX334     -0.3112
      5  C5B       25.2560   23.5370   24.5220 C.3   334  NAX334      0.1813
      6  C4B       25.0970   22.0370   24.5030 C.3   334  NAX334      0.1821
      7  O4B       23.7610   21.6930   23.9920 O.3   334  NAX334     -0.3135
      8  C3B       26.0940   21.2740   23.6170 C.3   334  NAX334      0.2184
      9  O3B       26.8160   20.3750   24.4440 O.3   334  NAX334     -0.2174
     10  C2B       25.1860   20.4580   22.6440 C.3   334  NAX334      0.2570
     11  O2B       25.6330   19.1370   22.2990 O.3   334  NAX334     -0.2130
     12  C1B       23.9170   20.3860   23.4730 C.3   334  NAX334      0.3186
     13  N9A       22.7850   20.1030   22.6430 N.pl3 334  NAX334     -0.1439
     14  C8A       22.4490   20.5900   21.3840 C.3   334  NAX334      0.3377
     15  N7A       21.2760   20.1270   20.9540 N.2   334  NAX334     -0.2095
     16  C5A       20.8060   19.2620   21.9760 C.2   334  NAX334      0.2526
     17  C6A       19.6890   18.4120   22.0880 C.2   334  NAX334      0.4393
     18  N6A       18.8110   18.2150   21.0990 N.pl3 334  NAX334      0.2180
     19  N1A       19.5710   17.6560   23.2110 N.2   334  NAX334      0.0021
     20  C2A       20.5450   17.6830   24.1370 C.3   334  NAX334      0.5254
     21  N3A       21.6460   18.4390   24.1350 N.2   334  NAX334     -0.0055
     22  C4A       21.7210   19.1760   23.0260 C.2   334  NAX334      0.3518
     23  O3        26.4770   26.2020   24.9270 O.3   334  NAX334     -0.2703
     24  PN        26.3160   27.2560   26.1730 P.3   334  NAX334      0.2189
     25  O1N       27.3260   28.3570   26.2840 O.2   334  NAX334     -0.5170
     26  O2N       26.3600   26.0200   27.0110 O.3   334  NAX334     -0.4371
     27  O5D       24.8220   27.8500   26.0430 O.3   334  NAX334     -0.3112
     28  C5D       23.7060   26.9600   25.9230 C.3   334  NAX334      0.1813
     29  C4D       22.4960   27.7620   25.5170 C.3   334  NAX334      0.1799
     30  O4D       22.2340   28.7660   26.5230 O.3   334  NAX334     -0.3326
     31  C3D       22.6970   28.5790   24.2300 C.3   334  NAX334      0.2158
     32  O3D       21.4880   28.5200   23.4970 O.3   334  NAX334     -0.2175
     33  C2D       22.7760   30.0250   24.7220 C.3   334  NAX334      0.2310
     34  O2D       22.4200   31.0220   23.7710 O.3   334  NAX334     -0.2158
     35  C1D       21.7570   29.9310   25.8760 C.3   334  NAX334      0.2278
     36  N1N       21.8210   31.0770   26.7970 N.pl3 334  NAX334     -0.2585
     37  C2N       20.6750   31.6900   27.2420 C.2   334  NAX334      0.0652
     38  C3N       20.7400   32.6950   28.2040 C.2   334  NAX334      0.0492
     39  C7N       19.5090   33.2800   28.7830 C.2   334  NAX334      0.2814
     40  O7N       19.6760   34.1590   29.6110 O.2   334  NAX334     -0.2670
     41  N7N       18.3860   32.6390   28.5310 N.am  334  NAX334     -0.0839
     42  C4N       22.0290   33.2330   28.7460 C.3   334  NAX334      0.0368
     43  C5N       23.0850   32.1520   28.7750 C.3   334  NAX334      0.0591
     44  C6N       23.2320   31.4560   27.4380 C.3   334  NAX334      0.2302
     45  O6N       23.8100   32.3060   26.3960 O.3   334  NAX334     -0.2006
@<TRIPOS>BOND
     1    15    14    1
     2    15    16    2
     3    18    17    1
     4    14    13    1
     5    16    17    1
     6    16    22    1
     7    17    19    2
     8    11    10    1
     9    13    22    1
    10    13    12    1
    11    10    12    1
    12    10     8    1
    13     2     1    2
    14    22    21    2
    15    19    20    1
    16    12     7    1
    17    32    31    1
    18     8     9    1
    19     8     6    1
    20    34    33    1
    21     7     6    1
    22    21    20    1
    23    31    33    1
    24    31    29    1
    25     1     4    1
    26     1    23    1
    27     1     3    1
    28     6     5    1
    29     5     4    1
    30    33    35    1
    31    23    24    1
    32    29    28    1
    33    29    30    1
    34    35    30    1
    35    35    36    1
    36    28    27    1
    37    27    24    1
    38    24    25    2
    39    24    26    1
    40    45    44    1
    41    36    37    1
    42    36    44    1
    43    37    38    2
    44    44    43    1
    45    38    42    1
    46    38    39    1
    47    41    39   am
    48    42    43    1
    49    39    40    2
