@<TRIPOS>MOLECULE
1bdo_BTN_A_1.pdb
 15 16 0 0 0
SMALL
GASTEIGER

@<TRIPOS>ATOM
      1  C11       13.9700   19.3570    9.4270 C.2   157  BTN157      0.2074
      2  O11       13.4490   18.2590    9.6010 O.2   157  BTN157     -0.2883
      3  C10       13.2130   20.6340    9.7320 C.3   157  BTN157      0.0722
      4  C9        12.2680   21.0640    8.6110 C.3   157  BTN157      0.0082
      5  C8        13.0120   21.3250    7.3180 C.3   157  BTN157      0.0014
      6  C7        12.2100   22.2040    6.3890 C.3   157  BTN157      0.0129
      7  C2        12.7860   22.2990    4.9700 C.3   157  BTN157      0.0729
      8  S1        13.2540   23.9850    4.4240 S.3   157  BTN157     -0.1369
      9  C6        13.1490   23.4400    2.6820 C.3   157  BTN157      0.0848
     10  C5        11.9720   22.4730    2.6060 C.3   157  BTN157      0.1509
     11  N1        10.7400   23.2080    2.3690 N.2   157  BTN157     -0.1859
     12  C3         9.8380   23.0800    3.3420 C.1   157  BTN157      0.2386
     13  O3         8.6920   23.5190    3.3360 O.2   157  BTN157     -0.2023
     14  N2        10.3860   22.3040    4.2800 N.2   157  BTN157     -0.1860
     15  C4        11.7230   21.8310    3.9450 C.3   157  BTN157      0.1500
@<TRIPOS>BOND
     1    11    10    1
     2    11    12    2
     3    10     9    1
     4    10    15    1
     5     9     8    1
     6    13    12    2
     7    12    14    2
     8    15    14    1
     9    15     7    1
    10     8     7    1
    11     7     6    1
    12     6     5    1
    13     5     4    1
    14     4     3    1
    15     1     2    2
    16     1     3    1
