@<TRIPOS>MOLECULE
1bdq_IM1_B_1.pdb
 38 40 0 0 0
SMALL
GASTEIGER

@<TRIPOS>ATOM
      1  C1       -10.6520   15.6080   33.1220 C.3   400  IM1400      0.1379
      2  C2       -12.1320   15.3120   32.9150 C.3   400  IM1400      0.0437
      3  C3        -9.8390   14.3680   33.4500 C.3   400  IM1400      0.0437
      4  C4       -10.5140   16.5010   34.3430 C.3   400  IM1400      0.0437
      5  O5       -10.1180   16.2780   32.0270 O.3   400  IM1400     -0.4408
      6  C6       -10.0810   15.7520   30.7350 C.2   400  IM1400      0.4209
      7  O7        -9.1690   14.9890   30.4220 O.2   400  IM1400     -0.2246
      8  N8       -11.0090   16.1020   29.8520 N.am  400  IM1400     -0.1675
      9  C9       -11.0340   15.6200   28.4770 C.3   400  IM1400      0.1333
     10  C10      -12.4740   15.3050   28.0710 C.3   400  IM1400      0.0507
     11  C11      -13.0690   14.1930   28.9300 C.ar  400  IM1400     -0.0204
     12  C12      -14.0650   14.4900   29.8700 C.ar  400  IM1400     -0.0042
     13  C13      -14.5900   13.4580   30.6480 C.ar  400  IM1400     -0.0003
     14  C14      -14.1380   12.1430   30.5000 C.ar  400  IM1400     -0.0000
     15  C15      -13.1560   11.8530   29.5700 C.ar  400  IM1400     -0.0003
     16  C16      -12.6200   12.8700   28.7860 C.ar  400  IM1400     -0.0042
     17  C17      -10.4210   16.7000   27.5410 C.3   400  IM1400      0.1727
     18  O18      -11.0130   18.0050   27.7150 O.3   400  IM1400     -0.2213
     19  C19       -8.9600   16.8980   27.8650 C.3   400  IM1400      0.0442
     20  C20       -8.1280   17.6210   26.8790 C.3   400  IM1400      0.0851
     21  C21       -6.7630   17.8950   27.5820 C.3   400  IM1400      0.0356
     22  C22       -5.5980   18.0140   26.6140 C.ar  400  IM1400     -0.0217
     23  C23       -4.6910   16.9510   26.5000 C.ar  400  IM1400     -0.0043
     24  C24       -3.6960   16.9950   25.5380 C.ar  400  IM1400     -0.0003
     25  C25       -3.6020   18.0940   24.6950 C.ar  400  IM1400     -0.0000
     26  C26       -4.5030   19.1510   24.8050 C.ar  400  IM1400     -0.0003
     27  C27       -5.5060   19.1210   25.7610 C.ar  400  IM1400     -0.0043
     28  C28       -8.0190   16.7770   25.6070 C.2   400  IM1400      0.2422
     29  O29       -7.7480   15.5820   25.6600 O.2   400  IM1400     -0.2733
     30  N30       -8.2020   17.4050   24.4550 N.am  400  IM1400     -0.1919
     31  C31       -8.1050   16.7030   23.1800 C.3   400  IM1400      0.1795
     32  C32       -9.4460   16.6830   22.4220 C.3   400  IM1400      0.0370
     33  C34      -10.5120   15.9660   23.2260 C.3   400  IM1400      0.0030
     34  C35       -7.0610   17.4910   22.3880 C.1   400  IM1400      0.0316
     35  N36       -6.1220   16.8400   21.7460 N.2   400  IM1400     -0.1932
     36  C37       -5.2960   17.7920   21.1950 C.2   400  IM1400      0.1307
     37  C38       -5.8430   19.0150   21.5680 C.2   400  IM1400      0.1307
     38  N39       -6.9820   18.8040   22.3280 N.2   400  IM1400     -0.1932
@<TRIPOS>BOND
     1    36    37    2
     2    36    35    1
     3    37    38    1
     4    35    34    2
     5    38    34    2
     6    34    31    1
     7    32    31    1
     8    32    33    1
     9    31    30    1
    10    30    28   am
    11    25    26   ar
    12    25    24   ar
    13    26    27   ar
    14    24    23   ar
    15    28    29    2
    16    28    20    1
    17    27    22   ar
    18    23    22   ar
    19    22    21    1
    20    20    21    1
    21    20    19    1
    22    17    18    1
    23    17    19    1
    24    17     9    1
    25    10     9    1
    26    10    11    1
    27     9     8    1
    28    16    11   ar
    29    16    15   ar
    30    11    12   ar
    31    15    14   ar
    32     8     6   am
    33    12    13   ar
    34     7     6    2
    35    14    13   ar
    36     6     5    1
    37     5     1    1
    38     2     1    1
    39     1     3    1
    40     1     4    1
