@<TRIPOS>MOLECULE
1bdr_IM1_B_1.pdb
 39 41 0 0 0
SMALL
GASTEIGER

@<TRIPOS>ATOM
      1  C1        -9.8070   15.3220   33.3160 C.3   400  IM1400      0.1379
      2  C2        -9.6100   13.8200   33.4420 C.3   400  IM1400      0.0437
      3  C3        -8.4700   16.0600   33.3520 C.3   400  IM1400      0.0437
      4  C4       -10.6140   15.7290   34.5360 C.3   400  IM1400      0.0437
      5  O5       -10.5930   15.6350   32.2000 O.3   400  IM1400     -0.4408
      6  C6       -10.2920   15.3650   30.8580 C.2   400  IM1400      0.4209
      7  O7        -9.2790   14.7630   30.5140 O.2   400  IM1400     -0.2246
      8  N8       -11.1550   15.7980   29.9440 N.am  400  IM1400     -0.1675
      9  C9       -10.9860   15.6030   28.5060 C.3   400  IM1400      0.1333
     10  C10      -12.3440   15.2230   27.9240 C.3   400  IM1400      0.0507
     11  C11      -12.8150   13.9680   28.6100 C.ar  400  IM1400     -0.0204
     12  C12      -12.3310   12.7330   28.1900 C.ar  400  IM1400     -0.0042
     13  C13      -12.6990   11.5860   28.8860 C.ar  400  IM1400     -0.0003
     14  C14      -13.5380   11.6830   29.9920 C.ar  400  IM1400     -0.0000
     15  C15      -14.0300   12.9210   30.4110 C.ar  400  IM1400     -0.0003
     16  C16      -13.6690   14.0720   29.7150 C.ar  400  IM1400     -0.0042
     17  C17      -10.3880   16.8070   27.7260 C.3   400  IM1400      0.1727
     18  O18      -11.0810   18.0460   28.0080 O.3   400  IM1400     -0.2213
     19  C19       -8.9680   17.0680   28.0790 C.3   400  IM1400      0.0442
     20  C20       -8.2310   17.6990   26.9490 C.3   400  IM1400      0.0851
     21  C21       -6.9480   18.2370   27.6060 C.3   400  IM1400      0.0356
     22  C22       -5.6410   18.2050   26.8190 C.ar  400  IM1400     -0.0217
     23  C23       -5.3740   19.1550   25.8290 C.ar  400  IM1400     -0.0043
     24  C24       -4.1700   19.0980   25.1430 C.ar  400  IM1400     -0.0003
     25  C25       -3.2380   18.1100   25.4370 C.ar  400  IM1400     -0.0000
     26  C26       -3.5000   17.1680   26.4200 C.ar  400  IM1400     -0.0003
     27  C27       -4.7040   17.2110   27.1140 C.ar  400  IM1400     -0.0043
     28  C28       -7.9950   16.7030   25.8020 C.2   400  IM1400      0.2422
     29  O29       -7.8430   15.4890   25.9730 O.2   400  IM1400     -0.2733
     30  N30       -7.9590   17.2590   24.6020 N.am  400  IM1400     -0.1919
     31  C31       -7.7210   16.5210   23.3690 C.3   400  IM1400      0.1794
     32  C32       -9.0260   16.2300   22.5970 C.3   400  IM1400      0.0343
     33  C33       -8.7650   15.9230   21.1390 C.3   400  IM1400      0.0029
     34  C34       -9.6260   14.9380   23.1210 C.3   400  IM1400      0.0029
     35  C35       -6.8260   17.4830   22.5930 C.1   400  IM1400      0.0316
     36  N36       -6.8490   18.8050   22.6390 N.2   400  IM1400     -0.1932
     37  C37       -5.7660   19.1670   21.8710 C.2   400  IM1400      0.1307
     38  C38       -5.1420   18.0180   21.3920 C.2   400  IM1400      0.1307
     39  N39       -5.8650   16.9570   21.8810 N.2   400  IM1400     -0.1932
@<TRIPOS>BOND
     1    33    32    1
     2    38    37    2
     3    38    39    1
     4    37    36    1
     5    39    35    2
     6    35    36    2
     7    35    31    1
     8    32    34    1
     9    32    31    1
    10    31    30    1
    11    30    28   am
    12    24    25   ar
    13    24    23   ar
    14    25    26   ar
    15    28    29    2
    16    28    20    1
    17    23    22   ar
    18    26    27   ar
    19    22    27   ar
    20    22    21    1
    21    20    21    1
    22    20    19    1
    23    17    18    1
    24    17    19    1
    25    17     9    1
    26    10     9    1
    27    10    11    1
    28    12    11   ar
    29    12    13   ar
    30     9     8    1
    31    11    16   ar
    32    13    14   ar
    33    16    15   ar
    34     8     6   am
    35    14    15   ar
    36     7     6    2
    37     6     5    1
    38     5     1    1
    39     1     3    1
    40     1     2    1
    41     1     4    1
