@<TRIPOS>MOLECULE
1bdu_DUR_A_1.pdb
 16 17 0 0 0
SMALL
GASTEIGER

@<TRIPOS>ATOM
      1  N1       -28.4870   -8.9880   20.1920 N.am  301  DUR301     -0.1790
      2  C2       -27.4880   -8.0200   20.2280 C.1   301  DUR301      0.2844
      3  N3       -27.9120   -6.7230   20.0940 N.2   301  DUR301     -0.2452
      4  C4       -29.2280   -6.3070   19.9160 C.1   301  DUR301      0.2182
      5  C5       -30.1960   -7.3930   19.8760 C.2   301  DUR301      0.1242
      6  C6       -29.7700   -8.7150   20.0150 C.2   301  DUR301      0.0928
      7  O2       -26.2920   -8.2590   20.3260 O.2   301  DUR301     -0.1918
      8  O4       -29.5160   -5.1080   19.8830 O.2   301  DUR301     -0.2085
      9  C1'      -28.1250  -10.4010   20.4190 C.3   301  DUR301      0.2090
     10  C2'      -28.2520  -10.8290   21.8730 C.3   301  DUR301      0.0874
     11  C3'      -28.1080  -12.3320   21.7930 C.3   301  DUR301      0.1858
     12  C4'      -29.0830  -12.5690   20.6330 C.3   301  DUR301      0.1802
     13  O3'      -26.7730  -12.6370   21.3780 O.3   301  DUR301     -0.2203
     14  O4'      -28.8340  -11.4620   19.6880 O.3   301  DUR301     -0.3338
     15  C5'      -30.5370  -12.5260   21.1440 C.3   301  DUR301      0.2141
     16  O5'      -31.4960  -12.7610   20.1060 O.3   301  DUR301     -0.2176
@<TRIPOS>BOND
     1    14     9    1
     2    14    12    1
     3     5     4    1
     4     5     6    2
     5     8     4    2
     6     4     3    2
     7     6     1    1
     8     3     2    2
     9    16    15    1
    10     1     2   am
    11     1     9    1
    12     2     7    2
    13     9    10    1
    14    12    15    1
    15    12    11    1
    16    13    11    1
    17    11    10    1
