@<TRIPOS>MOLECULE
1be3_HEM_C_1.pdb
 43 50 0 0 0
SMALL
GASTEIGER

@<TRIPOS>ATOM
      1 FE         53.2700  102.5270   32.3310 Fe    380  HEM380      0.0000
      2  CHA       56.4150  101.6350   32.8510 C.2   380  HEM380      0.0000
      3  CHB       53.4020  104.7770   34.9470 C.2   380  HEM380      0.0000
      4  CHC       49.8980  103.3090   31.9830 C.2   380  HEM380      0.0000
      5  CHD       52.8810  100.0970   29.9740 C.2   380  HEM380      0.0000
      6  NA        54.6290  103.0690   33.6550 N.2   380  HEM380      0.0000
      7  C1A       55.9370  102.6110   33.7070 C.2   380  HEM380      0.0000
      8  C2A       56.6310  103.3110   34.7660 C.2   380  HEM380      0.0000
      9  C3A       55.7840  104.1720   35.3400 C.2   380  HEM380      0.0000
     10  C4A       54.5140  104.0320   34.6460 C.2   380  HEM380      0.0000
     11  CMA       55.9450  105.1810   36.5090 C.3   380  HEM380      0.0000
     12  CAA       58.1070  103.0200   35.0890 C.3   380  HEM380      0.0000
     13  CBA       59.1140  103.3190   33.9770 C.3   380  HEM380      0.0000
     14  CGA       60.4820  103.7010   34.5010 C.2   380  HEM380      0.0000
     15  O1A       60.5140  104.5840   35.3940 O.co2 380  HEM380      0.0000
     16  O2A       61.4210  103.0620   33.9850 O.co2 380  HEM380      0.0000
     17  NB        51.9550  103.8420   33.1910 N.ar  380  HEM380      0.0000
     18  C1B       52.1750  104.5780   34.3460 C.ar  380  HEM380      0.0000
     19  C2B       50.9250  105.1130   34.8480 C.ar  380  HEM380      0.0000
     20  C3B       49.9710  104.6960   34.0280 C.ar  380  HEM380      0.0000
     21  C4B       50.5940  103.9170   32.9910 C.ar  380  HEM380      0.0000
     22  CMB       50.7870  105.9850   36.1070 C.3   380  HEM380      0.0000
     23  CAB       48.4520  104.9770   34.1290 C.2   380  HEM380      0.0000
     24  CBB       47.6980  104.9260   33.0300 C.2   380  HEM380      0.0000
     25  NC        51.7040  101.8030   31.2710 N.2   380  HEM380      0.0000
     26  C1C       50.4210  102.3140   31.1900 C.2   380  HEM380      0.0000
     27  C2C       49.6920  101.6640   30.1050 C.2   380  HEM380      0.0000
     28  C3C       50.5210  100.7890   29.5510 C.2   380  HEM380      0.0000
     29  C4C       51.7840  100.8630   30.2680 C.2   380  HEM380      0.0000
     30  CMC       48.2450  101.9480   29.6810 C.3   380  HEM380      0.0000
     31  CAC       50.2640   99.8320   28.3710 C.2   380  HEM380      0.0000
     32  CBC       49.0250   99.5110   28.0060 C.2   380  HEM380      0.0000
     33  ND        54.4250  101.1230   31.5500 N.ar  380  HEM380      0.0000
     34  C1D       54.1060  100.1940   30.5760 C.ar  380  HEM380      0.0000
     35  C2D       55.2430   99.3450   30.3220 C.ar  380  HEM380      0.0000
     36  C3D       56.2480   99.7690   31.0980 C.ar  380  HEM380      0.0000
     37  C4D       55.7460  100.8760   31.8890 C.ar  380  HEM380      0.0000
     38  CMD       55.2640   98.2050   29.2990 C.3   380  HEM380      0.0000
     39  CAD       57.6730   99.1840   31.1940 C.3   380  HEM380      0.0000
     40  CBD       58.8760   99.7730   30.4650 C.3   380  HEM380      0.0000
     41  CGD       59.3210  101.0770   31.0980 C.2   380  HEM380      0.0000
     42  O1D       59.0810  102.1340   30.4450 O.co2 380  HEM380      0.0000
     43  O2D       59.8690  101.0050   32.2320 O.co2 380  HEM380      0.0000
@<TRIPOS>BOND
     1    32    31    2
     2    31    28    1
     3    38    35    1
     4    28    27    2
     5    28    29    1
     6    30    27    1
     7     5    29    1
     8     5    34    2
     9    27    26    1
    10    29    25    2
    11    35    34   ar
    12    35    36   ar
    13    42    41   ar
    14    40    41    1
    15    40    39    1
    16    34    33   ar
    17    41    43   ar
    18    36    39    1
    19    36    37   ar
    20    26    25    1
    21    26     4    2
    22    25     1    1
    23    33    37   ar
    24    33     1    1
    25    37     2    2
    26     4    21    1
    27     1    17    1
    28     1     6    1
    29     2     7    1
    30    21    17   ar
    31    21    20   ar
    32    24    23    2
    33    17    18   ar
    34     6     7    2
    35     6    10    1
    36     7     8    1
    37    13    14    1
    38    13    12    1
    39    16    14   ar
    40    20    23    1
    41    20    19   ar
    42    18    19   ar
    43    18     3    1
    44    14    15   ar
    45    10     3    2
    46    10     9    1
    47     8    12    1
    48     8     9    2
    49    19    22    1
    50     9    11    1
