@<TRIPOS>MOLECULE
1be3_HEC_D_1.pdb
 43 50 0 0 0
SMALL
GASTEIGER

@<TRIPOS>ATOM
      1 FE         86.7540  100.1650   38.7700 Fe    242  HEC242      0.0000
      2  CHA       84.8880  100.0210   41.5880 C.2   242  HEC242      0.0000
      3  CHB       84.8780  102.8160   37.6590 C.2   242  HEC242      0.0000
      4  CHC       88.9560  100.6510   36.2410 C.2   242  HEC242      0.0000
      5  CHD       88.3140   97.2570   39.6400 C.2   242  HEC242      0.0000
      6  NA        85.1190  101.1440   39.4330 N.ar  242  HEC242      0.0000
      7  C1A       84.6240  101.0680   40.7240 C.ar  242  HEC242      0.0000
      8  C2A       83.8180  102.2330   41.0060 C.ar  242  HEC242      0.0000
      9  C3A       83.8190  102.9970   39.9130 C.ar  242  HEC242      0.0000
     10  C4A       84.6250  102.3340   38.9210 C.ar  242  HEC242      0.0000
     11  CMA       83.1020  104.3490   39.7190 C.3   242  HEC242      0.0000
     12  CAA       83.1060  102.5220   42.3380 C.3   242  HEC242      0.0000
     13  CBA       81.6060  102.7530   42.3230 C.3   242  HEC242      0.0000
     14  CGA       80.9680  102.2000   43.5870 C.2   242  HEC242      0.0000
     15  O1A       81.0440  100.9530   43.7470 O.co2 242  HEC242      0.0000
     16  O2A       80.4900  103.1130   44.3000 O.co2 242  HEC242      0.0000
     17  NB        86.8990  101.4660   37.2560 N.2   242  HEC242      0.0000
     18  C1B       86.0250  102.4960   36.9560 C.2   242  HEC242      0.0000
     19  C2B       86.5010  103.1910   35.7770 C.2   242  HEC242      0.0000
     20  C3B       87.6230  102.5990   35.3860 C.2   242  HEC242      0.0000
     21  C4B       87.8870  101.5120   36.2980 C.2   242  HEC242      0.0000
     22  CMB       85.7670  104.3950   35.1530 C.3   242  HEC242      0.0000
     23  CAB       88.5570  102.9040   34.1820 C.2   242  HEC242      0.0000
     24  CBB       89.1470  104.1040   34.0950 C.2   242  HEC242      0.0000
     25  NC        88.3450   99.1790   38.1170 N.ar  242  HEC242      0.0000
     26  C1C       89.0770   99.5010   36.9930 C.ar  242  HEC242      0.0000
     27  C2C       90.0070   98.4210   36.7210 C.ar  242  HEC242      0.0000
     28  C3C       89.8260   97.4950   37.6640 C.ar  242  HEC242      0.0000
     29  C4C       88.7820   97.9390   38.5460 C.ar  242  HEC242      0.0000
     30  CMC       90.9970   98.4270   35.5340 C.3   242  HEC242      0.0000
     31  CAC       90.5980   96.1540   37.7680 C.2   242  HEC242      0.0000
     32  CBC       91.6980   96.1760   38.5560 C.2   242  HEC242      0.0000
     33  ND        86.6590   98.9130   40.3440 N.2   242  HEC242      0.0000
     34  C1D       87.3180   97.7000   40.4760 C.2   242  HEC242      0.0000
     35  C2D       86.7840   96.9800   41.6150 C.2   242  HEC242      0.0000
     36  C3D       85.8310   97.7390   42.1690 C.2   242  HEC242      0.0000
     37  C4D       85.7410   98.9560   41.3810 C.2   242  HEC242      0.0000
     38  CMD       87.2910   95.5900   42.0390 C.3   242  HEC242      0.0000
     39  CAD       84.9530   97.4430   43.4100 C.2   242  HEC242      0.0000
     40  CBD       85.0640   98.3600   44.6180 C.2   242  HEC242      0.0000
     41  CGD       84.4220   97.9530   45.9110 C.2   242  HEC242      0.0000
     42  O1D       84.9020   98.4560   46.9700 O.co2 242  HEC242      0.0000
     43  O2D       83.4420   97.1460   45.8810 O.co2 242  HEC242      0.0000
@<TRIPOS>BOND
     1    24    23    2
     2    23    20    1
     3    22    19    1
     4    20    19    2
     5    20    21    1
     6    30    27    1
     7    19    18    1
     8     4    21    2
     9     4    26    1
    10    21    17    1
    11    27    26   ar
    12    27    28   ar
    13    18    17    2
    14    18     3    1
    15    26    25   ar
    16    17     1    1
    17     3    10    2
    18    28    31    1
    19    28    29   ar
    20    31    32    2
    21    25    29   ar
    22    25     1    1
    23    29     5    1
    24     1     6    1
    25     1    33    1
    26    10     6   ar
    27    10     9   ar
    28     6     7   ar
    29     5    34    2
    30    11     9    1
    31     9     8   ar
    32    33    34    1
    33    33    37    2
    34    34    35    1
    35     7     8   ar
    36     7     2    2
    37     8    12    1
    38    37     2    1
    39    37    36    1
    40    35    38    1
    41    35    36    2
    42    36    39    1
    43    13    12    1
    44    13    14    1
    45    39    40    2
    46    14    15   ar
    47    14    16   ar
    48    40    41    1
    49    43    41   ar
    50    41    42   ar
