@<TRIPOS>MOLECULE
1be4_PCG_A_1.pdb
 23 26 0 0 0
SMALL
GASTEIGER

@<TRIPOS>ATOM
      1  PA        42.6680   55.6810   18.5960 P.3   160  PCG160      0.2141
      2  O1A       43.4480   55.4170   19.8910 O.3   160  PCG160     -0.4373
      3  O2A       41.5080   56.5940   18.9970 O.2   160  PCG160     -0.5172
      4  O5'       42.1800   54.3460   18.1590 O.3   160  PCG160     -0.3114
      5  C5'       43.0660   53.2230   17.9740 C.3   160  PCG160      0.1812
      6  C4'       44.4100   53.7830   17.6120 C.3   160  PCG160      0.1771
      7  O4'       45.3890   52.8670   17.0220 O.3   160  PCG160     -0.3327
      8  C3'       44.1710   54.8980   16.6200 C.3   160  PCG160      0.1857
      9  O3'       43.3090   55.9600   17.2560 O.3   160  PCG160     -0.3112
     10  C2'       45.6970   55.0940   16.4150 C.3   160  PCG160      0.2282
     11  O2'       46.5050   55.3730   17.5460 O.3   160  PCG160     -0.2159
     12  C1'       46.1310   53.6700   16.1120 C.3   160  PCG160      0.2292
     13  N9        45.7790   53.3120   14.7540 N.pl3 160  PCG160     -0.2354
     14  C8        44.6370   53.2580   13.9600 C.3   160  PCG160      0.2246
     15  N7        44.9400   52.8620   12.7300 N.2   160  PCG160     -0.2322
     16  C5        46.3580   52.6050   12.7020 C.2   160  PCG160      0.2182
     17  C6        47.2890   52.2790   11.6370 C.1   160  PCG160      0.2372
     18  O6        47.0550   51.9410   10.4420 O.2   160  PCG160     -0.2069
     19  N1        48.6350   52.3500   12.0710 N.2   160  PCG160     -0.2485
     20  C2        49.0880   52.7030   13.3490 C.1   160  PCG160      0.2531
     21  N2        50.4270   52.6730   13.5550 N.pl3 160  PCG160     -0.0226
     22  N3        48.2620   53.0320   14.3640 N.2   160  PCG160     -0.3074
     23  C4        46.9060   52.9820   13.9720 C.2   160  PCG160      0.2300
@<TRIPOS>BOND
     1    18    17    2
     2    17    19    2
     3    17    16    1
     4    19    20    2
     5    16    15    2
     6    16    23    1
     7    15    14    1
     8    20    21    1
     9    20    22    2
    10    14    13    1
    11    23    22    2
    12    23    13    1
    13    13    12    1
    14    12    10    1
    15    12     7    1
    16    10     8    1
    17    10    11    1
    18     8     9    1
    19     8     6    1
    20     7     6    1
    21     9     1    1
    22     6     5    1
    23     5     4    1
    24     4     1    1
    25     1     3    2
    26     1     2    1
