@<TRIPOS>MOLECULE
1be6_TCA_A_1.pdb
 10 10 0 0 0
SMALL
GASTEIGER

@<TRIPOS>ATOM
      1  C1         3.5880   10.5520    3.2940 C.2   276  TCA276      0.2343
      2  O          3.6080    9.4440    3.5180 O.2   276  TCA276     -0.2831
      3  C2         3.0520   11.1160    2.1440 C.2   276  TCA276      0.0454
      4  C3         3.8350   11.8600    1.4880 C.2   276  TCA276      0.0034
      5  C31        3.6190   12.3100    0.1280 C.ar  276  TCA276      0.0001
      6  C32        4.5110   13.0620   -0.5400 C.ar  276  TCA276      0.0000
      7  C33        4.3940   13.2850   -1.9530 C.ar  276  TCA276      0.0000
      8  C34        3.3590   12.7710   -2.7030 C.ar  276  TCA276      0.0000
      9  C35        2.3700   12.0880   -2.0010 C.ar  276  TCA276      0.0000
     10  C36        2.5040   11.8250   -0.5940 C.ar  276  TCA276      0.0000
@<TRIPOS>BOND
     1     8     9   ar
     2     8     7   ar
     3     9    10   ar
     4     7     6   ar
     5    10     5   ar
     6     6     5   ar
     7     5     4    1
     8     4     3    2
     9     3     1    1
    10     1     2    2
