@<TRIPOS>MOLECULE
1be8_TCA_A_1.pdb
 10 10 0 0 0
SMALL
GASTEIGER

@<TRIPOS>ATOM
      1  C1         3.4690   10.4590    3.6620 C.2   276  TCA276      0.2343
      2  O          2.9190    9.6890    4.2820 O.2   276  TCA276     -0.2831
      3  C2         3.0000   10.9940    2.4700 C.2   276  TCA276      0.0454
      4  C3         3.8630   11.5900    1.7650 C.2   276  TCA276      0.0034
      5  C31        3.6010   12.0970    0.4330 C.ar  276  TCA276      0.0001
      6  C32        4.4170   12.9650   -0.1880 C.ar  276  TCA276      0.0000
      7  C33        4.2740   13.2590   -1.5860 C.ar  276  TCA276      0.0000
      8  C34        3.2880   12.6970   -2.3660 C.ar  276  TCA276      0.0000
      9  C35        2.3680   11.8860   -1.7060 C.ar  276  TCA276      0.0000
     10  C36        2.5320   11.5550   -0.3170 C.ar  276  TCA276      0.0000
@<TRIPOS>BOND
     1     8     9   ar
     2     8     7   ar
     3     9    10   ar
     4     7     6   ar
     5    10     5   ar
     6     6     5   ar
     7     5     4    1
     8     4     3    2
     9     3     1    1
    10     1     2    2
