@<TRIPOS>MOLECULE
1be9_III_B_1.pdb
 35 34 0 0 0
SMALL
GASTEIGER

@<TRIPOS>ATOM
      1  N         38.5940   48.5320   22.8350 N.3     5  LYS5       -0.1231
      2  CA        38.3490   49.7410   21.9930 C.3     5  LYS5        0.1694
      3  C         38.9330   50.9920   22.6390 C.2     5  LYS5        0.2592
      4  O         38.9980   51.0970   23.8650 O.2     5  LYS5       -0.2718
      5  CB        36.8440   49.9210   21.7620 C.3     5  LYS5        0.0304
      6  N         39.3650   51.9330   21.8050 N.am    6  GLN6       -0.1966
      7  CA        39.9330   53.1910   22.2800 C.3     6  GLN6        0.1733
      8  C         39.4260   54.3170   21.4020 C.2     6  GLN6        0.2617
      9  O         39.5080   54.2410   20.1770 O.2     6  GLN6       -0.2715
     10  CB        41.4560   53.1570   22.2120 C.3     6  GLN6        0.0408
     11  CG        42.0890   52.3500   23.3000 C.3     6  GLN6        0.0908
     12  CD        43.2790   53.0410   23.9360 C.2     6  GLN6        0.2608
     13  OE1       43.3930   54.2750   23.9360 O.2     6  GLN6       -0.2717
     14  NE2       44.1730   52.2440   24.4960 N.am    6  GLN6       -0.0878
     15  N         38.9120   55.3670   22.0270 N.am    7  THR7       -0.1937
     16  CA        38.3850   56.4990   21.2800 C.3     7  THR7        0.2028
     17  C         38.9630   57.8170   21.7780 C.2     7  THR7        0.2643
     18  O         39.0670   58.0460   22.9800 O.2     7  THR7       -0.2714
     19  CB        36.8380   56.5550   21.3790 C.3     7  THR7        0.1808
     20  OG1       36.2870   55.3160   20.9180 O.3     7  THR7       -0.2208
     21  CG2       36.2810   57.6850   20.5370 C.3     7  THR7        0.0379
     22  N         39.3590   58.6740   20.8430 N.am    8  SER8       -0.1935
     23  CA        39.8930   59.9740   21.2040 C.3     8  SER8        0.2055
     24  C         38.7090   60.9440   21.2770 C.2     8  SER8        0.2644
     25  O         37.8530   60.9750   20.3850 O.2     8  SER8       -0.2714
     26  CB        40.9230   60.4350   20.1640 C.3     8  SER8        0.2130
     27  OG        40.5030   60.1330   18.8480 O.3     8  SER8       -0.2179
     28  N         38.6530   61.7240   22.3490 N.am    9  VAL9       -0.1941
     29  CA        37.5650   62.6740   22.5460 C.3     9  VAL9        0.1977
     30  C         38.0870   64.0770   22.8500 C.2     9  VAL9        0.3842
     31  O         37.2610   65.0060   22.9650 O.co2   9  VAL9       -0.2437
     32  CB        36.6490   62.2250   23.7120 C.3     9  VAL9        0.0311
     33  CG1       36.1030   60.8260   23.4460 C.3     9  VAL9        0.0023
     34  CG2       37.4270   62.2380   25.0110 C.3     9  VAL9        0.0023
     35  OXT       39.3150   64.2340   22.9830 O.co2   9  VAL9       -0.2437
@<TRIPOS>BOND
     1    27    26    1
     2    26    23    1
     3     9     8    2
     4    25    24    2
     5    21    19    1
     6    22    23    1
     7    22    17   am
     8    20    19    1
     9    23    24    1
    10    24    28   am
    11    16    19    1
    12    16    17    1
    13    16    15    1
    14     8    15   am
    15     8     7    1
    16     5     2    1
    17    17    18    2
    18     6     7    1
    19     6     3   am
    20     2     3    1
    21     2     1    1
    22    10     7    1
    23    10    11    1
    24    28    29    1
    25    29    30    1
    26    29    32    1
    27     3     4    2
    28    30    31   ar
    29    30    35   ar
    30    11    12    1
    31    33    32    1
    32    32    34    1
    33    13    12    2
    34    12    14   am
