@<TRIPOS>MOLECULE
1bej_HEM_A_1.pdb
 43 50 0 0 0
SMALL
GASTEIGER

@<TRIPOS>ATOM
      1 FE         -5.6050   57.0220   20.8050 Fe    296  HEM296      0.0000
      2  CHA       -5.7520   53.8140   22.0370 C.2   296  HEM296      0.0000
      3  CHB       -7.2320   58.1470   23.6550 C.2   296  HEM296      0.0000
      4  CHC       -5.8970   60.2480   19.6100 C.2   296  HEM296      0.0000
      5  CHD       -3.7600   56.1330   18.3120 C.2   296  HEM296      0.0000
      6  NA        -6.4530   56.1830   22.3540 N.2   296  HEM296      0.0000
      7  C1A       -6.0640   54.9260   22.7960 C.2   296  HEM296      0.0000
      8  C2A       -6.6510   54.6960   24.1060 C.2   296  HEM296      0.0000
      9  C3A       -7.3440   55.7870   24.4330 C.2   296  HEM296      0.0000
     10  C4A       -6.9870   56.8170   23.4710 C.2   296  HEM296      0.0000
     11  CMA       -8.1500   56.0010   25.7270 C.3   296  HEM296      0.0000
     12  CAA       -6.6800   53.3010   24.7700 C.3   296  HEM296      0.0000
     13  CBA       -5.4320   52.9680   25.6190 C.3   296  HEM296      0.0000
     14  CGA       -5.4160   51.6460   26.3500 C.2   296  HEM296      0.0000
     15  O1A       -6.1990   51.4960   27.3270 O.co2 296  HEM296      0.0000
     16  O2A       -4.5630   50.8360   25.9000 O.co2 296  HEM296      0.0000
     17  NB        -6.4870   58.7170   21.4110 N.ar  296  HEM296      0.0000
     18  C1B       -7.3360   58.8460   22.4800 C.ar  296  HEM296      0.0000
     19  C2B       -7.8770   60.1890   22.4800 C.ar  296  HEM296      0.0000
     20  C3B       -7.4650   60.7590   21.3630 C.ar  296  HEM296      0.0000
     21  C4B       -6.7620   59.7880   20.5830 C.ar  296  HEM296      0.0000
     22  CMB       -8.6240   60.8520   23.6590 C.3   296  HEM296      0.0000
     23  CAB       -7.9130   62.1000   20.7920 C.2   296  HEM296      0.0000
     24  CBB       -9.0690   62.5930   21.2040 C.2   296  HEM296      0.0000
     25  NC        -5.1240   57.9970   19.1650 N.2   296  HEM296      0.0000
     26  C1C       -5.1020   59.3600   18.9280 C.2   296  HEM296      0.0000
     27  C2C       -4.3960   59.5730   17.6820 C.2   296  HEM296      0.0000
     28  C3C       -3.6230   58.5200   17.5170 C.2   296  HEM296      0.0000
     29  C4C       -4.1830   57.4590   18.3350 C.2   296  HEM296      0.0000
     30  CMC       -4.1150   60.9360   16.9860 C.3   296  HEM296      0.0000
     31  CAC       -2.5130   58.2740   16.5030 C.2   296  HEM296      0.0000
     32  CBC       -2.4900   58.8910   15.3280 C.2   296  HEM296      0.0000
     33  ND        -4.5530   55.3450   20.5510 N.ar  296  HEM296      0.0000
     34  C1D       -4.0360   55.1880   19.2700 C.ar  296  HEM296      0.0000
     35  C2D       -3.7660   53.7750   19.0630 C.ar  296  HEM296      0.0000
     36  C3D       -4.3300   53.1090   20.0730 C.ar  296  HEM296      0.0000
     37  C4D       -4.9460   54.0800   20.9560 C.ar  296  HEM296      0.0000
     38  CMD       -2.9970   53.1920   17.8810 C.3   296  HEM296      0.0000
     39  CAD       -4.3470   51.5670   20.2820 C.3   296  HEM296      0.0000
     40  CBD       -3.2780   51.0890   21.2700 C.3   296  HEM296      0.0000
     41  CGD       -3.1290   49.6150   21.5770 C.2   296  HEM296      0.0000
     42  O1D       -2.4070   49.4530   22.5860 O.co2 296  HEM296      0.0000
     43  O2D       -3.6660   48.7270   20.8410 O.co2 296  HEM296      0.0000
@<TRIPOS>BOND
     1    32    31    2
     2    31    28    1
     3    30    27    1
     4    28    27    2
     5    28    29    1
     6    27    26    1
     7    38    35    1
     8     5    29    1
     9     5    34    2
    10    29    25    2
    11    26    25    1
    12    26     4    2
    13    35    34   ar
    14    35    36   ar
    15    25     1    1
    16    34    33   ar
    17     4    21    1
    18    36    39    1
    19    36    37   ar
    20    39    40    1
    21    33     1    1
    22    33    37   ar
    23    21    20   ar
    24    21    17   ar
    25    23    24    2
    26    23    20    1
    27     1    17    1
    28     1     6    1
    29    43    41   ar
    30    37     2    2
    31    40    41    1
    32    20    19   ar
    33    17    18   ar
    34    41    42   ar
    35     2     7    1
    36     6     7    2
    37     6    10    1
    38    19    18   ar
    39    19    22    1
    40    18     3    1
    41     7     8    1
    42    10     3    2
    43    10     9    1
    44     8     9    2
    45     8    12    1
    46     9    11    1
    47    12    13    1
    48    13    14    1
    49    16    14   ar
    50    14    15   ar
