@<TRIPOS>MOLECULE
1bek_HEM_A_1.pdb
 43 50 0 0 0
SMALL
GASTEIGER

@<TRIPOS>ATOM
      1 FE         -5.7770   56.9640   20.7780 Fe    296  HEM296      0.0000
      2  CHA       -5.3650   53.7920   22.1350 C.2   296  HEM296      0.0000
      3  CHB       -7.6050   57.9430   23.5500 C.2   296  HEM296      0.0000
      4  CHC       -5.8300   60.1640   19.7120 C.2   296  HEM296      0.0000
      5  CHD       -3.5390   56.0900   18.3480 C.2   296  HEM296      0.0000
      6  NA        -6.2350   56.1540   22.4210 N.2   296  HEM296      0.0000
      7  C1A       -6.0830   54.8020   22.7520 C.2   296  HEM296      0.0000
      8  C2A       -6.5670   54.5920   24.0850 C.2   296  HEM296      0.0000
      9  C3A       -7.2350   55.7050   24.4470 C.2   296  HEM296      0.0000
     10  C4A       -7.0550   56.6810   23.4200 C.2   296  HEM296      0.0000
     11  CMA       -8.1600   55.9340   25.6560 C.3   296  HEM296      0.0000
     12  CAA       -6.5510   53.1800   24.7200 C.3   296  HEM296      0.0000
     13  CBA       -5.4750   52.9700   25.8050 C.3   296  HEM296      0.0000
     14  CGA       -5.4470   51.6090   26.4700 C.2   296  HEM296      0.0000
     15  O1A       -6.3200   51.3330   27.3340 O.co2 296  HEM296      0.0000
     16  O2A       -4.4610   50.8760   26.2070 O.co2 296  HEM296      0.0000
     17  NB        -6.6250   58.6630   21.4410 N.ar  296  HEM296      0.0000
     18  C1B       -7.3100   58.8870   22.6120 C.ar  296  HEM296      0.0000
     19  C2B       -7.9670   60.1740   22.5380 C.ar  296  HEM296      0.0000
     20  C3B       -7.3960   60.8200   21.5160 C.ar  296  HEM296      0.0000
     21  C4B       -6.6930   59.8310   20.7270 C.ar  296  HEM296      0.0000
     22  CMB       -8.6670   60.8150   23.7460 C.3   296  HEM296      0.0000
     23  CAB       -7.7590   62.1930   20.9720 C.2   296  HEM296      0.0000
     24  CBB       -9.0390   62.4980   20.8150 C.2   296  HEM296      0.0000
     25  NC        -5.0170   57.8550   19.2690 N.2   296  HEM296      0.0000
     26  C1C       -5.0880   59.2300   19.0220 C.2   296  HEM296      0.0000
     27  C2C       -4.3500   59.5130   17.8240 C.2   296  HEM296      0.0000
     28  C3C       -3.5810   58.4500   17.5840 C.2   296  HEM296      0.0000
     29  C4C       -3.9450   57.4050   18.5160 C.2   296  HEM296      0.0000
     30  CMC       -4.1110   60.9190   17.2080 C.3   296  HEM296      0.0000
     31  CAC       -2.5430   58.2480   16.4980 C.2   296  HEM296      0.0000
     32  CBC       -2.5320   59.0070   15.4130 C.2   296  HEM296      0.0000
     33  ND        -4.5460   55.2590   20.4040 N.ar  296  HEM296      0.0000
     34  C1D       -3.9530   55.0770   19.1780 C.ar  296  HEM296      0.0000
     35  C2D       -3.5790   53.6790   19.0410 C.ar  296  HEM296      0.0000
     36  C3D       -4.0990   53.0340   20.0840 C.ar  296  HEM296      0.0000
     37  C4D       -4.7740   54.0140   20.9210 C.ar  296  HEM296      0.0000
     38  CMD       -3.0430   53.0620   17.7350 C.3   296  HEM296      0.0000
     39  CAD       -4.2090   51.5410   20.3620 C.3   296  HEM296      0.0000
     40  CBD       -3.0870   51.2010   21.3310 C.3   296  HEM296      0.0000
     41  CGD       -3.0410   49.7820   21.7940 C.2   296  HEM296      0.0000
     42  O1D       -2.3700   49.6600   22.8370 O.co2 296  HEM296      0.0000
     43  O2D       -3.6820   48.9030   21.1630 O.co2 296  HEM296      0.0000
@<TRIPOS>BOND
     1    32    31    2
     2    31    28    1
     3    30    27    1
     4    28    27    2
     5    28    29    1
     6    38    35    1
     7    27    26    1
     8     5    29    1
     9     5    34    2
    10    29    25    2
    11    26    25    1
    12    26     4    2
    13    35    34   ar
    14    35    36   ar
    15    34    33   ar
    16    25     1    1
    17     4    21    1
    18    36    39    1
    19    36    37   ar
    20    39    40    1
    21    33     1    1
    22    33    37   ar
    23    21    17   ar
    24    21    20   ar
    25     1    17    1
    26     1     6    1
    27    24    23    2
    28    37     2    2
    29    23    20    1
    30    43    41   ar
    31    40    41    1
    32    17    18   ar
    33    20    19   ar
    34    41    42   ar
    35     2     7    1
    36     6     7    2
    37     6    10    1
    38    19    18   ar
    39    19    22    1
    40    18     3    1
    41     7     8    1
    42    10     3    2
    43    10     9    1
    44     8     9    2
    45     8    12    1
    46     9    11    1
    47    12    13    1
    48    13    14    1
    49    16    14   ar
    50    14    15   ar
