@<TRIPOS>MOLECULE
1bem_HEM_A_1.pdb
 43 50 0 0 0
SMALL
GASTEIGER

@<TRIPOS>ATOM
      1 FE         -5.6250   56.8840   20.8770 Fe    296  HEM296      0.0000
      2  CHA       -5.6130   53.7690   22.0150 C.2   296  HEM296      0.0000
      3  CHB       -7.3770   57.9690   23.7420 C.2   296  HEM296      0.0000
      4  CHC       -5.9970   60.0570   19.6230 C.2   296  HEM296      0.0000
      5  CHD       -3.5170   56.0390   18.4140 C.2   296  HEM296      0.0000
      6  NA        -6.3500   56.1340   22.4200 N.2   296  HEM296      0.0000
      7  C1A       -6.2460   54.7760   22.7050 C.2   296  HEM296      0.0000
      8  C2A       -6.6120   54.5540   24.0780 C.2   296  HEM296      0.0000
      9  C3A       -7.3190   55.6320   24.4540 C.2   296  HEM296      0.0000
     10  C4A       -7.0790   56.6600   23.4670 C.2   296  HEM296      0.0000
     11  CMA       -8.1220   55.8950   25.7480 C.3   296  HEM296      0.0000
     12  CAA       -6.5950   53.1100   24.6740 C.3   296  HEM296      0.0000
     13  CBA       -5.4670   52.9020   25.7060 C.3   296  HEM296      0.0000
     14  CGA       -5.3990   51.5610   26.4140 C.2   296  HEM296      0.0000
     15  O1A       -6.3090   51.2540   27.2410 O.co2 296  HEM296      0.0000
     16  O2A       -4.3560   50.8640   26.2350 O.co2 296  HEM296      0.0000
     17  NB        -6.4840   58.6480   21.5620 N.ar  296  HEM296      0.0000
     18  C1B       -7.3520   58.7410   22.6180 C.ar  296  HEM296      0.0000
     19  C2B       -7.9260   60.0670   22.6410 C.ar  296  HEM296      0.0000
     20  C3B       -7.5020   60.6950   21.5450 C.ar  296  HEM296      0.0000
     21  C4B       -6.6900   59.7660   20.7840 C.ar  296  HEM296      0.0000
     22  CMB       -8.6450   60.6370   23.8650 C.3   296  HEM296      0.0000
     23  CAB       -7.9180   62.0710   21.0160 C.2   296  HEM296      0.0000
     24  CBB       -9.1640   62.5080   21.1310 C.2   296  HEM296      0.0000
     25  NC        -4.9540   57.8210   19.4020 N.2   296  HEM296      0.0000
     26  C1C       -5.0260   59.1950   19.1430 C.2   296  HEM296      0.0000
     27  C2C       -4.3300   59.4540   17.9030 C.2   296  HEM296      0.0000
     28  C3C       -3.5830   58.3840   17.6490 C.2   296  HEM296      0.0000
     29  C4C       -4.0720   57.3100   18.4760 C.2   296  HEM296      0.0000
     30  CMC       -4.3490   60.7820   17.1120 C.3   296  HEM296      0.0000
     31  CAC       -2.4250   58.2050   16.6670 C.2   296  HEM296      0.0000
     32  CBC       -2.5160   58.5940   15.4010 C.2   296  HEM296      0.0000
     33  ND        -4.4350   55.2110   20.4440 N.ar  296  HEM296      0.0000
     34  C1D       -3.9200   54.9910   19.1990 C.ar  296  HEM296      0.0000
     35  C2D       -3.5920   53.5630   19.0750 C.ar  296  HEM296      0.0000
     36  C3D       -4.2350   52.9430   20.0840 C.ar  296  HEM296      0.0000
     37  C4D       -4.8030   53.9760   20.9350 C.ar  296  HEM296      0.0000
     38  CMD       -2.9750   52.9110   17.8270 C.3   296  HEM296      0.0000
     39  CAD       -4.3570   51.4470   20.4440 C.3   296  HEM296      0.0000
     40  CBD       -3.1960   51.0440   21.3570 C.3   296  HEM296      0.0000
     41  CGD       -3.1860   49.6100   21.7810 C.2   296  HEM296      0.0000
     42  O1D       -2.5500   49.4240   22.8450 O.co2 296  HEM296      0.0000
     43  O2D       -3.7860   48.7820   21.0460 O.co2 296  HEM296      0.0000
@<TRIPOS>BOND
     1    32    31    2
     2    31    28    1
     3    30    27    1
     4    28    27    2
     5    28    29    1
     6    38    35    1
     7    27    26    1
     8     5    29    1
     9     5    34    2
    10    29    25    2
    11    35    34   ar
    12    35    36   ar
    13    26    25    1
    14    26     4    2
    15    34    33   ar
    16    25     1    1
    17     4    21    1
    18    36    39    1
    19    36    37   ar
    20    33     1    1
    21    33    37   ar
    22    39    40    1
    23    21    20   ar
    24    21    17   ar
    25     1    17    1
    26     1     6    1
    27    37     2    2
    28    23    24    2
    29    23    20    1
    30    43    41   ar
    31    40    41    1
    32    20    19   ar
    33    17    18   ar
    34    41    42   ar
    35     2     7    1
    36     6     7    2
    37     6    10    1
    38    18    19   ar
    39    18     3    1
    40    19    22    1
    41     7     8    1
    42    10     3    2
    43    10     9    1
    44     8     9    2
    45     8    12    1
    46     9    11    1
    47    12    13    1
    48    13    14    1
    49    16    14   ar
    50    14    15   ar
