@<TRIPOS>MOLECULE
1bep_CCH_A_1.pdb
 43 50 0 0 0
SMALL
GASTEIGER

@<TRIPOS>ATOM
      1 FE         -5.6820   57.0530   20.8520 Fe    296  CCH296      0.0000
      2  NA        -6.3160   56.2520   22.4620 N.2   296  CCH296      0.0000
      3  NB        -6.6730   58.6340   21.5350 N.ar  296  CCH296      0.0000
      4  NC        -4.9900   57.8580   19.2910 N.2   296  CCH296      0.0000
      5  ND        -4.5350   55.3860   20.4040 N.ar  296  CCH296      0.0000
      6  C1A       -6.1220   54.9040   22.7720 C.2   296  CCH296      0.0000
      7  CHA       -5.3710   53.9360   22.1390 C.2   296  CCH296      0.0000
      8  C4D       -4.6810   54.1420   20.9760 C.ar  296  CCH296      0.0000
      9  C1B       -7.4070   58.9030   22.6490 C.ar  296  CCH296      0.0000
     10  CHB       -7.5410   58.0560   23.7200 C.2   296  CCH296      0.0000
     11  C4A       -7.0810   56.7680   23.5010 C.2   296  CCH296      0.0000
     12  C1C       -5.1060   59.2200   19.0260 C.2   296  CCH296      0.0000
     13  CHC       -5.9420   60.1000   19.6790 C.2   296  CCH296      0.0000
     14  C4B       -6.7750   59.7410   20.7140 C.ar  296  CCH296      0.0000
     15  C1D       -3.9280   55.1810   19.1900 C.ar  296  CCH296      0.0000
     16  CHD       -3.4660   56.1460   18.3440 C.2   296  CCH296      0.0000
     17  C4C       -3.9950   57.4100   18.4530 C.2   296  CCH296      0.0000
     18  C2A       -6.5560   54.6780   24.1290 C.2   296  CCH296      0.0000
     19  CAA       -6.5380   53.2630   24.7400 C.3   296  CCH296      0.0000
     20  C3A       -7.2340   55.7690   24.5170 C.2   296  CCH296      0.0000
     21  CMA       -8.1530   55.9590   25.7380 C.3   296  CCH296      0.0000
     22  CBA       -5.5770   53.0980   25.9360 C.3   296  CCH296      0.0000
     23  CGA       -5.5030   51.7100   26.5360 C.2   296  CCH296      0.0000
     24  O1A       -6.3600   51.4010   27.4230 O.co2 296  CCH296      0.0000
     25  O2A       -4.5740   50.9730   26.1010 O.co2 296  CCH296      0.0000
     26  C2B       -7.9240   60.2550   22.5670 C.ar  296  CCH296      0.0000
     27  CMB       -8.7220   60.9650   23.6780 C.3   296  CCH296      0.0000
     28  C3B       -7.4340   60.7780   21.4440 C.ar  296  CCH296      0.0000
     29  CAB       -7.5280   62.1830   20.8540 C.2   296  CCH296      0.0000
     30  OBB       -8.5280   62.8360   21.0760 O.2   296  CCH296      0.0000
     31  C2C       -4.3560   59.5340   17.8330 C.2   296  CCH296      0.0000
     32  CMC       -4.1860   60.9500   17.2310 C.3   296  CCH296      0.0000
     33  C3C       -3.5800   58.4840   17.5910 C.2   296  CCH296      0.0000
     34  CAC       -2.4010   58.3430   16.6320 C.2   296  CCH296      0.0000
     35  CBC       -2.3810   58.9390   15.4530 C.2   296  CCH296      0.0000
     36  C2D       -3.5380   53.7930   19.0720 C.ar  296  CCH296      0.0000
     37  CMD       -2.9080   53.2060   17.7920 C.3   296  CCH296      0.0000
     38  C3D       -4.0040   53.1580   20.1480 C.ar  296  CCH296      0.0000
     39  CAD       -4.0770   51.6590   20.4370 C.3   296  CCH296      0.0000
     40  CBD       -3.0120   51.2540   21.4560 C.3   296  CCH296      0.0000
     41  CGD       -3.0230   49.7930   21.8050 C.2   296  CCH296      0.0000
     42  O1D       -2.2950   49.4780   22.7910 O.co2 296  CCH296      0.0000
     43  O2D       -3.7330   49.0460   21.0800 O.co2 296  CCH296      0.0000
@<TRIPOS>BOND
     1    35    34    2
     2    34    33    1
     3    32    31    1
     4    33    31    2
     5    33    17    1
     6    37    36    1
     7    31    12    1
     8    16    17    1
     9    16    15    2
    10    17     4    2
    11    12     4    1
    12    12    13    2
    13    36    15   ar
    14    36    38   ar
    15    15     5   ar
    16     4     1    1
    17    13    14    1
    18    38    39    1
    19    38     8   ar
    20     5     1    1
    21     5     8   ar
    22    39    40    1
    23    14    28   ar
    24    14     3   ar
    25     1     3    1
    26     1     2    1
    27    29    30    2
    28    29    28    1
    29     8     7    2
    30    43    41   ar
    31    28    26   ar
    32    40    41    1
    33     3     9   ar
    34    41    42   ar
    35     7     6    1
    36     2     6    2
    37     2    11    1
    38    26     9   ar
    39    26    27    1
    40     9    10    1
    41     6    18    1
    42    11    10    2
    43    11    20    1
    44    18    20    2
    45    18    19    1
    46    20    21    1
    47    19    22    1
    48    22    23    1
    49    25    23   ar
    50    23    24   ar
