@<TRIPOS>MOLECULE
1beq_HEM_A_1.pdb
 43 50 0 0 0
SMALL
GASTEIGER

@<TRIPOS>ATOM
      1 FE         -5.6030   56.8990   20.7870 Fe    296  HEM296      0.0000
      2  CHA       -5.6680   53.7120   22.0080 C.2   296  HEM296      0.0000
      3  CHB       -7.3830   58.0260   23.5970 C.2   296  HEM296      0.0000
      4  CHC       -5.9010   60.1010   19.5670 C.2   296  HEM296      0.0000
      5  CHD       -3.6420   56.0490   18.3530 C.2   296  HEM296      0.0000
      6  NA        -6.2930   56.1530   22.3200 N.2   296  HEM296      0.0000
      7  C1A       -6.0890   54.8440   22.6940 C.2   296  HEM296      0.0000
      8  C2A       -6.5970   54.6490   24.0100 C.2   296  HEM296      0.0000
      9  C3A       -7.4050   55.6650   24.2770 C.2   296  HEM296      0.0000
     10  C4A       -7.0500   56.7090   23.3460 C.2   296  HEM296      0.0000
     11  CMA       -8.0600   55.9030   25.6430 C.3   296  HEM296      0.0000
     12  CAA       -6.6670   53.2280   24.6180 C.3   296  HEM296      0.0000
     13  CBA       -5.5640   52.9610   25.6540 C.3   296  HEM296      0.0000
     14  CGA       -5.4900   51.5820   26.2790 C.2   296  HEM296      0.0000
     15  O1A       -6.2760   51.2470   27.1970 O.co2 296  HEM296      0.0000
     16  O2A       -4.4430   50.9170   26.0750 O.co2 296  HEM296      0.0000
     17  NB        -6.7060   58.5480   21.2810 N.ar  296  HEM296      0.0000
     18  C1B       -7.1670   58.8380   22.5210 C.ar  296  HEM296      0.0000
     19  C2B       -7.7500   60.1600   22.5260 C.ar  296  HEM296      0.0000
     20  C3B       -7.5060   60.6980   21.3280 C.ar  296  HEM296      0.0000
     21  C4B       -6.8200   59.7040   20.5270 C.ar  296  HEM296      0.0000
     22  CMB       -8.4810   60.7230   23.7420 C.3   296  HEM296      0.0000
     23  CAB       -7.7800   62.1260   20.8620 C.2   296  HEM296      0.0000
     24  CBB       -8.8870   62.7580   21.2530 C.2   296  HEM296      0.0000
     25  NC        -5.0640   57.8950   19.1690 N.2   296  HEM296      0.0000
     26  C1C       -4.9860   59.2620   18.9860 C.2   296  HEM296      0.0000
     27  C2C       -4.1680   59.5070   17.7860 C.2   296  HEM296      0.0000
     28  C3C       -3.4910   58.3660   17.5570 C.2   296  HEM296      0.0000
     29  C4C       -4.1090   57.3440   18.3540 C.2   296  HEM296      0.0000
     30  CMC       -3.9750   60.8470   17.0610 C.3   296  HEM296      0.0000
     31  CAC       -2.5900   57.9390   16.4020 C.2   296  HEM296      0.0000
     32  CBC       -2.4420   58.5990   15.2520 C.2   296  HEM296      0.0000
     33  ND        -4.6830   55.3010   20.4560 N.ar  296  HEM296      0.0000
     34  C1D       -4.0520   55.0910   19.2400 C.ar  296  HEM296      0.0000
     35  C2D       -3.5460   53.7460   19.2220 C.ar  296  HEM296      0.0000
     36  C3D       -4.1800   53.0860   20.1660 C.ar  296  HEM296      0.0000
     37  C4D       -4.7410   54.0650   21.0710 C.ar  296  HEM296      0.0000
     38  CMD       -2.7240   53.0990   18.0780 C.3   296  HEM296      0.0000
     39  CAD       -4.3270   51.5700   20.3520 C.3   296  HEM296      0.0000
     40  CBD       -3.1560   51.1120   21.2390 C.3   296  HEM296      0.0000
     41  CGD       -3.0940   49.7020   21.7550 C.2   296  HEM296      0.0000
     42  O1D       -2.3980   49.4730   22.7940 O.co2 296  HEM296      0.0000
     43  O2D       -3.6210   48.7690   21.1110 O.co2 296  HEM296      0.0000
@<TRIPOS>BOND
     1    32    31    2
     2    31    28    1
     3    30    27    1
     4    28    27    2
     5    28    29    1
     6    27    26    1
     7    38    35    1
     8     5    29    1
     9     5    34    2
    10    29    25    2
    11    26    25    1
    12    26     4    2
    13    25     1    1
    14    35    34   ar
    15    35    36   ar
    16    34    33   ar
    17     4    21    1
    18    36    39    1
    19    36    37   ar
    20    39    40    1
    21    33     1    1
    22    33    37   ar
    23    21    17   ar
    24    21    20   ar
    25     1    17    1
    26     1     6    1
    27    23    24    2
    28    23    20    1
    29    37     2    2
    30    43    41   ar
    31    40    41    1
    32    17    18   ar
    33    20    19   ar
    34    41    42   ar
    35     2     7    1
    36     6     7    2
    37     6    10    1
    38    18    19   ar
    39    18     3    1
    40    19    22    1
    41     7     8    1
    42    10     3    2
    43    10     9    1
    44     8     9    2
    45     8    12    1
    46     9    11    1
    47    12    13    1
    48    13    14    1
    49    16    14   ar
    50    14    15   ar
