@<TRIPOS>MOLECULE
1bes_HEM_A_1.pdb
 43 50 0 0 0
SMALL
GASTEIGER

@<TRIPOS>ATOM
      1 FE         -5.6660   56.9070   20.9140 Fe    296  HEM296      0.0000
      2  CHA       -5.6830   53.6680   22.0590 C.2   296  HEM296      0.0000
      3  CHB       -7.4550   57.9570   23.6230 C.2   296  HEM296      0.0000
      4  CHC       -5.9170   60.0370   19.6130 C.2   296  HEM296      0.0000
      5  CHD       -3.5820   55.9680   18.4430 C.2   296  HEM296      0.0000
      6  NA        -6.3210   56.1050   22.3730 N.2   296  HEM296      0.0000
      7  C1A       -6.0780   54.7820   22.7550 C.2   296  HEM296      0.0000
      8  C2A       -6.6400   54.5610   24.0670 C.2   296  HEM296      0.0000
      9  C3A       -7.3340   55.6470   24.3930 C.2   296  HEM296      0.0000
     10  C4A       -7.0780   56.6600   23.4040 C.2   296  HEM296      0.0000
     11  CMA       -8.0630   55.9200   25.7280 C.3   296  HEM296      0.0000
     12  CAA       -6.6600   53.1440   24.7060 C.3   296  HEM296      0.0000
     13  CBA       -5.6340   52.9800   25.8470 C.3   296  HEM296      0.0000
     14  CGA       -5.5150   51.6320   26.5440 C.2   296  HEM296      0.0000
     15  O1A       -6.3090   51.3320   27.4770 O.co2 296  HEM296      0.0000
     16  O2A       -4.5180   50.9030   26.2720 O.co2 296  HEM296      0.0000
     17  NB        -6.5310   58.6160   21.4830 N.ar  296  HEM296      0.0000
     18  C1B       -7.1140   58.8930   22.6830 C.ar  296  HEM296      0.0000
     19  C2B       -7.7850   60.1600   22.5980 C.ar  296  HEM296      0.0000
     20  C3B       -7.4240   60.7310   21.4520 C.ar  296  HEM296      0.0000
     21  C4B       -6.7360   59.7080   20.6820 C.ar  296  HEM296      0.0000
     22  CMB       -8.4600   60.8160   23.8110 C.3   296  HEM296      0.0000
     23  CAB       -7.7160   62.1180   20.9180 C.2   296  HEM296      0.0000
     24  CBB       -8.7910   62.8060   21.3000 C.2   296  HEM296      0.0000
     25  NC        -5.0040   57.7310   19.3940 N.2   296  HEM296      0.0000
     26  C1C       -5.0090   59.1120   19.1700 C.2   296  HEM296      0.0000
     27  C2C       -4.2840   59.3820   17.9370 C.2   296  HEM296      0.0000
     28  C3C       -3.5570   58.3000   17.6930 C.2   296  HEM296      0.0000
     29  C4C       -3.9450   57.2650   18.6310 C.2   296  HEM296      0.0000
     30  CMC       -4.1250   60.7720   17.2860 C.3   296  HEM296      0.0000
     31  CAC       -2.3930   58.1540   16.7060 C.2   296  HEM296      0.0000
     32  CBC       -2.4380   58.6560   15.4760 C.2   296  HEM296      0.0000
     33  ND        -4.7440   55.1810   20.4910 N.ar  296  HEM296      0.0000
     34  C1D       -3.9600   55.0360   19.3710 C.ar  296  HEM296      0.0000
     35  C2D       -3.6780   53.6420   19.1790 C.ar  296  HEM296      0.0000
     36  C3D       -4.2180   52.9750   20.1960 C.ar  296  HEM296      0.0000
     37  C4D       -4.7410   53.9640   21.1170 C.ar  296  HEM296      0.0000
     38  CMD       -2.9100   53.0780   17.9710 C.3   296  HEM296      0.0000
     39  CAD       -4.2450   51.4720   20.4480 C.3   296  HEM296      0.0000
     40  CBD       -3.2400   51.1400   21.5420 C.3   296  HEM296      0.0000
     41  CGD       -3.0710   49.6760   21.8730 C.2   296  HEM296      0.0000
     42  O1D       -2.3850   49.4870   22.9130 O.co2 296  HEM296      0.0000
     43  O2D       -3.6280   48.8530   21.0950 O.co2 296  HEM296      0.0000
@<TRIPOS>BOND
     1    32    31    2
     2    31    28    1
     3    30    27    1
     4    28    27    2
     5    28    29    1
     6    27    26    1
     7    38    35    1
     8     5    29    1
     9     5    34    2
    10    29    25    2
    11    26    25    1
    12    26     4    2
    13    35    34   ar
    14    35    36   ar
    15    34    33   ar
    16    25     1    1
    17     4    21    1
    18    36    39    1
    19    36    37   ar
    20    39    40    1
    21    33     1    1
    22    33    37   ar
    23    21    20   ar
    24    21    17   ar
    25     1    17    1
    26     1     6    1
    27    23    24    2
    28    23    20    1
    29    43    41   ar
    30    37     2    2
    31    20    19   ar
    32    17    18   ar
    33    40    41    1
    34    41    42   ar
    35     2     7    1
    36     6     7    2
    37     6    10    1
    38    19    18   ar
    39    19    22    1
    40    18     3    1
    41     7     8    1
    42    10     3    2
    43    10     9    1
    44     8     9    2
    45     8    12    1
    46     9    11    1
    47    12    13    1
    48    13    14    1
    49    16    14   ar
    50    14    15   ar
