@<TRIPOS>MOLECULE
1beu_PLS_B_1.pdb
 22 22 0 0 0
SMALL
GASTEIGER

@<TRIPOS>ATOM
      1  N         80.0330   17.3900   10.4820 N.2   398  PLS398     -0.2567
      2  CA        78.7070   18.0980   10.4170 C.3   398  PLS398      0.2384
      3  CB        78.7380   19.5010   10.9250 C.3   398  PLS398      0.2178
      4  OG        77.8840   19.8430   12.0180 O.3   398  PLS398     -0.2176
      5  C         78.0550   18.0880    8.9410 C.2   398  PLS398      0.3893
      6  O         78.6800   17.6650    7.9850 O.co2 398  PLS398     -0.2434
      7  OXT       76.9400   18.6250    8.7020 O.co2 398  PLS398     -0.2434
      8  N1        83.9340   13.8110   11.7450 N.ar  398  PLS398     -0.2452
      9  C2        83.8980   14.4970   10.5230 C.ar  398  PLS398      0.0981
     10  C2A       85.0410   14.3780    9.5690 C.3   398  PLS398      0.0555
     11  C3        82.7340   15.3850   10.2560 C.ar  398  PLS398      0.2103
     12  O3        82.6050   16.2190    9.1960 O.3   398  PLS398     -0.2853
     13  C4        81.7080   15.5330   11.3770 C.ar  398  PLS398      0.0587
     14  C4A       80.4510   16.4030   11.2840 C.2   398  PLS398      0.0968
     15  C5        81.8450   14.7660   12.5810 C.ar  398  PLS398      0.0316
     16  C6        83.0070   13.9240   12.7690 C.ar  398  PLS398      0.0968
     17  C5A       80.8400   14.9300   13.7180 C.3   398  PLS398      0.1819
     18  O4P       79.6440   14.1320   13.6140 O.3   398  PLS398     -0.2653
     19  P         79.4860   12.7690   13.9190 P.3   398  PLS398      0.5329
     20  O1P       79.6120   12.7250   15.4160 O.3   398  PLS398     -0.1145
     21  O2P       78.1110   12.5380   13.5810 O.3   398  PLS398     -0.1145
     22  O3P       80.2240   11.6640   13.4910 O.2   398  PLS398     -0.2224
@<TRIPOS>BOND
     1     6     5   ar
     2     7     5   ar
     3     5     2    1
     4    12    11    1
     5    10     9    1
     6    11     9   ar
     7    11    13   ar
     8     2     1    1
     9     2     3    1
    10     1    14    2
    11     9     8   ar
    12     3     4    1
    13    14    13    1
    14    13    15   ar
    15     8    16   ar
    16    15    16   ar
    17    15    17    1
    18    22    19    2
    19    21    19    1
    20    18    17    1
    21    18    19    1
    22    19    20    1
