@<TRIPOS>MOLECULE
1beu_IPL_A_1.pdb
 17 18 0 0 0
SMALL
GASTEIGER

@<TRIPOS>ATOM
      1  N1        51.8200   27.9470   15.3430 N.2   273  IPL273     -0.2442
      2  C2        50.4830   28.4430   15.3960 C.2   273  IPL273      0.0946
      3  C3        49.6480   27.4090   15.1490 C.2   273  IPL273     -0.0018
      4  C4        50.1550   24.8390   14.8360 C.2   273  IPL273     -0.0202
      5  C5        51.2770   23.9300   14.8980 C.3   273  IPL273      0.0521
      6  C6        52.6070   24.3950   15.0260 C.2   273  IPL273     -0.0199
      7  C7        52.8930   25.7800   15.1170 C.2   273  IPL273      0.0148
      8  C8        51.8110   26.6750   15.0680 C.2   273  IPL273      0.0804
      9  C9        50.4300   26.2550   14.9290 C.2   273  IPL273      0.0112
     10  C1'       47.8360   27.8670   12.4390 C.3   273  IPL273      0.1541
     11  C2'       47.5620   27.9700   13.9020 C.3   273  IPL273      0.0374
     12  C3'       48.1310   27.4420   15.1800 C.3   273  IPL273      0.0306
     13  P         48.2040   29.3060   10.2800 P.3   273  IPL273      0.5326
     14  O1P       48.1040   28.1190    9.3880 O.2   273  IPL273     -0.2224
     15  O2P       47.0310   30.2680    9.8710 O.3   273  IPL273     -0.1145
     16  O3P       49.5100   29.9800   10.3240 O.3   273  IPL273     -0.1145
     17  O4P       47.9770   28.9360   11.7420 O.3   273  IPL273     -0.2702
@<TRIPOS>BOND
     1    14    13    2
     2    15    13    1
     3    13    16    1
     4    13    17    1
     5    17    10    1
     6    10    11    1
     7    11    12    1
     8     4     5    1
     9     4     9    2
    10     5     6    1
    11     9     8    1
    12     9     3    1
    13     6     7    2
    14     8     7    1
    15     8     1    2
    16     3    12    1
    17     3     2    2
    18     1     2    1
