@<TRIPOS>MOLECULE
1bev_MYR_1_1.pdb
 16 15 0 0 0
SMALL
GASTEIGER

@<TRIPOS>ATOM
      1  C1       200.6010    1.9390  141.3560 C.2   900  MYR900      0.3649
      2  O1       201.5800    1.3470  140.8620 O.co2 900  MYR900     -0.2457
      3  O2       200.6250    2.4940  142.4610 O.co2 900  MYR900     -0.2457
      4  C2       199.3230    2.0050  140.5840 C.3   900  MYR900      0.1141
      5  C3       199.0040    3.4120  140.0790 C.3   900  MYR900      0.0118
      6  C4       198.0620    4.1990  141.0160 C.3   900  MYR900      0.0006
      7  C5       197.3770    5.3730  140.2560 C.3   900  MYR900      0.0000
      8  C6       196.6040    6.3840  141.1650 C.3   900  MYR900      0.0000
      9  C7       196.2350    7.6610  140.3900 C.3   900  MYR900      0.0000
     10  C8       195.8200    8.8310  141.3080 C.3   900  MYR900      0.0000
     11  C9       196.0490   10.2430  140.7270 C.3   900  MYR900      0.0000
     12  C10      195.6640   11.2540  141.7940 C.3   900  MYR900      0.0000
     13  C11      195.7510   12.7470  141.4880 C.3   900  MYR900      0.0000
     14  C12      194.9230   13.4630  142.5930 C.3   900  MYR900      0.0000
     15  C13      195.3530   14.8880  142.9830 C.3   900  MYR900      0.0000
     16  C14      194.6220   15.3360  144.3010 C.3   900  MYR900      0.0000
@<TRIPOS>BOND
     1     5     4    1
     2     5     6    1
     3     7     6    1
     4     7     8    1
     5     9     8    1
     6     9    10    1
     7     4     1    1
     8    11    10    1
     9    11    12    1
    10     2     1   ar
    11     1     3   ar
    12    13    12    1
    13    13    14    1
    14    14    15    1
    15    15    16    1
