@<TRIPOS>MOLECULE
1bex_RBU_A_1.pdb
 30 36 0 0 0
SMALL
GASTEIGER

@<TRIPOS>ATOM
      1  C1         9.0960   -4.1250   18.5500 C.3   130  RBU130      0.0000
      2  C2        10.1070   -4.7520   17.8310 C.2   130  RBU130      0.0000
      3  C3        10.5570   -4.1770   16.6560 C.2   130  RBU130      0.0000
      4  C4        10.0030   -2.9950   16.1970 C.2   130  RBU130      0.0000
      5  C5         8.9880   -2.3880   16.9270 C.2   130  RBU130      0.0000
      6 RU          7.0120   -1.9020   19.0020 Ru    130  RBU130      0.0000
      7  N1         8.5480   -2.9520   18.0950 N.pl3 130  RBU130      0.0000
      8  N2         7.3550   -0.7270   17.3250 N.pl3 130  RBU130      0.0000
      9  N3         8.0110   -0.6990   20.2960 N.pl3 130  RBU130      0.0000
     10  N4         6.9170   -3.0650   20.7080 N.pl3 130  RBU130      0.0000
     11  N5         6.0000   -3.0170   17.4880 N.ar  130  RBU130      0.0000
     12  N6         5.2250   -4.6990   16.2450 N.ar  130  RBU130      0.0000
     13  C6         8.3550   -1.2060   16.5160 C.3   130  RBU130      0.0000
     14  C7         8.6890   -0.5430   15.3510 C.2   130  RBU130      0.0000
     15  C8         7.9880    0.6030   15.0080 C.2   130  RBU130      0.0000
     16  C9         6.9650    1.0740   15.8200 C.2   130  RBU130      0.0000
     17  C10        6.6560    0.3980   16.9830 C.2   130  RBU130      0.0000
     18  C11        8.5470    0.5170   19.9830 C.3   130  RBU130      0.0000
     19  C12        9.2100    1.2450   20.9420 C.2   130  RBU130      0.0000
     20  C13        9.3190    0.7240   22.2120 C.2   130  RBU130      0.0000
     21  C14        8.7750   -0.5120   22.5320 C.2   130  RBU130      0.0000
     22  C15        8.1080   -1.2220   21.5500 C.2   130  RBU130      0.0000
     23  C16        7.5290   -2.4800   21.7730 C.3   130  RBU130      0.0000
     24  C17        7.5640   -3.1290   22.9970 C.2   130  RBU130      0.0000
     25  C18        6.9670   -4.3710   23.1030 C.2   130  RBU130      0.0000
     26  C19        6.3460   -4.9590   22.0090 C.2   130  RBU130      0.0000
     27  C20        6.3310   -4.2900   20.8060 C.2   130  RBU130      0.0000
     28  C21        5.9580   -4.3260   17.3190 C.ar  130  RBU130      0.0000
     29  C22        4.7610   -3.5780   15.6780 C.ar  130  RBU130      0.0000
     30  C23        5.2250   -2.5400   16.4270 C.ar  130  RBU130      0.0000
@<TRIPOS>BOND
     1    15    14    2
     2    15    16    1
     3    14    13    1
     4    29    12   ar
     5    29    30   ar
     6    16    17    2
     7     4     3    1
     8     4     5    2
     9    12    28   ar
    10    30    11   ar
    11    13     5    1
    12    13     8    1
    13     3     2    2
    14     5     7    1
    15    17     8    1
    16    28    11   ar
    17     8     6    1
    18    11     6    1
    19     2     1    1
    20     7     1    1
    21     7     6    1
    22     6     9    1
    23     6    10    1
    24    18     9    1
    25    18    19    1
    26     9    22    1
    27    10    27    1
    28    10    23    1
    29    27    26    2
    30    19    20    2
    31    22    23    1
    32    22    21    2
    33    23    24    1
    34    26    25    1
    35    20    21    1
    36    24    25    2
