@<TRIPOS>MOLECULE
1bf3_PHB_A_1.pdb
 10 10 0 0 0
SMALL
GASTEIGER

@<TRIPOS>ATOM
      1  C1'       17.2660   96.5060   45.6140 C.2   396  PHB396      0.3878
      2  O1'       16.2850   97.1340   45.1660 O.co2 396  PHB396     -0.2406
      3  O2'       18.2350   97.1080   46.1090 O.co2 396  PHB396     -0.2406
      4  C1        17.3310   95.0800   45.6070 C.ar  396  PHB396      0.0800
      5  C2        16.3010   94.3390   45.0600 C.ar  396  PHB396      0.0099
      6  C3        16.3240   92.9470   45.0260 C.ar  396  PHB396      0.0422
      7  C4        17.4050   92.2850   45.5460 C.ar  396  PHB396      0.1958
      8  C5        18.4660   92.9750   46.1040 C.ar  396  PHB396      0.0422
      9  C6        18.4140   94.3570   46.1280 C.ar  396  PHB396      0.0099
     10  O4        17.3970   90.9760   45.5090 O.3   396  PHB396     -0.2866
@<TRIPOS>BOND
     1     6     5   ar
     2     6     7   ar
     3     5     4   ar
     4     2     1   ar
     5    10     7    1
     6     7     8   ar
     7     4     1    1
     8     4     9   ar
     9     1     3   ar
    10     8     9   ar
