@<TRIPOS>MOLECULE
1bfb_SGN_A_1.pdb
 20 20 0 0 0
SMALL
GASTEIGER

@<TRIPOS>ATOM
      1  C1         5.1490    1.7140   51.1110 C.3   302  SGN302      0.2895
      2  C2         5.7530    0.6710   50.2020 C.3   302  SGN302      0.1858
      3  C3         5.9930   -0.6020   50.9470 C.3   302  SGN302      0.2073
      4  C4         6.8130   -0.2700   52.1640 C.3   302  SGN302      0.2133
      5  C5         6.0570    0.7150   53.0450 C.3   302  SGN302      0.1826
      6  C6         6.8990    1.1320   54.2210 C.3   302  SGN302      0.2046
      7  N          4.7600    0.4050   49.2060 N.3   302  SGN302     -0.1129
      8  O1         3.8060    1.4530   51.4250 O.3   302  SGN302     -0.1882
      9  O3         6.7420   -1.5050   50.1650 O.3   302  SGN302     -0.2186
     10  O4         6.9530   -1.4920   52.8530 O.3   302  SGN302     -0.2176
     11  O5         5.9140    1.8730   52.2840 O.3   302  SGN302     -0.3245
     12  O6         8.0750    1.6770   53.6340 O.3   302  SGN302     -0.2384
     13  S1         5.0330    1.2740   47.7030 S.3   302  SGN302     -0.1288
     14  O1S        4.2180    0.6640   46.6670 O.3   302  SGN302     -0.2918
     15  O2S        6.3960    1.1120   47.3260 O.3   302  SGN302     -0.2918
     16  O3S        4.6930    2.6490   47.9960 O.3   302  SGN302     -0.2918
     17  S2         9.1940    2.5710   54.6420 S.3   302  SGN302     -0.0001
     18  O4S       10.0480    3.3890   53.8490 O.2   302  SGN302     -0.3452
     19  O5S        9.9990    1.6320   55.3760 O.2   302  SGN302     -0.3452
     20  O6S        8.3900    3.4070   55.4950 O.3   302  SGN302     -0.2682
@<TRIPOS>BOND
     1    14    13    1
     2    15    13    1
     3    13    16    1
     4    13     7    1
     5     7     2    1
     6     9     3    1
     7     2     3    1
     8     2     1    1
     9     3     4    1
    10     1     8    1
    11     1    11    1
    12     4    10    1
    13     4     5    1
    14    11     5    1
    15     5     6    1
    16    12     6    1
    17    12    17    1
    18    18    17    2
    19    17    19    2
    20    17    20    1
