@<TRIPOS>MOLECULE
1bfb_IDS_A_1.pdb
 15 15 0 0 0
SMALL
GASTEIGER

@<TRIPOS>ATOM
      1  C1         0.4900    1.2030   51.8650 C.3   303  IDS303      0.1772
      2  C2         1.1230    1.3510   50.4750 C.3   303  IDS303      0.2028
      3  C3         1.9990    2.5920   50.2910 C.3   303  IDS303      0.1868
      4  C4         2.9940    2.6360   51.4400 C.3   303  IDS303      0.0768
      5  C5         2.2280    2.6300   52.7490 C.3   303  IDS303      0.2204
      6  C6         3.2290    2.7200   53.8700 C.2   303  IDS303      0.3914
      7  O2         1.8840    0.2300   50.1870 O.3   303  IDS303     -0.2385
      8  O3         1.2400    3.7680   50.2460 O.3   303  IDS303     -0.2203
      9  O5         1.5150    1.3840   52.8510 O.3   303  IDS303     -0.3422
     10  O61        4.0300    3.6700   53.8400 O.co2 303  IDS303     -0.2430
     11  O62        3.3360    1.7470   54.6340 O.co2 303  IDS303     -0.2430
     12  S          1.1190   -0.8850   49.1300 S.3   303  IDS303     -0.0001
     13  O1S        1.9940   -2.0130   48.9910 O.2   303  IDS303     -0.3452
     14  O2S        0.8730   -0.2650   47.8480 O.2   303  IDS303     -0.3452
     15  O3S       -0.1500   -1.2200   49.6330 O.3   303  IDS303     -0.2682
@<TRIPOS>BOND
     1    14    12    2
     2    13    12    2
     3    12    15    1
     4    12     7    1
     5     7     2    1
     6     8     3    1
     7     3     2    1
     8     3     4    1
     9     2     1    1
    10     4     5    1
    11     1     9    1
    12     5     9    1
    13     5     6    1
    14    10     6   ar
    15     6    11   ar
