@<TRIPOS>MOLECULE
1bfc_IDS_A_1.pdb
 15 15 0 0 0
SMALL
GASTEIGER

@<TRIPOS>ATOM
      1  C1         2.9610    1.1340   51.7220 C.3   303  IDS303      0.1772
      2  C2         3.3230    1.2940   50.2450 C.3   303  IDS303      0.2028
      3  C3         4.0830    2.5450   49.9190 C.3   303  IDS303      0.1868
      4  C4         5.2690    2.6940   50.8940 C.3   303  IDS303      0.0768
      5  C5         4.6820    2.6470   52.2980 C.3   303  IDS303      0.2204
      6  C6         5.6670    2.9630   53.3670 C.2   303  IDS303      0.3914
      7  O2         4.0270    0.2040   49.8490 O.3   303  IDS303     -0.2385
      8  O3         3.2080    3.6170   50.0180 O.3   303  IDS303     -0.2203
      9  O5         4.1160    1.3530   52.5410 O.3   303  IDS303     -0.3422
     10  O61        6.3210    3.9930   53.2870 O.co2 303  IDS303     -0.2430
     11  O62        5.6150    2.2720   54.3620 O.co2 303  IDS303     -0.2430
     12  S          3.0370   -0.9580   49.0770 S.3   303  IDS303     -0.0001
     13  O1S        3.8350   -2.0990   48.8550 O.2   303  IDS303     -0.3452
     14  O2S        2.6170   -0.3450   47.8730 O.2   303  IDS303     -0.3452
     15  O3S        1.8460   -1.2630   49.7780 O.3   303  IDS303     -0.2682
@<TRIPOS>BOND
     1    14    12    2
     2    13    12    2
     3    12    15    1
     4    12     7    1
     5     7     2    1
     6     3     8    1
     7     3     2    1
     8     3     4    1
     9     2     1    1
    10     4     5    1
    11     1     9    1
    12     5     9    1
    13     5     6    1
    14    10     6   ar
    15     6    11   ar
