@<TRIPOS>MOLECULE
1bfc_SGN_A_1.pdb
 20 20 0 0 0
SMALL
GASTEIGER

@<TRIPOS>ATOM
      1  C1         7.4940    1.8470   50.3880 C.3   302  SGN302      0.2895
      2  C2         8.0080    0.6590   49.5770 C.3   302  SGN302      0.1858
      3  C3         8.1710   -0.5810   50.4310 C.3   302  SGN302      0.2073
      4  C4         9.0680   -0.3130   51.6030 C.3   302  SGN302      0.2133
      5  C5         8.4580    0.8740   52.3480 C.3   302  SGN302      0.1826
      6  C6         9.3120    1.2480   53.5030 C.3   302  SGN302      0.2046
      7  N          6.9450    0.2980   48.6880 N.3   302  SGN302     -0.1129
      8  O1         6.1510    1.5790   50.7860 O.3   302  SGN302     -0.1882
      9  O3         8.7420   -1.6230   49.6740 O.3   302  SGN302     -0.2186
     10  O4         8.9290   -1.4780   52.4170 O.3   302  SGN302     -0.2176
     11  O5         8.3690    2.0170   51.5050 O.3   302  SGN302     -0.3245
     12  O6        10.6270    1.0150   53.1000 O.3   302  SGN302     -0.2384
     13  S1         6.8050    1.1920   47.2060 S.3   302  SGN302     -0.1288
     14  O1S        5.8170    0.5770   46.3850 O.3   302  SGN302     -0.2918
     15  O2S        8.0530    1.1870   46.5780 O.3   302  SGN302     -0.2918
     16  O3S        6.4640    2.5310   47.5080 O.3   302  SGN302     -0.2918
     17  S2        11.7690    2.0130   53.8980 S.3   302  SGN302     -0.0001
     18  O4S       12.9420    2.0980   53.1070 O.2   302  SGN302     -0.3452
     19  O5S       12.0720    1.3960   55.1390 O.3   302  SGN302     -0.2682
     20  O6S       11.1370    3.2810   54.1460 O.2   302  SGN302     -0.3452
@<TRIPOS>BOND
     1    14    13    1
     2    15    13    1
     3    13    16    1
     4    13     7    1
     5     7     2    1
     6     2     1    1
     7     2     3    1
     8     9     3    1
     9     1     8    1
    10     1    11    1
    11     3     4    1
    12    11     5    1
    13     4     5    1
    14     4    10    1
    15     5     6    1
    16    12     6    1
    17    12    17    1
    18    18    17    2
    19    17    20    2
    20    17    19    1
