@<TRIPOS>MOLECULE
1bfd_TPP_A_1.pdb
 26 27 0 0 0
SMALL
GASTEIGER

@<TRIPOS>ATOM
      1  N1'       92.3700   46.0630  160.8130 N.2   530  TPP530     -0.1861
      2  C2'       91.7540   44.9540  160.3900 C.1   530  TPP530      0.0663
      3  CM2       90.2510   45.0780  160.1100 C.3   530  TPP530      0.1291
      4  N3'       92.3780   43.7950  160.1730 N.2   530  TPP530     -0.3368
      5  C4'       93.7170   43.7980  160.3670 C.2   530  TPP530      0.2292
      6  N4'       94.3650   42.6820  159.9270 N.pl3 530  TPP530     -0.0925
      7  C5'       94.4450   44.9160  160.8230 C.2   530  TPP530      0.0654
      8  C6'       93.6820   46.0630  161.0430 C.2   530  TPP530      0.1115
      9  C7'       95.9590   44.8740  160.9920 C.3   530  TPP530      0.1237
     10  N3        96.4460   43.9360  162.0260 N.pl3 530  TPP530     -0.2970
     11  C2        96.8620   42.6470  161.7360 C.3   530  TPP530      0.1543
     12  S1        97.3130   41.7960  163.2170 S.3   530  TPP530     -0.0951
     13  C5        96.9290   43.2090  164.1600 C.2   530  TPP530      0.0164
     14  C4        96.4730   44.2830  163.4550 C.2   530  TPP530      0.0279
     15  CM4       95.8930   45.5970  163.9990 C.3   530  TPP530      0.0473
     16  C6        97.2450   43.0570  165.6320 C.3   530  TPP530      0.0661
     17  C7        96.1390   42.3340  166.4340 C.3   530  TPP530      0.1544
     18  O7        96.4420   42.5650  167.8100 O.3   530  TPP530     -0.3134
     19  PA        96.0550   41.5450  168.8830 P.3   530  TPP530      0.2230
     20  O1A       94.6620   41.0160  168.6150 O.2   530  TPP530     -0.5169
     21  O2A       96.1020   42.2500  170.2090 O.3   530  TPP530     -0.4370
     22  O3A       97.0160   40.3520  168.8950 O.3   530  TPP530     -0.2261
     23  PB        98.5790   40.1810  168.9290 P.3   530  TPP530      0.5373
     24  O1B       99.0450   41.0740  170.0810 O.3   530  TPP530     -0.1143
     25  O2B       98.6840   38.6990  169.2530 O.3   530  TPP530     -0.1143
     26  O3B       99.2130   40.5610  167.6410 O.2   530  TPP530     -0.2221
@<TRIPOS>BOND
     1     6     5    1
     2     3     2    1
     3     4     5    2
     4     4     2    2
     5     5     7    1
     6     2     1    2
     7     1     8    1
     8     7     9    1
     9     7     8    2
    10     9    10    1
    11    11    10    1
    12    11    12    1
    13    10    14    1
    14    12    13    1
    15    14    15    1
    16    14    13    2
    17    13    16    1
    18    16    17    1
    19    17    18    1
    20    26    23    2
    21    18    19    1
    22    20    19    2
    23    19    22    1
    24    19    21    1
    25    22    23    1
    26    23    25    1
    27    23    24    1
