@<TRIPOS>MOLECULE
1bfn_GLC_A_1.pdb
 11 11 0 0 0
SMALL
GASTEIGER

@<TRIPOS>ATOM
      1  C1        -4.9800   30.1480   34.8080 C.3   499  GLC499      0.1777
      2  C2        -4.1550   31.4260   34.5780 C.3   499  GLC499      0.2141
      3  C3        -3.5310   31.4310   33.1840 C.3   499  GLC499      0.2173
      4  C4        -2.7040   30.1670   32.9930 C.3   499  GLC499      0.2142
      5  C5        -3.5920   28.9380   33.1880 C.3   499  GLC499      0.1810
      6  C6        -2.7910   27.6700   33.1080 C.3   499  GLC499      0.2141
      7  O2        -4.9890   32.5480   34.7180 O.3   499  GLC499     -0.2176
      8  O3        -2.7190   32.5660   32.9850 O.3   499  GLC499     -0.2175
      9  O4        -2.2170   30.2160   31.6640 O.3   499  GLC499     -0.2176
     10  O5        -4.2310   28.9650   34.4880 O.3   499  GLC499     -0.3481
     11  O6        -3.6770   26.5870   33.2110 O.3   499  GLC499     -0.2176
@<TRIPOS>BOND
     1     9     4    1
     2     8     3    1
     3     4     3    1
     4     4     5    1
     5     6     5    1
     6     6    11    1
     7     3     2    1
     8     5    10    1
     9    10     1    1
    10     2     7    1
    11     2     1    1
