@<TRIPOS>MOLECULE
1bfr_HEM_B_1.pdb
 43 50 0 0 0
SMALL
GASTEIGER

@<TRIPOS>ATOM
      1 FE          9.3490   11.2190   47.9780 Fe    200  HEM200      0.0000
      2  CHA       11.5940    9.8580   45.8870 C.2   200  HEM200      0.0000
      3  CHB       11.6090   13.6380   48.8220 C.2   200  HEM200      0.0000
      4  CHC        7.0860   12.6580   50.0690 C.2   200  HEM200      0.0000
      5  CHD        7.0610    8.8910   47.1040 C.2   200  HEM200      0.0000
      6  NA        11.2010   11.6410   47.4850 N.2   200  HEM200      0.0000
      7  C1A       11.9940   10.9810   46.5830 C.2   200  HEM200      0.0000
      8  C2A       13.2820   11.6250   46.4590 C.2   200  HEM200      0.0000
      9  C3A       13.2880   12.6640   47.3010 C.2   200  HEM200      0.0000
     10  C4A       12.0010   12.6760   47.9290 C.2   200  HEM200      0.0000
     11  CMA       14.4010   13.6580   47.5250 C.3   200  HEM200      0.0000
     12  CAA       14.3700   11.2610   45.4900 C.3   200  HEM200      0.0000
     13  CBA       14.1520   11.9880   44.2020 C.3   200  HEM200      0.0000
     14  CGA       15.1050   11.5220   43.1090 C.2   200  HEM200      0.0000
     15  O1A       16.1370   12.1700   42.8960 O.co2 200  HEM200      0.0000
     16  O2A       14.8050   10.5140   42.4550 O.co2 200  HEM200      0.0000
     17  NB         9.3620   12.7930   49.1770 N.ar  200  HEM200      0.0000
     18  C1B       10.3820   13.6980   49.4220 C.ar  200  HEM200      0.0000
     19  C2B       10.0180   14.7190   50.3990 C.ar  200  HEM200      0.0000
     20  C3B        8.7540   14.4350   50.7090 C.ar  200  HEM200      0.0000
     21  C4B        8.3470   13.2430   49.9840 C.ar  200  HEM200      0.0000
     22  CMB       10.8300   15.9100   50.8980 C.3   200  HEM200      0.0000
     23  CAB        7.9350   15.2230   51.4630 C.3   200  HEM200      0.0000
     24  CBB        8.2390   15.5650   52.8200 C.3   200  HEM200      0.0000
     25  NC         7.4620   10.8590   48.4650 N.2   200  HEM200      0.0000
     26  C1C        6.6520   11.5510   49.3570 C.2   200  HEM200      0.0000
     27  C2C        5.3040   10.9560   49.4340 C.2   200  HEM200      0.0000
     28  C3C        5.2980    9.9540   48.5730 C.2   200  HEM200      0.0000
     29  C4C        6.6410    9.8520   48.0010 C.2   200  HEM200      0.0000
     30  CMC        4.0750   11.3230   50.2520 C.3   200  HEM200      0.0000
     31  CAC        4.1350    9.3390   48.1930 C.3   200  HEM200      0.0000
     32  CBC        3.9120    7.9710   48.4700 C.3   200  HEM200      0.0000
     33  ND         9.3430    9.6820   46.7890 N.ar  200  HEM200      0.0000
     34  C1D        8.3220    8.8000   46.5470 C.ar  200  HEM200      0.0000
     35  C2D        8.7270    7.7670   45.6150 C.ar  200  HEM200      0.0000
     36  C3D        9.9810    8.0390   45.2740 C.ar  200  HEM200      0.0000
     37  C4D       10.3650    9.2350   45.9940 C.ar  200  HEM200      0.0000
     38  CMD        7.9240    6.5770   45.1440 C.3   200  HEM200      0.0000
     39  CAD       10.8430    7.1890   44.3800 C.3   200  HEM200      0.0000
     40  CBD       11.6760    6.2640   45.2340 C.3   200  HEM200      0.0000
     41  CGD       12.6610    5.4230   44.4420 C.2   200  HEM200      0.0000
     42  O1D       13.7980    5.8770   44.2820 O.co2 200  HEM200      0.0000
     43  O2D       12.2990    4.3270   43.9950 O.co2 200  HEM200      0.0000
@<TRIPOS>BOND
     1    16    14   ar
     2    15    14   ar
     3    14    13    1
     4    43    41   ar
     5    13    12    1
     6    42    41   ar
     7    39    40    1
     8    39    36    1
     9    41    40    1
    10    38    35    1
    11    36    35   ar
    12    36    37   ar
    13    12     8    1
    14    35    34   ar
    15     2    37    2
    16     2     7    1
    17    37    33   ar
    18     8     7    1
    19     8     9    2
    20    34    33   ar
    21    34     5    2
    22     7     6    2
    23    33     1    1
    24     5    29    1
    25     9    11    1
    26     9    10    1
    27     6    10    1
    28     6     1    1
    29    10     3    2
    30     1    25    1
    31     1    17    1
    32    29    25    2
    33    29    28    1
    34    31    32    1
    35    31    28    1
    36    25    26    1
    37    28    27    2
    38     3    18    1
    39    17    18   ar
    40    17    21   ar
    41    26    27    1
    42    26     4    2
    43    18    19   ar
    44    27    30    1
    45    21     4    1
    46    21    20   ar
    47    19    20   ar
    48    19    22    1
    49    20    23    1
    50    23    24    1
