@<TRIPOS>MOLECULE
1bfv_STG_H_1.pdb
 33 37 0 0 0
SMALL
GASTEIGER

@<TRIPOS>ATOM
      1  C1        63.5920   22.7070   12.2540 C.ar  200  STG200     -0.0015
      2  C2        63.7970   22.9140   10.9150 C.ar  200  STG200      0.0367
      3  C3        62.8790   23.6790   10.2330 C.ar  200  STG200      0.1411
      4  C4        61.7450   24.1950   10.8600 C.ar  200  STG200      0.0324
      5  C5        61.5590   23.9780   12.2290 C.ar  200  STG200     -0.0231
      6  C6        60.3510   24.5810   12.9100 C.3   200  STG200      0.0261
      7  C7        60.5330   24.8890   14.3530 C.3   200  STG200      0.0050
      8  C8        61.8290   24.4160   15.0370 C.3   200  STG200      0.0045
      9  C9        62.2580   23.0270   14.4500 C.3   200  STG200      0.0220
     10  C10       62.4990   23.2320   12.9560 C.ar  200  STG200     -0.0263
     11  C11       63.5080   22.4690   15.2080 C.3   200  STG200      0.0044
     12  C12       63.1580   22.3090   16.7020 C.3   200  STG200      0.0029
     13  C13       62.8210   23.6740   17.3130 C.3   200  STG200      0.0308
     14  C14       61.5660   24.2040   16.5380 C.3   200  STG200      0.0054
     15  C15       61.1300   25.4190   17.3790 C.3   200  STG200      0.0356
     16  C16       61.4610   25.0090   18.8300 C.3   200  STG200      0.1821
     17  C17       62.1780   23.6410   18.7250 C.3   200  STG200      0.1819
     18  C18       64.0130   24.6280   17.3530 C.3   200  STG200      0.0026
     19  O19       63.0780   23.4030   19.7970 O.3   200  STG200     -0.2204
     20  O20       63.0890   23.9190    8.8910 O.3   200  STG200     -0.4505
     21  C21       62.2910   25.0070    8.3450 C.3   200  STG200      0.3222
     22  C22       62.9870   25.4760    7.0570 C.3   200  STG200      0.2542
     23  C23       62.0220   26.2320    6.1030 C.3   200  STG200      0.2216
     24  C24       60.6500   25.5180    5.9720 C.3   200  STG200      0.2230
     25  C25       60.0920   25.2240    7.4120 C.3   200  STG200      0.2538
     26  C26       58.7230   24.5270    7.3370 C.2   200  STG200      0.3941
     27  O27       61.0750   24.2370    7.9240 O.3   200  STG200     -0.3067
     28  O28       64.0370   26.3800    7.3550 O.3   200  STG200     -0.2135
     29  O29       62.5450   26.3350    4.7940 O.3   200  STG200     -0.2173
     30  O30       59.7680   26.3400    5.2520 O.3   200  STG200     -0.2171
     31  O31       58.3970   23.5180    8.2770 O.co2 200  STG200     -0.2429
     32  O32       57.8360   24.9180    6.2940 O.co2 200  STG200     -0.2429
     33  O33       60.2650   24.8910   19.6290 O.3   200  STG200     -0.2204
@<TRIPOS>BOND
     1    29    23    1
     2    30    24    1
     3    24    23    1
     4    24    25    1
     5    23    22    1
     6    32    26   ar
     7    22    28    1
     8    22    21    1
     9    26    25    1
    10    26    31   ar
    11    25    27    1
    12    27    21    1
    13    21    20    1
    14    20     3    1
    15     3     4   ar
    16     3     2   ar
    17     4     5   ar
    18     2     1   ar
    19     5     6    1
    20     5    10   ar
    21     1    10   ar
    22     6     7    1
    23    10     9    1
    24     7     8    1
    25     9     8    1
    26     9    11    1
    27     8    14    1
    28    11    12    1
    29    14    13    1
    30    14    15    1
    31    12    13    1
    32    13    18    1
    33    13    17    1
    34    15    16    1
    35    17    16    1
    36    17    19    1
    37    16    33    1
