@<TRIPOS>MOLECULE
1bg0_DAR_A_1.pdb
 12 11 0 0 0
SMALL
GASTEIGER

@<TRIPOS>ATOM
      1  N         33.4470    5.3970   39.6340 N.3   403  DAR403     -0.1208
      2  CA        33.0770    6.4010   40.6730 C.3   403  DAR403      0.1944
      3  CB        31.5550    6.5710   40.7410 C.3   403  DAR403      0.0343
      4  CG        30.7770    5.2800   40.9580 C.3   403  DAR403      0.0490
      5  CD        29.3220    5.5900   41.2980 C.3   403  DAR403      0.2205
      6  NE        28.7860    6.6340   40.4290 N.pl3 403  DAR403     -0.0865
      7  CZ        28.4130    6.4350   39.1700 C.cat 403  DAR403      0.5346
      8  NH1       28.5050    5.2240   38.6360 N.pl3 403  DAR403      0.1354
      9  NH2       27.9950    7.4540   38.4310 N.pl3 403  DAR403      0.1354
     10  C         33.6090    5.9920   42.0410 C.2   403  DAR403      0.3819
     11  O         34.0770    4.8390   42.1560 O.co2 403  DAR403     -0.2441
     12  OXT       33.5540    6.8220   42.9740 O.co2 403  DAR403     -0.2441
@<TRIPOS>BOND
     1     9     7    1
     2     8     7    1
     3     7     6    2
     4     1     2    1
     5     6     5    1
     6     2     3    1
     7     2    10    1
     8     3     4    1
     9     4     5    1
    10    10    11   ar
    11    10    12   ar
