@<TRIPOS>MOLECULE
1bg0_ADP_A_1.pdb
 27 29 0 0 0
SMALL
GASTEIGER

@<TRIPOS>ATOM
      1  PB        22.7030   10.5990   38.2330 P.3   400  ADP400      0.5373
      2  O1B       23.7170   10.4650   37.1590 O.2   400  ADP400     -0.2221
      3  O2B       21.4340   11.1170   37.6680 O.3   400  ADP400     -0.1143
      4  O3B       22.5080    9.3180   38.9520 O.3   400  ADP400     -0.1143
      5  PA        24.4330   12.6520   39.4770 P.3   400  ADP400      0.2231
      6  O1A       25.4770   12.3310   38.4760 O.2   400  ADP400     -0.5169
      7  O2A       24.9100   12.5990   40.8780 O.3   400  ADP400     -0.4370
      8  O3A       23.1780   11.6570   39.3560 O.3   400  ADP400     -0.2261
      9  O5'       23.7670   14.0760   39.1810 O.3   400  ADP400     -0.3111
     10  C5'       23.2080   14.3230   37.8910 C.3   400  ADP400      0.1813
     11  C4'       22.3420   15.5680   37.9630 C.3   400  ADP400      0.1821
     12  O4'       21.1060   15.2750   38.6360 O.3   400  ADP400     -0.3135
     13  C3'       22.9990   16.7070   38.7290 C.3   400  ADP400      0.2184
     14  O3'       22.8730   17.9180   37.9850 O.3   400  ADP400     -0.2174
     15  C2'       22.2080   16.8350   40.0210 C.3   400  ADP400      0.2570
     16  O2'       22.2380   18.1950   40.4860 O.3   400  ADP400     -0.2130
     17  C1'       20.8410   16.3670   39.5380 C.3   400  ADP400      0.3186
     18  N9        19.9050   15.9840   40.6310 N.pl3 400  ADP400     -0.1439
     19  C8        19.8520   14.8400   41.3400 C.3   400  ADP400      0.3377
     20  N7        18.7780   14.8200   42.1450 N.2   400  ADP400     -0.2095
     21  C5        18.1840   15.9890   41.9220 C.2   400  ADP400      0.2526
     22  C6        17.0100   16.4220   42.5340 C.2   400  ADP400      0.4393
     23  N6        16.2920   15.6680   43.3700 N.pl3 400  ADP400      0.2180
     24  N1        16.5740   17.6280   42.1380 N.2   400  ADP400      0.0021
     25  C2        17.2330   18.3220   41.2110 C.3   400  ADP400      0.5254
     26  N3        18.3490   17.9090   40.6230 N.2   400  ADP400     -0.0055
     27  C4        18.8570   16.7220   40.9780 C.2   400  ADP400      0.3518
@<TRIPOS>BOND
     1     2     1    2
     2     3     1    1
     3    10    11    1
     4    10     9    1
     5    11    12    1
     6    11    13    1
     7    14    13    1
     8     1     4    1
     9     1     8    1
    10     6     5    2
    11    12    17    1
    12    13    15    1
    13     9     5    1
    14     8     5    1
    15     5     7    1
    16    17    15    1
    17    17    18    1
    18    15    16    1
    19    26    27    2
    20    26    25    1
    21    18    27    1
    22    18    19    1
    23    27    21    1
    24    25    24    1
    25    19    20    1
    26    21    20    2
    27    21    22    1
    28    24    22    2
    29    22    23    1
