@<TRIPOS>MOLECULE
1bg2_ADP_A_1.pdb
 27 29 0 0 0
SMALL
GASTEIGER

@<TRIPOS>ATOM
      1  PB        14.1800   10.1370   41.8810 P.3   401  ADP401      0.5373
      2  O1B       15.2670   11.0360   41.4170 O.3   401  ADP401     -0.1143
      3  O2B       13.0720    9.9330   40.9410 O.2   401  ADP401     -0.2221
      4  O3B       14.7540    8.9220   42.5060 O.3   401  ADP401     -0.1143
      5  PA        13.6620   12.2960   43.8840 P.3   401  ADP401      0.2231
      6  O1A       15.0460   12.2980   44.3620 O.3   401  ADP401     -0.4370
      7  O2A       13.2290   13.3420   42.9240 O.2   401  ADP401     -0.5169
      8  O3A       13.4650   10.9040   43.0970 O.3   401  ADP401     -0.2261
      9  O5'       12.5560   12.1580   45.0370 O.3   401  ADP401     -0.3111
     10  C5'       11.1430   12.3430   44.8270 C.3   401  ADP401      0.1813
     11  C4'       10.6230   13.2680   45.9290 C.3   401  ADP401      0.1821
     12  O4'       10.8750   12.6350   47.1980 O.3   401  ADP401     -0.3135
     13  C3'       11.3640   14.6180   46.0060 C.3   401  ADP401      0.2184
     14  O3'       10.6150   15.7170   46.5560 O.3   401  ADP401     -0.2174
     15  C2'       12.4850   14.3170   46.9720 C.3   401  ADP401      0.2570
     16  O2'       13.0340   15.5170   47.5180 O.3   401  ADP401     -0.2130
     17  C1'       11.7400   13.4700   47.9770 C.3   401  ADP401      0.3186
     18  N9        12.6670   12.6710   48.7920 N.pl3 401  ADP401     -0.1439
     19  C8        13.5750   11.8020   48.3210 C.3   401  ADP401      0.3377
     20  N7        14.4650   11.4860   49.2720 N.2   401  ADP401     -0.2095
     21  C5        14.0250   12.1290   50.3500 C.2   401  ADP401      0.2526
     22  C6        14.6890   12.1910   51.5740 C.2   401  ADP401      0.4393
     23  N6        15.7730   11.4600   51.8130 N.pl3 401  ADP401      0.2180
     24  N1        14.1850   13.0400   52.4950 N.2   401  ADP401      0.0021
     25  C2        13.0830   13.7510   52.2400 C.3   401  ADP401      0.5254
     26  N3        12.4540   13.6860   51.0680 N.2   401  ADP401     -0.0055
     27  C4        12.9130   12.8850   50.0840 C.2   401  ADP401      0.3518
@<TRIPOS>BOND
     1     3     1    2
     2     2     1    1
     3     1     4    1
     4     1     8    1
     5     7     5    2
     6     8     5    1
     7     5     6    1
     8     5     9    1
     9    10     9    1
    10    10    11    1
    11    11    13    1
    12    11    12    1
    13    13    14    1
    14    13    15    1
    15    15    16    1
    16    15    17    1
    17    12    17    1
    18    17    18    1
    19    19    18    1
    20    19    20    1
    21    18    27    1
    22    20    21    2
    23    27    21    1
    24    27    26    2
    25    21    22    1
    26    26    25    1
    27    22    23    1
    28    22    24    2
    29    25    24    1
