@<TRIPOS>MOLECULE
1bg3_G6P_A_1.pdb
 16 16 0 0 0
SMALL
GASTEIGER

@<TRIPOS>ATOM
      1  C1        36.2050  -31.5350   52.4660 C.3   1002  G6P1002     0.3024
      2  C2        34.8860  -32.2050   52.1510 C.3   1002  G6P1002     0.2434
      3  C3        34.2610  -31.4930   50.9690 C.3   1002  G6P1002     0.2199
      4  C4        34.1250  -29.9990   51.2490 C.3   1002  G6P1002     0.2143
      5  C5        35.4770  -29.4300   51.6560 C.3   1002  G6P1002     0.1808
      6  C6        35.4500  -27.9770   52.0390 C.3   1002  G6P1002     0.1859
      7  O1        36.7880  -32.1520   53.5450 O.3   1002  G6P1002    -0.1869
      8  O2        35.1210  -33.5680   51.8280 O.3   1002  G6P1002    -0.2148
      9  O3        33.0000  -32.0460   50.6730 O.3   1002  G6P1002    -0.2174
     10  O4        33.6810  -29.3510   50.0690 O.3   1002  G6P1002    -0.2176
     11  O5        35.9930  -30.1580   52.7800 O.3   1002  G6P1002    -0.3237
     12  O6        36.6570  -27.5830   52.6890 O.3   1002  G6P1002    -0.2675
     13  P         37.9920  -27.2250   51.8810 P.3   1002  G6P1002     0.5327
     14  O1P       39.1730  -27.3400   52.7520 O.3   1002  G6P1002    -0.1145
     15  O2P       37.9420  -25.8440   51.3520 O.3   1002  G6P1002    -0.1145
     16  O3P       38.1420  -28.1730   50.7690 O.2   1002  G6P1002    -0.2224
@<TRIPOS>BOND
     1    10     4    1
     2     9     3    1
     3    16    13    2
     4     3     4    1
     5     3     2    1
     6     4     5    1
     7    15    13    1
     8     5     6    1
     9     5    11    1
    10     8     2    1
    11    13    12    1
    12    13    14    1
    13     6    12    1
    14     2     1    1
    15     1    11    1
    16     1     7    1
