@<TRIPOS>MOLECULE
1bg3_BGC_A_1.pdb
 12 12 0 0 0
SMALL
GASTEIGER

@<TRIPOS>ATOM
      1  C2        29.9020  -22.0030   48.8200 C.3   1001  BGC1001     0.2434
      2  C3        29.0450  -23.0350   49.4790 C.3   1001  BGC1001     0.2199
      3  C4        29.9310  -24.1720   50.0050 C.3   1001  BGC1001     0.2144
      4  C5        31.0640  -23.6310   50.9020 C.3   1001  BGC1001     0.1836
      5  C6        32.1340  -24.6320   51.3170 C.3   1001  BGC1001     0.2142
      6  C1        30.7900  -21.4990   49.9310 C.3   1001  BGC1001     0.3024
      7  O1        31.4850  -20.3990   49.5350 O.3   1001  BGC1001    -0.1869
      8  O2        29.1130  -20.9550   48.2950 O.3   1001  BGC1001    -0.2148
      9  O3        28.0850  -23.5240   48.5740 O.3   1001  BGC1001    -0.2174
     10  O4        29.1210  -25.0410   50.7670 O.3   1001  BGC1001    -0.2176
     11  O5        31.7180  -22.5250   50.2660 O.3   1001  BGC1001    -0.3236
     12  O6        32.7440  -25.2390   50.1970 O.3   1001  BGC1001    -0.2176
@<TRIPOS>BOND
     1     8     1    1
     2     9     2    1
     3     1     2    1
     4     1     6    1
     5     2     3    1
     6     7     6    1
     7     6    11    1
     8     3    10    1
     9     3     4    1
    10    12     5    1
    11    11     4    1
    12     4     5    1
