@<TRIPOS>MOLECULE
1bg9_DAF_A_1.pdb
 21 22 0 0 0
SMALL
GASTEIGER

@<TRIPOS>ATOM
      1  C1         6.1940   67.6730   36.7490 C.3   800  DAF800      0.1775
      2  C2         4.8530   67.0290   36.4380 C.3   800  DAF800      0.2129
      3  C3         4.8350   66.5510   34.9750 C.3   800  DAF800      0.2028
      4  C4         4.9420   67.8050   34.0720 C.3   800  DAF800      0.1331
      5  C5         6.2820   68.5580   34.4150 C.3   800  DAF800      0.1339
      6  C6         7.0100   69.5270   33.5010 C.3   800  DAF800      0.0336
      7  O2         4.5600   65.9270   37.2920 O.3   800  DAF800     -0.2177
      8  O3         3.6260   65.8180   34.7660 O.3   800  DAF800     -0.2187
      9  O5         6.6010   68.7060   35.8130 O.3   800  DAF800     -0.3519
     10  N4         4.8640   67.4480   32.6740 N.3   800  DAF800     -0.2087
     11  C1H        3.7510   67.9440   31.8810 C.3   800  DAF800      0.1273
     12  C2H        4.0160   68.3070   30.4330 C.3   800  DAF800      0.2049
     13  C3H        4.6700   69.6900   30.5240 C.3   800  DAF800      0.2179
     14  C4H        3.7160   70.7010   31.2530 C.3   800  DAF800      0.2053
     15  C5H        2.6090   70.1280   32.1520 C.2   800  DAF800      0.0180
     16  C6H        2.6750   68.7670   32.4430 C.2   800  DAF800     -0.0100
     17  C7H        1.4850   71.0280   32.7130 C.3   800  DAF800      0.2066
     18  O2H        4.7780   67.3570   29.6850 O.3   800  DAF800     -0.2184
     19  O3H        5.0220   70.1850   29.2330 O.3   800  DAF800     -0.2172
     20  O4H        3.9270   72.1040   31.1120 O.3   800  DAF800     -0.2157
     21  O7H        0.1600   70.7370   32.2640 O.3   800  DAF800     -0.2155
@<TRIPOS>BOND
     1    19    13    1
     2    18    12    1
     3    12    13    1
     4    12    11    1
     5    13    14    1
     6    20    14    1
     7    14    15    1
     8    11    16    1
     9    11    10    1
    10    15    16    2
    11    15    17    1
    12    21    17    1
    13    10     4    1
    14     6     5    1
    15     4     5    1
    16     4     3    1
    17     5     9    1
    18     8     3    1
    19     3     2    1
    20     9     1    1
    21     2     1    1
    22     2     7    1
