@<TRIPOS>MOLECULE
1bg9_AF1_A_1.pdb
 22 23 0 0 0
SMALL
GASTEIGER

@<TRIPOS>ATOM
      1  C1         7.4420   42.6180   41.6770 C.3   803  AF1803      0.3022
      2  C2         6.7160   43.9850   41.7190 C.3   803  AF1803      0.2423
      3  C3         5.4650   43.8760   40.9000 C.3   803  AF1803      0.2055
      4  C4         5.8180   43.5980   39.4230 C.3   803  AF1803      0.1333
      5  C5         6.8880   42.4360   39.3170 C.3   803  AF1803      0.1365
      6  C6         7.0500   41.4430   38.1750 C.3   803  AF1803      0.0337
      7  O1         8.4130   42.5430   42.7340 O.3   803  AF1803     -0.1869
      8  O2         6.4050   44.2680   43.0740 O.3   803  AF1803     -0.2148
      9  O3         4.5500   44.9750   40.9430 O.3   803  AF1803     -0.2186
     10  O5         7.9250   42.4000   40.3270 O.3   803  AF1803     -0.3275
     11  N4         4.4890   43.1890   39.0160 N.3   803  AF1803     -0.2087
     12  C1H        3.8440   43.5920   37.8130 C.3   803  AF1803      0.1273
     13  C2H        2.3380   43.7100   38.0000 C.3   803  AF1803      0.2049
     14  C3H        1.7130   42.3510   37.8880 C.3   803  AF1803      0.2179
     15  C4H        2.0410   41.7840   36.4750 C.3   803  AF1803      0.2053
     16  C5H        3.4800   42.0740   35.9320 C.2   803  AF1803      0.0180
     17  C6H        4.2660   43.0260   36.5680 C.2   803  AF1803     -0.0100
     18  C7H        4.0690   41.3510   34.6950 C.3   803  AF1803      0.2066
     19  O2H        2.0570   44.2250   39.2920 O.3   803  AF1803     -0.2184
     20  O3H        0.3130   42.4840   38.1300 O.3   803  AF1803     -0.2172
     21  O4H        1.0210   41.0400   35.7610 O.3   803  AF1803     -0.2157
     22  O7H        5.4260   40.8880   34.8430 O.3   803  AF1803     -0.2155
@<TRIPOS>BOND
     1    18    22    1
     2    18    16    1
     3    21    15    1
     4    16    15    1
     5    16    17    2
     6    15    14    1
     7    17    12    1
     8    12    13    1
     9    12    11    1
    10    14    13    1
    11    14    20    1
    12    13    19    1
    13     6     5    1
    14    11     4    1
    15     5     4    1
    16     5    10    1
    17     4     3    1
    18    10     1    1
    19     3     9    1
    20     3     2    1
    21     1     2    1
    22     1     7    1
    23     2     8    1
