@<TRIPOS>MOLECULE
1bg9_BGC_A_1.pdb
 12 12 0 0 0
SMALL
GASTEIGER

@<TRIPOS>ATOM
      1  C2         9.3280   66.0040   39.8270 C.3   801  BGC801      0.2434
      2  C3         8.1850   65.8120   38.8700 C.3   801  BGC801      0.2199
      3  C4         8.1730   67.0350   37.9760 C.3   801  BGC801      0.2144
      4  C5         9.5720   67.3330   37.3850 C.3   801  BGC801      0.1836
      5  C6         9.7930   68.4350   36.3630 C.3   801  BGC801      0.2142
      6  C1        10.6350   65.8360   39.0470 C.3   801  BGC801      0.3024
      7  O1        11.7580   65.7920   39.9180 O.3   801  BGC801     -0.1869
      8  O2         9.1780   65.1300   40.9270 O.3   801  BGC801     -0.2148
      9  O3         6.9360   65.6030   39.5550 O.3   801  BGC801     -0.2174
     10  O4         7.2470   66.7140   36.9160 O.3   801  BGC801     -0.2176
     11  O5        10.7560   66.9400   38.1220 O.3   801  BGC801     -0.3236
     12  O6        10.7180   69.3380   36.9550 O.3   801  BGC801     -0.2176
@<TRIPOS>BOND
     1     5    12    1
     2     5     4    1
     3    10     3    1
     4     4     3    1
     5     4    11    1
     6     3     2    1
     7    11     6    1
     8     2     9    1
     9     2     1    1
    10     6     1    1
    11     6     7    1
    12     1     8    1
