@<TRIPOS>MOLECULE
1bgg_GCO_B_1.pdb
 13 12 0 0 0
SMALL
GASTEIGER

@<TRIPOS>ATOM
      1  C1        65.1970   17.9770   58.0300 C.3   500  GCO500      0.4581
      2  C2        63.8600   18.2020   57.9090 C.3   500  GCO500      0.2759
      3  C3        63.2390   19.4950   58.1620 C.3   500  GCO500      0.2228
      4  C4        62.8110   19.6300   59.6140 C.3   500  GCO500      0.2177
      5  C5        63.7890   20.4470   60.3900 C.3   500  GCO500      0.2175
      6  C6        63.3140   20.8710   61.7220 C.3   500  GCO500      0.2175
      7  O11       65.3200   16.6520   57.7690 O.2   500  GCO500     -0.2640
      8  O12       65.3660   17.8770   59.2770 O.2   500  GCO500     -0.2640
      9  O2        63.9240   18.0960   56.5360 O.3   500  GCO500     -0.2118
     10  O3        62.1880   19.5100   57.2320 O.3   500  GCO500     -0.2173
     11  O4        61.6280   20.3730   59.6880 O.3   500  GCO500     -0.2175
     12  O5        64.8960   19.5640   60.7080 O.3   500  GCO500     -0.2175
     13  O6        62.7710   19.8080   62.4630 O.3   500  GCO500     -0.2175
@<TRIPOS>BOND
     1     9     2    1
     2    10     3    1
     3     7     1    1
     4     2     1    1
     5     2     3    1
     6     1     8    1
     7     3     4    1
     8     4    11    1
     9     4     5    1
    10     5    12    1
    11     5     6    1
    12     6    13    1
