@<TRIPOS>MOLECULE
1bgj_PHB_A_1.pdb
 10 10 0 0 0
SMALL
GASTEIGER

@<TRIPOS>ATOM
      1  C1'       17.3090   96.5690   46.0110 C.2   396  PHB396      0.3878
      2  O1'       16.3780   97.3000   45.5750 O.co2 396  PHB396     -0.2406
      3  O2'       18.3230   97.0690   46.5570 O.co2 396  PHB396     -0.2406
      4  C1        17.2930   95.1390   45.9220 C.ar  396  PHB396      0.0800
      5  C2        16.2360   94.4150   45.3390 C.ar  396  PHB396      0.0099
      6  C3        16.3340   93.0490   45.1230 C.ar  396  PHB396      0.0422
      7  C4        17.4790   92.3790   45.4900 C.ar  396  PHB396      0.1958
      8  C5        18.5300   93.0620   46.0730 C.ar  396  PHB396      0.0422
      9  C6        18.4440   94.4170   46.2860 C.ar  396  PHB396      0.0099
     10  O4        17.6010   91.1030   45.2710 O.3   396  PHB396     -0.2866
@<TRIPOS>BOND
     1     6     5   ar
     2     6     7   ar
     3    10     7    1
     4     5     4   ar
     5     7     8   ar
     6     2     1   ar
     7     4     1    1
     8     4     9   ar
     9     1     3   ar
    10     8     9   ar
