@<TRIPOS>MOLECULE
1bgn_PHB_A_1.pdb
 10 10 0 0 0
SMALL
GASTEIGER

@<TRIPOS>ATOM
      1  C1'       17.3170   96.8230   45.9210 C.2   396  PHB396      0.3878
      2  O1'       16.3020   97.4280   45.5290 O.co2 396  PHB396     -0.2406
      3  O2'       18.2340   97.4620   46.4670 O.co2 396  PHB396     -0.2406
      4  C1        17.4000   95.3780   45.8650 C.ar  396  PHB396      0.0800
      5  C2        16.3280   94.6040   45.3750 C.ar  396  PHB396      0.0099
      6  C3        16.3700   93.2010   45.4040 C.ar  396  PHB396      0.0422
      7  C4        17.4830   92.5270   45.9250 C.ar  396  PHB396      0.1958
      8  C5        18.5440   93.2790   46.4210 C.ar  396  PHB396      0.0422
      9  C6        18.5020   94.6780   46.3850 C.ar  396  PHB396      0.0099
     10  O4        17.5500   91.2100   45.9280 O.3   396  PHB396     -0.2866
@<TRIPOS>BOND
     1     5     6   ar
     2     5     4   ar
     3     6     7   ar
     4     2     1   ar
     5     4     1    1
     6     4     9   ar
     7     1     3   ar
     8     7    10    1
     9     7     8   ar
    10     9     8   ar
