@<TRIPOS>MOLECULE
1bgo_I10_A_1.pdb
 37 39 0 0 0
SMALL
GASTEIGER

@<TRIPOS>ATOM
      1  C1        36.5060   22.5160  -10.5830 C.ar  300  I10300     -0.0000
      2  C2        37.0090   21.2510  -10.4490 C.ar  300  I10300     -0.0000
      3  C3        37.2190   20.4360  -11.4710 C.ar  300  I10300     -0.0000
      4  C7        37.7290   19.0560  -11.2890 C.ar  300  I10300     -0.0003
      5  C8        37.3690   18.1980  -10.2310 C.ar  300  I10300     -0.0038
      6  C9        37.7750   16.8200  -10.1530 C.ar  300  I10300     -0.0139
      7  C10       38.5940   16.3020  -11.2070 C.ar  300  I10300     -0.0038
      8  C11       38.9660   17.1720  -12.2650 C.ar  300  I10300     -0.0003
      9  C12       38.5200   18.5260  -12.2730 C.ar  300  I10300     -0.0000
     10  C13       37.1260   15.9440   -9.0570 C.3   300  I10300      0.0987
     11  C14       35.7080   15.4250   -9.5760 C.2   300  I10300      0.2262
     12  C16       36.9270   16.7220   -7.6860 C.3   300  I10300      0.0135
     13  C20       36.1720   17.0100   -5.1920 C.3   300  I10300      0.0000
     14  C24       37.2120   14.9030   -5.8190 C.3   300  I10300      0.0000
     15  N29       35.6570   14.1210  -10.0380 N.am  300  I10300     -0.3018
     16  C30       34.4460   13.4270  -10.5640 C.3   300  I10300      0.1202
     17  C31       34.0810   12.2580   -9.6300 C.3   300  I10300      0.1473
     18  C35       35.2640   11.3260   -9.3130 C.3   300  I10300      0.1224
     19  C4        36.9070   20.9290  -12.7030 C.ar  300  I10300     -0.0000
     20  C5        36.3960   22.2000  -12.8590 C.ar  300  I10300     -0.0000
     21  C6        36.1920   23.0060  -11.7910 C.ar  300  I10300      0.0000
     22  O15       34.7530   16.1760   -9.5480 O.2   300  I10300     -0.2748
     23  C17       36.3530   16.0500   -6.3880 C.3   300  I10300      0.0008
     24  O34       33.0630   11.4800  -10.1480 O.3   300  I10300     -0.3812
     25  N36       34.9320   10.0410   -8.7200 N.3   300  I10300     -0.1755
     26  S39       35.2530    8.5010   -9.5100 S.O2  300  I10300      0.0769
     27  O40       35.0740    8.7640  -10.9330 O.2   300  I10300     -0.1515
     28  O41       34.4110    7.5570   -8.8920 O.2   300  I10300     -0.1515
     29  C42       36.8130    8.1330   -9.1710 C.ar  300  I10300      0.2027
     30  N43       37.0730    7.3640   -8.1450 N.ar  300  I10300     -0.2245
     31  C44       38.3650    7.1210   -7.8180 C.ar  300  I10300      0.1004
     32  C45       39.4280    7.6860   -8.5830 C.ar  300  I10300      0.0208
     33  C46       39.0540    8.5170   -9.6910 C.ar  300  I10300      0.0046
     34  C47       37.7030    8.7260   -9.9710 C.ar  300  I10300      0.0395
     35  HN2       36.4560   13.5610  -10.0360 H     300  I10300      0.1495
     36  HO3       33.1410   11.0180  -10.9760 H     300  I10300      0.2105
     37  HN3       34.5860   10.1520   -7.8750 H     300  I10300      0.1489
@<TRIPOS>BOND
     1    20    19   ar
     2    20    21   ar
     3    19     3   ar
     4     9     8   ar
     5     9     4   ar
     6     8     7   ar
     7    21     1   ar
     8     3     4    1
     9     3     2   ar
    10     4     5   ar
    11     7     6   ar
    12    36    24    1
    13    27    26    2
    14     1     2   ar
    15    16    15    1
    16    16    17    1
    17     5     6   ar
    18     6    10    1
    19    24    17    1
    20    15    35    1
    21    15    11   am
    22    34    33   ar
    23    34    29   ar
    24    33    32   ar
    25    17    18    1
    26    11    22    2
    27    11    10    1
    28    26    29    1
    29    26    28    2
    30    26    25    1
    31    18    25    1
    32    29    30   ar
    33    10    12    1
    34    25    37    1
    35    32    31   ar
    36    30    31   ar
    37    12    23    1
    38    23    14    1
    39    23    13    1
