@<TRIPOS>MOLECULE
1bgp_HEM_A_1.pdb
 43 50 0 0 0
SMALL
GASTEIGER

@<TRIPOS>ATOM
      1 FE         18.1210   17.2320   15.0620 Fe    400  HEM400      0.0000
      2  CHA       20.6900   18.9160   16.4760 C.2   400  HEM400      0.0000
      3  CHB       19.5440   17.6800   11.9730 C.2   400  HEM400      0.0000
      4  CHC       15.7070   15.3340   13.6520 C.2   400  HEM400      0.0000
      5  CHD       17.0720   16.2560   18.1860 C.2   400  HEM400      0.0000
      6  NA        19.8080   18.0140   14.3880 N.ar  400  HEM400      0.0000
      7  C1A       20.7620   18.7000   15.1180 C.ar  400  HEM400      0.0000
      8  C2A       21.8020   19.2230   14.2380 C.ar  400  HEM400      0.0000
      9  C3A       21.5300   18.7990   12.9850 C.ar  400  HEM400      0.0000
     10  C4A       20.2660   18.0720   13.0800 C.ar  400  HEM400      0.0000
     11  CMA       22.3620   19.0840   11.7510 C.3   400  HEM400      0.0000
     12  CAA       22.8450   20.2680   14.5840 C.3   400  HEM400      0.0000
     13  CBA       24.2510   19.7440   14.7730 C.3   400  HEM400      0.0000
     14  CGA       25.2470   20.8540   15.0150 C.2   400  HEM400      0.0000
     15  O1A       25.4160   21.7060   14.1190 O.co2 400  HEM400      0.0000
     16  O2A       25.8520   20.8860   16.1030 O.co2 400  HEM400      0.0000
     17  NB        17.6490   16.7730   13.2300 N.2   400  HEM400      0.0000
     18  C1B       18.3050   17.0750   12.0460 C.2   400  HEM400      0.0000
     19  C2B       17.5410   16.6750   10.8930 C.2   400  HEM400      0.0000
     20  C3B       16.4250   16.0430   11.3500 C.2   400  HEM400      0.0000
     21  C4B       16.5150   16.0650   12.8020 C.2   400  HEM400      0.0000
     22  CMB       17.8290   17.0140    9.4370 C.3   400  HEM400      0.0000
     23  CAB       15.3480   15.6240   10.5520 C.3   400  HEM400      0.0000
     24  CBB       14.8700   14.2520   10.5380 C.3   400  HEM400      0.0000
     25  NC        16.7460   15.9700   15.7640 N.ar  400  HEM400      0.0000
     26  C1C       15.8650   15.2130   15.0220 C.ar  400  HEM400      0.0000
     27  C2C       15.0710   14.3680   15.8820 C.ar  400  HEM400      0.0000
     28  C3C       15.4290   14.6280   17.1620 C.ar  400  HEM400      0.0000
     29  C4C       16.4620   15.6470   17.0820 C.ar  400  HEM400      0.0000
     30  CMC       14.0830   13.3080   15.4310 C.3   400  HEM400      0.0000
     31  CAC       14.9770   14.0030   18.3200 C.3   400  HEM400      0.0000
     32  CBC       13.6690   14.2430   18.8890 C.3   400  HEM400      0.0000
     33  ND        18.6470   17.5960   16.8950 N.2   400  HEM400      0.0000
     34  C1D       18.0270   17.2340   18.0830 C.2   400  HEM400      0.0000
     35  C2D       18.5690   17.9430   19.2000 C.2   400  HEM400      0.0000
     36  C3D       19.6160   18.6520   18.7250 C.2   400  HEM400      0.0000
     37  C4D       19.6960   18.4150   17.3100 C.2   400  HEM400      0.0000
     38  CMD       18.0830   17.9560   20.6460 C.3   400  HEM400      0.0000
     39  CAD       20.5490   19.5070   19.5660 C.3   400  HEM400      0.0000
     40  CBD       21.7020   18.6180   20.0130 C.3   400  HEM400      0.0000
     41  CGD       22.6710   19.3060   20.9560 C.2   400  HEM400      0.0000
     42  O1D       23.7080   18.6920   21.2530 O.co2 400  HEM400      0.0000
     43  O2D       22.4140   20.4430   21.4040 O.co2 400  HEM400      0.0000
@<TRIPOS>BOND
     1    22    19    1
     2    24    23    1
     3    23    20    1
     4    19    20    2
     5    19    18    1
     6    20    21    1
     7    11     9    1
     8     3    18    1
     9     3    10    2
    10    18    17    2
    11    21    17    1
    12    21     4    2
    13     9    10   ar
    14     9     8   ar
    15    10     6   ar
    16    17     1    1
    17     4    26    1
    18    15    14   ar
    19     8    12    1
    20     8     7   ar
    21     6     1    1
    22     6     7   ar
    23    12    13    1
    24    13    14    1
    25    14    16   ar
    26    26    25   ar
    27    26    27   ar
    28     1    25    1
    29     1    33    1
    30     7     2    2
    31    30    27    1
    32    25    29   ar
    33    27    28   ar
    34     2    37    1
    35    33    37    2
    36    33    34    1
    37    29    28   ar
    38    29     5    1
    39    28    31    1
    40    37    36    1
    41    34     5    2
    42    34    35    1
    43    31    32    1
    44    36    35    2
    45    36    39    1
    46    35    38    1
    47    39    40    1
    48    40    41    1
    49    41    42   ar
    50    41    43   ar
