@<TRIPOS>MOLECULE
1bgq_RDC_A_1.pdb
 25 27 0 0 0
SMALL
GASTEIGER

@<TRIPOS>ATOM
      1  C1        18.4690   -2.4070   -5.8760 C.2   300  RDC300      0.3440
      2  C2        18.5100   -3.2310   -4.6240 C.ar  300  RDC300      0.1119
      3  C3        19.4790   -4.3160   -4.5800 C.ar  300  RDC300      0.2048
      4  C4        19.6000   -5.1560   -3.4760 C.ar  300  RDC300      0.0851
      5  C5        18.7830   -4.9600   -2.3700 C.ar  300  RDC300      0.2090
      6  C6        17.8120   -3.9000   -2.3540 C.ar  300  RDC300      0.0933
      7  C7        17.6550   -3.0250   -3.4560 C.ar  300  RDC300      0.0086
      8  C8        16.5890   -1.8830   -3.4010 C.3   300  RDC300      0.0966
      9  C9        15.0750   -2.2340   -3.3570 C.2   300  RDC300      0.1775
     10  C10       14.5570   -3.4150   -4.0690 C.2   300  RDC300      0.0378
     11  C11       14.6440   -3.6110   -5.3810 C.2   300  RDC300      0.0027
     12  C12       14.1340   -4.7860   -6.0820 C.2   300  RDC300     -0.0020
     13  C13       14.2120   -5.0040   -7.3960 C.2   300  RDC300      0.0053
     14  C14       14.7920   -4.2240   -8.5820 C.3   300  RDC300      0.1643
     15  C15       15.0290   -2.8100   -8.6020 C.3   300  RDC300      0.1504
     16  C16       16.4730   -2.3270   -8.7000 C.3   300  RDC300      0.0760
     17  C17       17.0310   -1.4340   -7.6190 C.3   300  RDC300      0.1718
     18  C18       16.2030   -0.2300   -7.2080 C.3   300  RDC300      0.0474
     19  O1        17.2500   -2.2200   -6.3820 O.3   300  RDC300     -0.4491
     20  O2        19.4910   -1.9350   -6.4090 O.2   300  RDC300     -0.2448
     21  O3        20.3200   -4.5840   -5.6190 O.3   300  RDC300     -0.2862
     22  O4        18.8700   -5.7710   -1.2580 O.3   300  RDC300     -0.2856
     23 CL1        16.8650   -3.7540   -0.9320 Cl    300  RDC300     -0.0792
     24  O5        14.3110   -1.5570   -2.7190 O.2   300  RDC300     -0.2910
     25  O6        14.2030   -3.4490   -9.5650 O.3   300  RDC300     -0.3489
@<TRIPOS>BOND
     1    25    15    1
     2    25    14    1
     3    16    15    1
     4    16    17    1
     5    15    14    1
     6    14    13    1
     7    17    18    1
     8    17    19    1
     9    13    12    2
    10    20     1    2
    11    19     1    1
    12    12    11    1
    13     1     2    1
    14    21     3    1
    15    11    10    2
    16     2     3   ar
    17     2     7   ar
    18     3     4   ar
    19    10     9    1
    20     4     5   ar
    21     7     8    1
    22     7     6   ar
    23     8     9    1
    24     9    24    2
    25     5     6   ar
    26     5    22    1
    27     6    23    1
