@<TRIPOS>MOLECULE
1bgu_UDP_A_1.pdb
 25 26 0 0 0
SMALL
GASTEIGER

@<TRIPOS>ATOM
      1  N1        53.5890    3.8670   16.7080 N.am  353  UDP353     -0.1766
      2  C2        52.3090    4.2200   17.0540 C.1   353  UDP353      0.2845
      3  N3        51.8150    3.7850   18.2510 N.2   353  UDP353     -0.2452
      4  C4        52.5310    3.0100   19.1190 C.1   353  UDP353      0.2182
      5  C5        53.9800    2.7010   18.9070 C.2   353  UDP353      0.1242
      6  C6        54.4420    3.0790   17.6910 C.2   353  UDP353      0.0929
      7  O2        51.6150    4.9280   16.3290 O.2   353  UDP353     -0.1918
      8  O4        51.9880    2.5000   20.0960 O.2   353  UDP353     -0.2085
      9  C1'       54.1160    4.2140   15.3700 C.3   353  UDP353      0.2401
     10  C2'       54.9390    5.4210   15.5210 C.3   353  UDP353      0.2319
     11  O2'       54.6770    6.3860   14.5020 O.3   353  UDP353     -0.2157
     12  C3'       56.3470    4.8890   15.5780 C.3   353  UDP353      0.2158
     13  C4'       56.2780    3.7870   14.6630 C.3   353  UDP353      0.1799
     14  O4'       55.0370    3.1750   15.0220 O.3   353  UDP353     -0.3320
     15  O3'       57.3190    5.8360   15.1580 O.3   353  UDP353     -0.2175
     16  C5'       57.4020    2.8570   14.8920 C.3   353  UDP353      0.1813
     17  O5'       57.2290    1.6930   14.0240 O.3   353  UDP353     -0.3111
     18  PA        58.2750    0.4800   14.1250 P.3   353  UDP353      0.2231
     19  O1A       58.0860   -0.1810   15.3780 O.3   353  UDP353     -0.4370
     20  O2A       57.8890   -0.4420   13.0540 O.2   353  UDP353     -0.5169
     21  O3A       59.7750    0.9510   13.9520 O.3   353  UDP353     -0.2261
     22  PB        60.6870    1.9280   13.0930 P.3   353  UDP353      0.5373
     23  O1B       59.9420    2.9790   12.6010 O.3   353  UDP353     -0.1143
     24  O2B       61.1880    1.1230   11.9640 O.2   353  UDP353     -0.2221
     25  O3B       61.6930    2.5860   13.9760 O.3   353  UDP353     -0.1143
@<TRIPOS>BOND
     1    24    22    2
     2    23    22    1
     3    20    18    2
     4    22    21    1
     5    22    25    1
     6    21    18    1
     7    17    18    1
     8    17    16    1
     9    18    19    1
    10    11    10    1
    11    13    16    1
    12    13    14    1
    13    13    12    1
    14    14     9    1
    15    15    12    1
    16     9    10    1
    17     9     1    1
    18    10    12    1
    19     7     2    2
    20     1     2   am
    21     1     6    1
    22     2     3    2
    23     6     5    2
    24     3     4    2
    25     5     4    1
    26     4     8    2
