@<TRIPOS>MOLECULE
1bgv_GLU_A_1.pdb
 10 9 0 0 0
SMALL
GASTEIGER

@<TRIPOS>ATOM
      1  N        -17.7370   16.2270   19.5770 N.3   501  GLU501     -0.1208
      2  CA       -16.8870   16.2000   20.7740 C.3   501  GLU501      0.1949
      3  C        -16.0230   17.4870   20.6970 C.2   501  GLU501      0.3819
      4  O        -16.3830   18.4810   20.1810 O.co2 501  GLU501     -0.2441
      5  CB       -16.1020   14.8870   20.8280 C.3   501  GLU501      0.0424
      6  CG       -14.9740   14.8220   19.7650 C.3   501  GLU501      0.1161
      7  CD       -13.9990   13.6870   19.9640 C.2   501  GLU501      0.3649
      8  OE1      -13.0640   13.5380   19.0890 O.co2 501  GLU501     -0.2457
      9  OE2      -14.2430   12.9310   20.9600 O.co2 501  GLU501     -0.2457
     10  OXT      -14.9870   17.4420   21.3650 O.co2 501  GLU501     -0.2441
@<TRIPOS>BOND
     1     8     7   ar
     2     1     2    1
     3     6     7    1
     4     6     5    1
     5     7     9   ar
     6     4     3   ar
     7     3     2    1
     8     3    10   ar
     9     2     5    1
