@<TRIPOS>MOLECULE
1bgy_HEM_C_1.pdb
 43 50 0 0 0
SMALL
GASTEIGER

@<TRIPOS>ATOM
      1 FE         30.6250  101.4160   32.7440 Fe    380  HEM380      0.0000
      2  CHA       32.2030  101.7380   35.7070 C.2   380  HEM380      0.0000
      3  CHB       27.6790  100.6700   34.3510 C.2   380  HEM380      0.0000
      4  CHC       29.1680  100.4740   29.7570 C.2   380  HEM380      0.0000
      5  CHD       33.6650  101.6050   31.1700 C.2   380  HEM380      0.0000
      6  NA        30.0870  101.1370   34.6410 N.2   380  HEM380      0.0000
      7  C1A       30.8500  101.4340   35.7560 C.2   380  HEM380      0.0000
      8  C2A       30.0120  101.3760   36.9480 C.2   380  HEM380      0.0000
      9  C3A       28.7800  101.0940   36.5480 C.2   380  HEM380      0.0000
     10  C4A       28.7950  100.9310   35.1140 C.2   380  HEM380      0.0000
     11  CMA       27.5050  100.9000   37.3640 C.3   380  HEM380      0.0000
     12  CAA       30.5420  101.6640   38.3570 C.3   380  HEM380      0.0000
     13  CBA       30.9000  103.1370   38.6150 C.3   380  HEM380      0.0000
     14  CGA       30.9320  103.5700   40.0580 C.2   380  HEM380      0.0000
     15  O1A       29.8610  103.4510   40.7100 O.co2 380  HEM380      0.0000
     16  O2A       32.0550  104.0410   40.4000 O.co2 380  HEM380      0.0000
     17  NB        28.7730  100.7820   32.1610 N.ar  380  HEM380      0.0000
     18  C1B       27.6900  100.5310   32.9720 C.ar  380  HEM380      0.0000
     19  C2B       26.5760  100.0370   32.1620 C.ar  380  HEM380      0.0000
     20  C3B       27.0430   99.8920   30.9510 C.ar  380  HEM380      0.0000
     21  C4B       28.3950  100.3800   30.9090 C.ar  380  HEM380      0.0000
     22  CMB       25.2600   99.5730   32.8270 C.3   380  HEM380      0.0000
     23  CAB       26.1540   99.4280   29.7550 C.3   380  HEM380      0.0000
     24  CBB       24.9140  100.0140   29.8860 C.3   380  HEM380      0.0000
     25  NC        31.2980  101.0270   30.8910 N.2   380  HEM380      0.0000
     26  C1C       30.5210  100.7930   29.7780 C.2   380  HEM380      0.0000
     27  C2C       31.3400  100.9290   28.5920 C.2   380  HEM380      0.0000
     28  C3C       32.5920  101.2280   28.9690 C.2   380  HEM380      0.0000
     29  C4C       32.5690  101.2870   30.4190 C.2   380  HEM380      0.0000
     30  CMC       30.8090  100.7290   27.1870 C.3   380  HEM380      0.0000
     31  CAC       33.8320  101.4620   28.0960 C.2   380  HEM380      0.0000
     32  CBC       33.7260  101.8860   26.8280 C.2   380  HEM380      0.0000
     33  ND        32.5490  101.6170   33.3290 N.ar  380  HEM380      0.0000
     34  C1D       33.6730  101.7570   32.5340 C.ar  380  HEM380      0.0000
     35  C2D       34.8540  102.0800   33.3210 C.ar  380  HEM380      0.0000
     36  C3D       34.4530  102.0650   34.6010 C.ar  380  HEM380      0.0000
     37  C4D       33.0240  101.8020   34.6080 C.ar  380  HEM380      0.0000
     38  CMD       36.2860  102.2620   32.7970 C.3   380  HEM380      0.0000
     39  CAD       35.3540  102.2930   35.8070 C.3   380  HEM380      0.0000
     40  CBD       35.5440  103.5900   36.5220 C.3   380  HEM380      0.0000
     41  CGD       34.3410  104.1430   37.2390 C.2   380  HEM380      0.0000
     42  O1D       33.8140  105.0600   36.5610 O.co2 380  HEM380      0.0000
     43  O2D       33.9730  103.7020   38.3640 O.co2 380  HEM380      0.0000
@<TRIPOS>BOND
     1    32    31    2
     2    30    27    1
     3    31    28    1
     4    27    28    2
     5    27    26    1
     6    28    29    1
     7    23    24    1
     8    23    20    1
     9     4    26    2
    10     4    21    1
    11    26    25    1
    12    29    25    2
    13    29     5    1
    14    25     1    1
    15    21    20   ar
    16    21    17   ar
    17    20    19   ar
    18     5    34    2
    19    17     1    1
    20    17    18   ar
    21    19    22    1
    22    19    18   ar
    23    34    35   ar
    24    34    33   ar
    25     1    33    1
    26     1     6    1
    27    38    35    1
    28    18     3    1
    29    35    36   ar
    30    33    37   ar
    31     3    10    2
    32    36    37   ar
    33    36    39    1
    34    37     2    2
    35     6    10    1
    36     6     7    2
    37    10     9    1
    38     2     7    1
    39     7     8    1
    40    39    40    1
    41    40    41    1
    42     9     8    2
    43     9    11    1
    44    42    41   ar
    45     8    12    1
    46    41    43   ar
    47    12    13    1
    48    13    14    1
    49    14    16   ar
    50    14    15   ar
