@<TRIPOS>MOLECULE
1bgy_HEC_D_1.pdb
 43 50 0 0 0
SMALL
GASTEIGER

@<TRIPOS>ATOM
      1 FE         40.1520  109.8260   64.3860 Fe    242  HEC242      0.0000
      2  CHA       38.4150  106.8910   64.2700 C.2   242  HEC242      0.0000
      3  CHB       37.8820  111.2730   62.3050 C.2   242  HEC242      0.0000
      4  CHC       41.5220  112.8620   65.0370 C.2   242  HEC242      0.0000
      5  CHD       42.6490  108.2940   66.1060 C.2   242  HEC242      0.0000
      6  NA        38.5570  109.1770   63.3560 N.ar  242  HEC242      0.0000
      7  C1A       37.8900  107.9870   63.6100 C.ar  242  HEC242      0.0000
      8  C2A       36.5380  108.0840   63.1010 C.ar  242  HEC242      0.0000
      9  C3A       36.3780  109.2860   62.5650 C.ar  242  HEC242      0.0000
     10  C4A       37.6320  109.9870   62.7160 C.ar  242  HEC242      0.0000
     11  CMA       35.1270  109.9010   61.9080 C.3   242  HEC242      0.0000
     12  CAA       35.5160  106.9410   63.2420 C.3   242  HEC242      0.0000
     13  CBA       34.9660  106.4220   61.9270 C.3   242  HEC242      0.0000
     14  CGA       34.4970  104.9920   62.0740 C.2   242  HEC242      0.0000
     15  O1A       35.4130  104.1400   62.1520 O.co2 242  HEC242      0.0000
     16  O2A       33.2620  104.8030   62.1210 O.co2 242  HEC242      0.0000
     17  NB        39.7810  111.6950   63.7910 N.2   242  HEC242      0.0000
     18  C1B       38.7970  112.0970   62.9170 C.2   242  HEC242      0.0000
     19  C2B       38.8820  113.5280   62.7410 C.2   242  HEC242      0.0000
     20  C3B       39.8820  113.9740   63.4950 C.2   242  HEC242      0.0000
     21  C4B       40.4630  112.8360   64.1620 C.2   242  HEC242      0.0000
     22  CMB       37.9280  114.3230   61.8330 C.3   242  HEC242      0.0000
     23  CAB       40.3880  115.4370   63.6450 C.2   242  HEC242      0.0000
     24  CBB       39.4620  116.3980   63.8650 C.2   242  HEC242      0.0000
     25  NC        41.7560  110.4590   65.3980 N.ar  242  HEC242      0.0000
     26  C1C       42.1960  111.7630   65.5030 C.ar  242  HEC242      0.0000
     27  C2C       43.4700  111.7760   66.1760 C.ar  242  HEC242      0.0000
     28  C3C       43.7650  110.5080   66.4680 C.ar  242  HEC242      0.0000
     29  C4C       42.7140  109.6600   65.9920 C.ar  242  HEC242      0.0000
     30  CMC       44.3000  113.0370   66.4870 C.3   242  HEC242      0.0000
     31  CAC       45.0600  110.0570   67.1910 C.3   242  HEC242      0.0000
     32  CBC       45.2400  110.6270   68.4120 C.3   242  HEC242      0.0000
     33  ND        40.4550  107.9730   65.0930 N.2   242  HEC242      0.0000
     34  C1D       41.6020  107.5030   65.7090 C.2   242  HEC242      0.0000
     35  C2D       41.4910  106.0650   65.8600 C.2   242  HEC242      0.0000
     36  C3D       40.3130  105.6780   65.3590 C.2   242  HEC242      0.0000
     37  C4D       39.6480  106.8700   64.8750 C.2   242  HEC242      0.0000
     38  CMD       42.5990  105.2140   66.5180 C.3   242  HEC242      0.0000
     39  CAD       39.6390  104.2930   65.2480 C.2   242  HEC242      0.0000
     40  CBD       38.3110  104.0820   65.9670 C.2   242  HEC242      0.0000
     41  CGD       37.8940  102.6500   66.1790 C.2   242  HEC242      0.0000
     42  O1D       37.2000  102.4300   67.1980 O.co2 242  HEC242      0.0000
     43  O2D       38.3000  101.8480   65.2960 O.co2 242  HEC242      0.0000
@<TRIPOS>BOND
     1    22    19    1
     2    11     9    1
     3    13    14    1
     4    13    12    1
     5    14    16   ar
     6    14    15   ar
     7     3    10    2
     8     3    18    1
     9     9    10   ar
    10     9     8   ar
    11    10     6   ar
    12    19    18    1
    13    19    20    2
    14    18    17    2
    15     8    12    1
    16     8     7   ar
    17     6     7   ar
    18     6     1    1
    19    20    23    1
    20    20    21    1
    21     7     2    2
    22    23    24    2
    23    17    21    1
    24    17     1    1
    25    21     4    2
    26     2    37    1
    27     1    33    1
    28     1    25    1
    29    37    33    2
    30    37    36    1
    31     4    26    1
    32    33    34    1
    33    39    36    1
    34    39    40    2
    35    43    41   ar
    36    36    35    2
    37    25    26   ar
    38    25    29   ar
    39    26    27   ar
    40    34    35    1
    41    34     5    2
    42    35    38    1
    43    40    41    1
    44    29     5    1
    45    29    28   ar
    46    27    28   ar
    47    27    30    1
    48    41    42   ar
    49    28    31    1
    50    31    32    1
