@<TRIPOS>MOLECULE
1bh2_GSP_A_1.pdb
 32 34 0 0 0
SMALL
GASTEIGER

@<TRIPOS>ATOM
      1  PG        36.8780  -32.0640   12.4320 P.3   355  GSP355      0.4340
      2  O3B       37.1370  -31.2250   10.9300 O.3   355  GSP355     -0.2405
      3  S1G       38.5100  -32.6310   13.2710 S.3   355  GSP355      0.0416
      4  O2G       36.1350  -31.0760   13.2840 O.3   355  GSP355     -0.1305
      5  O3G       36.0960  -33.3300   12.1690 O.2   355  GSP355     -0.2423
      6  PB        36.0920  -30.4330    9.9030 P.3   355  GSP355      0.2262
      7  O1B       35.5850  -31.4700    8.9760 O.2   355  GSP355     -0.5168
      8  O2B       35.1230  -29.5350   10.6000 O.3   355  GSP355     -0.4369
      9  PA        37.1690  -27.8920    9.2860 P.3   355  GSP355      0.2189
     10  O1A       36.0210  -27.1120    8.7950 O.2   355  GSP355     -0.5170
     11  O2A       37.7220  -27.6690   10.6590 O.3   355  GSP355     -0.4371
     12  O3A       37.0060  -29.4410    9.1110 O.3   355  GSP355     -0.2701
     13  O5'       38.3760  -27.6620    8.2340 O.3   355  GSP355     -0.3112
     14  C5'       39.7500  -27.9470    8.6490 C.3   355  GSP355      0.1813
     15  C4'       40.6810  -26.7970    8.2440 C.3   355  GSP355      0.1799
     16  O4'       40.5990  -26.8200    6.8120 O.3   355  GSP355     -0.3326
     17  C3'       40.2850  -25.3610    8.6970 C.3   355  GSP355      0.2158
     18  O3'       41.4470  -24.5330    8.8480 O.3   355  GSP355     -0.2175
     19  C2'       39.5370  -24.7490    7.5480 C.3   355  GSP355      0.2310
     20  O2'       39.7030  -23.3750    7.3360 O.3   355  GSP355     -0.2158
     21  C1'       40.0740  -25.4970    6.2990 C.3   355  GSP355      0.2293
     22  N9        39.1310  -25.5040    5.1070 N.pl3 355  GSP355     -0.2354
     23  C8        37.8800  -25.9960    4.9280 C.3   355  GSP355      0.2246
     24  N7        37.3520  -25.8570    3.6970 N.2   355  GSP355     -0.2322
     25  C5        38.4650  -25.4280    2.9750 C.2   355  GSP355      0.2182
     26  C6        38.6180  -25.2140    1.5620 C.1   355  GSP355      0.2372
     27  O6        37.8550  -25.5690    0.6620 O.2   355  GSP355     -0.2069
     28  N1        39.8450  -24.6070    1.2620 N.2   355  GSP355     -0.2485
     29  C2        40.8860  -24.4180    2.1770 C.1   355  GSP355      0.2531
     30  N2        41.9030  -23.6480    1.7720 N.pl3 355  GSP355     -0.0226
     31  N3        40.7970  -24.8010    3.4710 N.2   355  GSP355     -0.3074
     32  C4        39.5420  -25.2150    3.8060 C.2   355  GSP355      0.2300
@<TRIPOS>BOND
     1    27    26    2
     2    28    26    2
     3    28    29    2
     4    26    25    1
     5    30    29    1
     6    29    31    2
     7    25    24    2
     8    25    32    1
     9    31    32    2
    10    24    23    1
    11    32    22    1
    12    23    22    1
    13    22    21    1
    14    21    16    1
    15    21    19    1
    16    16    15    1
    17    20    19    1
    18    19    17    1
    19    13    14    1
    20    13     9    1
    21    15    14    1
    22    15    17    1
    23    17    18    1
    24    10     9    2
    25     7     6    2
    26    12     9    1
    27    12     6    1
    28     9    11    1
    29     6     8    1
    30     6     2    1
    31     2     1    1
    32     5     1    2
    33     1     3    1
    34     1     4    1
