@<TRIPOS>MOLECULE
1bh3_C8E_A_1.pdb
 21 20 0 0 0
SMALL
GASTEIGER

@<TRIPOS>ATOM
      1  C1         4.3780   59.7030   44.5800 C.3   290  C8E290      0.0000
      2  C2         3.3970   58.9120   43.8710 C.3   290  C8E290      0.0000
      3  C3         2.1130   58.8220   44.5220 C.3   290  C8E290      0.0000
      4  C4         2.1100   57.6410   45.4010 C.3   290  C8E290      0.0000
      5  C5         1.8790   58.2110   46.7570 C.3   290  C8E290      0.0001
      6  C6         0.8630   57.5080   47.4260 C.3   290  C8E290      0.0026
      7  C7         1.2310   57.7640   48.7950 C.3   290  C8E290      0.0321
      8  C8         0.1730   57.2820   49.6940 C.3   290  C8E290      0.1423
      9  O9         0.5230   56.8640   51.0090 O.3   290  C8E290     -0.3511
     10  C10        0.8670   57.8350   51.9550 C.3   290  C8E290      0.1741
     11  C11        0.8850   57.1820   53.3190 C.3   290  C8E290      0.1743
     12  O12       -0.3960   56.5290   53.6320 O.3   290  C8E290     -0.3471
     13  C13       -0.4710   55.0600   53.4310 C.3   290  C8E290      0.1894
     14  C14       -1.3610   54.4220   52.3280 C.3   290  C8E290      0.2376
     15  O15       -2.2450   53.2480   52.3770 O.2   290  C8E290     -0.4666
     16  C16       -1.8770   52.2300   51.4480 C.2   290  C8E290      0.2124
     17  C17       -1.8510   52.5360   49.9380 C.2   290  C8E290      0.2124
     18  O18       -1.5390   51.6590   48.8890 O.2   290  C8E290     -0.4665
     19  C19       -2.2640   50.4470   48.6330 C.3   290  C8E290      0.2411
     20  C20       -3.2380   50.2890   47.3460 C.3   290  C8E290      0.2292
     21  O21       -4.5230   49.8120   47.7170 O.3   290  C8E290     -0.2162
@<TRIPOS>BOND
     1     2     3    1
     2     2     1    1
     3     3     4    1
     4     4     5    1
     5     5     6    1
     6    20    21    1
     7    20    19    1
     8     6     7    1
     9    19    18    1
    10     7     8    1
    11    18    17    1
    12     8     9    1
    13    17    16    2
    14     9    10    1
    15    16    15    1
    16    10    11    1
    17    14    15    1
    18    14    13    1
    19    11    12    1
    20    13    12    1
