@<TRIPOS>MOLECULE
1bh5_GTX_A_1.pdb
 26 25 0 0 0
SMALL
GASTEIGER

@<TRIPOS>ATOM
      1  N1        -1.0140   -7.4770  119.0180 N.3   200  GTX200     -0.1208
      2  CA1       -0.9210   -6.3190  119.9280 C.3   200  GTX200      0.1948
      3  C1        -0.8100   -5.0620  119.0760 C.2   200  GTX200      0.3819
      4  O11       -0.3070   -5.1470  117.9270 O.co2 200  GTX200     -0.2441
      5  O12       -1.2380   -4.0220  119.6130 O.co2 200  GTX200     -0.2441
      6  CB1        0.2540   -6.4180  120.9100 C.3   200  GTX200      0.0402
      7  CG1        0.4030   -5.2140  121.8310 C.3   200  GTX200      0.0889
      8  CD1       -0.5500   -5.2310  123.0140 C.2   200  GTX200      0.2418
      9  OE1       -1.4730   -6.0390  123.1220 O.2   200  GTX200     -0.2733
     10  N2        -0.3500   -4.3090  123.9660 N.am  200  GTX200     -0.1969
     11  CA2       -1.3320   -4.1980  125.0500 C.3   200  GTX200      0.1834
     12  C2        -2.6340   -3.5930  124.5770 C.2   200  GTX200      0.2626
     13  O2        -2.7250   -2.8510  123.5780 O.2   200  GTX200     -0.2714
     14  CB2       -0.6930   -3.3550  126.1480 C.3   200  GTX200      0.0886
     15  SG2        0.8490   -4.1190  126.7450 S.3   200  GTX200     -0.1379
     16  C1S        0.8270   -3.4680  128.4380 C.3   200  GTX200      0.0576
     17  C2S        2.0280   -3.9630  129.2570 C.3   200  GTX200      0.0116
     18  C3S        2.5050   -2.7590  130.0640 C.3   200  GTX200      0.0009
     19  C4S        4.0250   -2.6650  129.9380 C.3   200  GTX200      0.0000
     20  C5S        4.5800   -4.0210  130.4070 C.3   200  GTX200      0.0000
     21  C6S        6.0670   -3.8180  130.6410 C.3   200  GTX200      0.0000
     22  N3        -3.7280   -3.7620  125.3410 N.am  200  GTX200     -0.1917
     23  CA3       -4.8480   -2.9920  124.8270 C.3   200  GTX200      0.2285
     24  C3        -6.1630   -3.6910  124.8250 C.2   200  GTX200      0.3865
     25  O31       -6.4030   -4.4310  125.7940 O.co2 200  GTX200     -0.2437
     26  O32       -7.0330   -3.4970  123.9600 O.co2 200  GTX200     -0.2437
@<TRIPOS>BOND
     1     4     3   ar
     2     1     2    1
     3     3     5   ar
     4     3     2    1
     5     2     6    1
     6     6     7    1
     7     7     8    1
     8     8     9    2
     9     8    10   am
    10    13    12    2
    11    26    24   ar
    12    10    11    1
    13    12    11    1
    14    12    22   am
    15    24    23    1
    16    24    25   ar
    17    23    22    1
    18    11    14    1
    19    14    15    1
    20    15    16    1
    21    16    17    1
    22    17    18    1
    23    19    18    1
    24    19    20    1
    25    20    21    1
