@<TRIPOS>MOLECULE
1bh6_1BH_A_1.pdb
 34 36 0 0 0
SMALL
GASTEIGER

@<TRIPOS>ATOM
      1  C1        35.2880   13.8330   29.5920 C.3   300  1BH300      0.1727
      2  C3        33.5850   15.0950   28.9670 C.3   300  1BH300      0.3514
      3  O4        29.5020   18.8400   25.1090 O.2   300  1BH300     -0.2716
      4  O5        27.9830   18.7340   20.8030 O.3   300  1BH300     -0.2213
      5  C7        29.3280   17.5930   24.9670 C.2   300  1BH300      0.2595
      6  C8        29.4300   17.7600   22.5510 C.3   300  1BH300      0.1299
      7  C9        28.1050   18.0280   21.9680 C.3   300  1BH300      0.1722
      8  C21       36.3650   12.9790   28.9410 C.ar  300  1BH300      0.0074
      9  C22       36.2860   12.6440   27.5980 C.ar  300  1BH300     -0.0019
     10  C24       38.3450   11.4240   27.5770 C.ar  300  1BH300     -0.0000
     11  N1        33.4430   16.1380   28.1490 N.3   300  1BH300     -0.1546
     12  C4        32.3580   17.0790   28.2360 C.3   300  1BH300      0.1538
     13  C41       32.7590   18.4720   27.7890 C.3   300  1BH300      0.0288
     14  C5        31.3610   16.6920   27.0760 C.2   300  1BH300      0.2419
     15  O3        31.7100   16.0360   26.0750 O.2   300  1BH300     -0.2734
     16  N2        30.0690   16.9580   27.3080 N.am  300  1BH300     -0.2718
     17  CD        29.4090   17.6340   28.4290 C.3   300  1BH300      0.0939
     18  C6        29.1210   16.6180   26.1890 C.3   300  1BH300      0.1535
     19  C61       27.7540   16.9050   26.8200 C.3   300  1BH300      0.0310
     20  CG        27.9440   17.6450   28.1050 C.3   300  1BH300      0.0237
     21  N3        29.2740   16.9480   23.8030 N.am  300  1BH300     -0.2028
     22  C81       30.3520   16.9170   21.6140 C.3   300  1BH300      0.0506
     23  C82       31.8020   17.0380   21.9390 C.ar  300  1BH300     -0.0204
     24  C83       32.7160   16.1140   21.4330 C.ar  300  1BH300     -0.0042
     25  C87       32.2560   18.0950   22.7390 C.ar  300  1BH300     -0.0042
     26  C84       34.0760   16.1440   21.6590 C.ar  300  1BH300     -0.0003
     27  C86       33.6230   18.1150   22.9960 C.ar  300  1BH300     -0.0003
     28  C85       34.5070   17.2200   22.4710 C.ar  300  1BH300     -0.0000
     29  CC        26.9750   18.5140   22.7980 C.3   300  1BH300      0.0374
     30  O1        34.6140   14.4470   28.4660 O.3   300  1BH300     -0.3101
     31  C26       37.4720   12.5140   29.6470 C.ar  300  1BH300     -0.0019
     32  C23       37.2270   11.8810   26.8990 C.ar  300  1BH300     -0.0002
     33  C25       38.4000   11.7270   28.9390 C.ar  300  1BH300     -0.0002
     34  O2        33.5480   15.2460   30.2300 O.3   300  1BH300     -0.1686
@<TRIPOS>BOND
     1     4     7    1
     2    24    26   ar
     3    24    23   ar
     4    22    23    1
     5    22     6    1
     6    26    28   ar
     7    23    25   ar
     8     7     6    1
     9     7    29    1
    10    28    27   ar
    11     6    21    1
    12    25    27   ar
    13    21     5   am
    14     5     3    2
    15     5    18    1
    16    15    14    2
    17    18    19    1
    18    18    16    1
    19    19    20    1
    20    32    10   ar
    21    32     9   ar
    22    14    16   am
    23    14    12    1
    24    16    17    1
    25    10    33   ar
    26     9     8   ar
    27    13    12    1
    28    20    17    1
    29    11    12    1
    30    11     2    1
    31    30     2    1
    32    30     1    1
    33    33    31   ar
    34     8     1    1
    35     8    31   ar
    36     2    34    1
