@<TRIPOS>MOLECULE
1bh9_PMB_B_1.pdb
 11 11 0 0 0
SMALL
GASTEIGER

@<TRIPOS>ATOM
      1  C1        39.9850    2.2920    3.4490 C.ar  300  PMB300      0.0000
      2  C2        39.5240    2.5530    4.7610 C.ar  300  PMB300      0.0000
      3  C3        40.4330    2.8720    5.8000 C.ar  300  PMB300      0.0000
      4  C4        41.8040    2.9380    5.5170 C.ar  300  PMB300      0.0000
      5  C5        42.2830    2.6720    4.2090 C.ar  300  PMB300      0.0000
      6  C6        41.3760    2.3420    3.1770 C.ar  300  PMB300      0.0000
      7  S1        38.8170    1.8630    2.1420 S.3   300  PMB300      0.0000
      8  O1        37.9480    3.0330    2.0010 O.3   300  PMB300      0.0000
      9  O2        38.1100    0.6360    2.6040 O.3   300  PMB300      0.0000
     10  O3        39.6150    1.6160    0.9450 O.3   300  PMB300      0.0000
     11 HG         42.8180    3.3650    7.0120 Hg    300  PMB300      0.0000
@<TRIPOS>BOND
     1    10     7    1
     2     8     7    1
     3     7     9    1
     4     7     1    1
     5     6     1   ar
     6     6     5   ar
     7     1     2   ar
     8     5     4   ar
     9     2     3   ar
    10     4     3   ar
    11     4    11    1
