@<TRIPOS>MOLECULE
1bhf_III_I_1.pdb
 45 45 0 0 0
SMALL
GASTEIGER

@<TRIPOS>ATOM
      1  C         27.6390   -3.7340   -1.7180 C.2   251  ACE251      0.2423
      2  O         28.2180   -4.1110   -0.6940 O.2   251  ACE251     -0.2733
      3  CH3       27.6430   -4.6120   -2.9520 C.3   251  ACE251      0.0964
      4  N         26.9090   -2.6180   -1.7950 N.am  252  PHE252     -0.1974
      5  CA        26.8160   -1.6200   -0.7320 C.3   252  PHE252      0.1770
      6  CB        27.3020   -0.2740   -1.2730 C.3   252  PHE252      0.0574
      7  CG        28.7740   -0.2820   -1.5270 C.ar  252  PHE252     -0.0200
      8  CD1       29.6750   -0.2880   -0.4600 C.ar  252  PHE252     -0.0045
      9  CE1       31.0600   -0.3520   -0.6900 C.ar  252  PHE252     -0.0040
     10  CD2       29.2780   -0.3380   -2.8210 C.ar  252  PHE252     -0.0045
     11  CE2       30.6650   -0.4050   -3.0430 C.ar  252  PHE252     -0.0040
     12  CZ        31.5700   -0.4150   -1.9850 C.ar  252  PHE252     -0.0110
     13  CH        33.0620   -0.5450   -2.2370 C.3   252  PHE252      0.1404
     14  CO        33.8610   -0.9830   -1.0180 C.2   252  PHE252      0.3692
     15  O1        33.5870   -2.0610   -0.4540 O.co2 252  PHE252     -0.2453
     16  O2        34.7620   -0.2370   -0.5980 O.co2 252  PHE252     -0.2453
     17  C         25.4310   -1.4430   -0.1020 C.2   252  PHE252      0.2619
     18  O         24.4480   -1.1160   -0.7770 O.2   252  PHE252     -0.2715
     19  N         25.3810   -1.6540    1.2010 N.am  253  GLU253     -0.1963
     20  CA        24.1590   -1.5130    1.9680 C.3   253  GLU253      0.1733
     21  C         23.8810   -0.0050    2.0920 C.2   253  GLU253      0.2616
     22  O         24.8030    0.8160    2.0170 O.2   253  GLU253     -0.2715
     23  CB        24.3850   -2.1560    3.3330 C.3   253  GLU253      0.0429
     24  CG        23.1690   -2.3880    4.1900 C.3   253  GLU253      0.1163
     25  CD        22.2020   -3.4460    3.6450 C.2   253  GLU253      0.3649
     26  OE1       22.4490   -4.0610    2.5940 O.co2 253  GLU253     -0.2457
     27  OE2       21.1720   -3.6520    4.2990 O.co2 253  GLU253     -0.2457
     28  N         22.6140    0.3660    2.2340 N.am  254  GLU254     -0.1963
     29  CA        22.2640    1.7710    2.3640 C.3   254  GLU254      0.1733
     30  C         21.3300    1.9310    3.5540 C.2   254  GLU254      0.2617
     31  O         20.7540    0.9580    4.0570 O.2   254  GLU254     -0.2715
     32  CB        21.5260    2.2980    1.1140 C.3   254  GLU254      0.0429
     33  CG        22.2080    2.1130   -0.2250 C.3   254  GLU254      0.1163
     34  CD        23.4140    3.0300   -0.4660 C.2   254  GLU254      0.3649
     35  OE1       23.7180    3.9120    0.3580 O.co2 254  GLU254     -0.2457
     36  OE2       24.0630    2.8480   -1.5050 O.co2 254  GLU254     -0.2457
     37  N         21.2330    3.1670    4.0250 N.am  255  ILE255     -0.1942
     38  CA        20.3300    3.5070    5.1040 C.3   255  ILE255      0.1977
     39  C         18.9680    3.7500    4.3940 C.2   255  ILE255      0.3842
     40  O         18.9640    4.3350    3.2920 O.co2 255  ILE255     -0.2437
     41  CB        20.8310    4.7620    5.8580 C.3   255  ILE255      0.0311
     42  CG1       21.9400    4.3630    6.8260 C.3   255  ILE255      0.0023
     43  CG2       19.6850    5.4810    6.5640 C.3   255  ILE255      0.0023
     44  CD1       22.5100    5.5200    7.6340 C.3   255  ILE255      0.0001
     45  OXT       17.9340    3.2380    4.8710 O.co2 255  ILE255     -0.2437
@<TRIPOS>BOND
     1    11    10   ar
     2    11    12   ar
     3     3     1    1
     4    10     7   ar
     5    13    12    1
     6    13    14    1
     7    12     9   ar
     8     4     1   am
     9     4     5    1
    10     1     2    2
    11     7     6    1
    12     7     8   ar
    13    36    34   ar
    14     6     5    1
    15    14    16   ar
    16    14    15   ar
    17    18    17    2
    18     5    17    1
    19     9     8   ar
    20    34    33    1
    21    34    35   ar
    22    33    32    1
    23    17    19   am
    24    32    29    1
    25    19    20    1
    26    20    21    1
    27    20    23    1
    28    22    21    2
    29    21    28   am
    30    28    29    1
    31    29    30    1
    32    26    25   ar
    33    40    39   ar
    34    23    24    1
    35    30    37   am
    36    30    31    2
    37    25    24    1
    38    25    27   ar
    39    37    38    1
    40    39    45   ar
    41    39    38    1
    42    38    41    1
    43    41    43    1
    44    41    42    1
    45    42    44    1
