@<TRIPOS>MOLECULE
1bhg_MAN_A_1.pdb
 11 11 0 0 0
SMALL
GASTEIGER

@<TRIPOS>ATOM
      1  C1       101.9510  100.2510   80.8770 C.3   655  MAN655      0.1777
      2  C2       101.5950  100.8160   82.2730 C.3   655  MAN655      0.2141
      3  C3       101.0750   99.6890   83.1570 C.3   655  MAN655      0.2173
      4  C4        99.9380   98.9360   82.4470 C.3   655  MAN655      0.2142
      5  C5       100.4170   98.4570   81.0700 C.3   655  MAN655      0.1810
      6  C6        99.4310   97.6890   80.2210 C.3   655  MAN655      0.2141
      7  O2       100.5780  101.8460   82.1670 O.3   655  MAN655     -0.2176
      8  O3       100.6060  100.2220   84.3930 O.3   655  MAN655     -0.2175
      9  O4        99.5410   97.8300   83.2450 O.3   655  MAN655     -0.2176
     10  O5       100.8320   99.5850   80.3020 O.3   655  MAN655     -0.3481
     11  O6       100.1230   96.8820   79.2750 O.3   655  MAN655     -0.2176
@<TRIPOS>BOND
     1    11     6    1
     2     6     5    1
     3    10     1    1
     4    10     5    1
     5     1     2    1
     6     5     4    1
     7     7     2    1
     8     2     3    1
     9     4     3    1
    10     4     9    1
    11     3     8    1
