@<TRIPOS>MOLECULE
1bhg_BMA_A_1.pdb
 11 11 0 0 0
SMALL
GASTEIGER

@<TRIPOS>ATOM
      1  C1       104.4400   97.2720   78.2570 C.3   653  BMA653      0.1777
      2  C2       103.7660   97.5240   79.5950 C.3   653  BMA653      0.2141
      3  C3       103.6290   99.0350   79.7250 C.3   653  BMA653      0.2173
      4  C4       104.9840   99.7100   79.6340 C.3   653  BMA653      0.2142
      5  C5       105.7580   99.2150   78.4270 C.3   653  BMA653      0.1810
      6  C6       107.1900   99.6420   78.3940 C.3   653  BMA653      0.2141
      7  O2       104.6120   97.0290   80.6250 O.3   653  BMA653     -0.2176
      8  O3       103.0390   99.3920   80.9820 O.3   653  BMA653     -0.2175
      9  O4       104.7820  101.1120   79.5200 O.3   653  BMA653     -0.2176
     10  O5       105.7580   97.7850   78.3530 O.3   653  BMA653     -0.3481
     11  O6       107.6270   99.4870   77.0470 O.3   653  BMA653     -0.2176
@<TRIPOS>BOND
     1    11     6    1
     2     1    10    1
     3     1     2    1
     4    10     5    1
     5     6     5    1
     6     5     4    1
     7     9     4    1
     8     2     3    1
     9     2     7    1
    10     4     3    1
    11     3     8    1
