@<TRIPOS>MOLECULE
1bhn_35G_A_1.pdb
 23 26 0 0 0
SMALL
GASTEIGER

@<TRIPOS>ATOM
      1  P         34.2520  -14.1330   37.0170 P.3   160  35G160      0.2141
      2  O1P       33.2410  -13.2430   36.3420 O.2   160  35G160     -0.5172
      3  O2P       35.2650  -13.2890   37.7120 O.3   160  35G160     -0.4373
      4  O5'       35.0290  -14.9640   36.0330 O.3   160  35G160     -0.3114
      5  C5'       34.7400  -16.3260   35.7300 C.3   160  35G160      0.1812
      6  C4'       33.4660  -16.6550   36.4720 C.3   160  35G160      0.1771
      7  O4'       33.0740  -18.0400   36.3990 O.3   160  35G160     -0.3327
      8  C3'       33.6030  -16.3680   37.9460 C.3   160  35G160      0.1857
      9  O3'       33.5280  -14.9630   38.0350 O.3   160  35G160     -0.3112
     10  C2'       32.4520  -17.1880   38.5430 C.3   160  35G160      0.2282
     11  O2'       31.1960  -16.5320   38.6310 O.3   160  35G160     -0.2159
     12  C1'       32.3890  -18.3920   37.5910 C.3   160  35G160      0.2292
     13  N9        33.0930  -19.5740   38.0910 N.pl3 160  35G160     -0.2354
     14  C8        34.2050  -20.3330   38.3980 C.3   160  35G160      0.2246
     15  N7        33.9050  -21.5450   38.8360 N.2   160  35G160     -0.2322
     16  C5        32.5050  -21.5810   38.7560 C.2   160  35G160      0.2182
     17  C6        31.5940  -22.6360   39.1020 C.1   160  35G160      0.2372
     18  O6        31.8240  -23.7810   39.5050 O.2   160  35G160     -0.2069
     19  N1        30.2660  -22.2130   38.9400 N.2   160  35G160     -0.2485
     20  C2        29.8470  -20.9790   38.4240 C.1   160  35G160      0.2531
     21  N2        28.5200  -20.7230   38.2410 N.pl3 160  35G160     -0.0226
     22  N3        30.6990  -20.0000   38.1060 N.2   160  35G160     -0.3074
     23  C4        31.9930  -20.3810   38.2950 C.2   160  35G160      0.2300
@<TRIPOS>BOND
     1     5     4    1
     2     5     6    1
     3     4     1    1
     4     2     1    2
     5     7     6    1
     6     7    12    1
     7     6     8    1
     8     1     3    1
     9     1     9    1
    10    12    13    1
    11    12    10    1
    12     8     9    1
    13     8    10    1
    14    13    23    1
    15    13    14    1
    16    22    23    2
    17    22    20    2
    18    21    20    1
    19    23    16    1
    20    14    15    1
    21    20    19    2
    22    10    11    1
    23    16    15    2
    24    16    17    1
    25    19    17    2
    26    17    18    2
