@<TRIPOS>MOLECULE
1bhn_GDP_A_1.pdb
 28 30 0 0 0
SMALL
GASTEIGER

@<TRIPOS>ATOM
      1  PB        37.3810  -14.4680   37.0360 P.3   161  GDP161      0.5373
      2  O1B       38.6360  -14.3890   36.2200 O.3   161  GDP161     -0.1143
      3  O2B       37.5630  -13.8370   38.3750 O.3   161  GDP161     -0.1143
      4  O3B       36.4010  -14.0130   36.0190 O.2   161  GDP161     -0.2221
      5  O3A       37.1420  -16.0650   37.2620 O.3   161  GDP161     -0.2261
      6  PA        37.2530  -17.2350   36.1290 P.3   161  GDP161      0.2231
      7  O1A       37.7680  -16.2160   35.1700 O.2   161  GDP161     -0.5169
      8  O2A       37.9160  -18.5660   36.1040 O.3   161  GDP161     -0.4370
      9  O5'       35.8010  -17.4780   35.8920 O.3   161  GDP161     -0.3111
     10  C5'       34.9310  -16.3750   35.8550 C.3   161  GDP161      0.1813
     11  C4'       33.7290  -16.6080   36.7470 C.3   161  GDP161      0.1799
     12  O4'       33.1850  -17.9140   36.4560 O.3   161  GDP161     -0.3326
     13  C3'       33.9620  -16.6800   38.2500 C.3   161  GDP161      0.2158
     14  O3'       34.0650  -15.3830   38.8140 O.3   161  GDP161     -0.2175
     15  C2'       32.6530  -17.3460   38.6860 C.3   161  GDP161      0.2310
     16  O2'       31.5780  -16.4620   38.9480 O.3   161  GDP161     -0.2158
     17  C1'       32.3480  -18.3050   37.5310 C.3   161  GDP161      0.2293
     18  N9        32.7400  -19.6560   37.9100 N.pl3 161  GDP161     -0.2354
     19  C8        34.0350  -20.1500   38.0080 C.3   161  GDP161      0.2246
     20  N7        34.1430  -21.3690   38.5040 N.2   161  GDP161     -0.2322
     21  C5        32.7960  -21.6700   38.8050 C.2   161  GDP161      0.2182
     22  C6        32.2100  -22.8530   39.3790 C.1   161  GDP161      0.2372
     23  O6        32.7950  -23.8950   39.6850 O.2   161  GDP161     -0.2069
     24  N1        30.8200  -22.7430   39.5380 N.2   161  GDP161     -0.2485
     25  C2        30.0660  -21.6360   39.2210 C.1   161  GDP161      0.2531
     26  N2        28.7430  -21.6980   39.4330 N.pl3 161  GDP161     -0.0226
     27  N3        30.5920  -20.5240   38.6720 N.2   161  GDP161     -0.3074
     28  C4        31.9380  -20.6220   38.4960 C.2   161  GDP161      0.2300
@<TRIPOS>BOND
     1     7     6    2
     2    10     9    1
     3    10    11    1
     4     9     6    1
     5     4     1    2
     6     8     6    1
     7     6     5    1
     8     2     1    1
     9    12    11    1
    10    12    17    1
    11    11    13    1
    12     1     5    1
    13     1     3    1
    14    17    18    1
    15    17    15    1
    16    18    19    1
    17    18    28    1
    18    19    20    1
    19    13    15    1
    20    13    14    1
    21    28    27    2
    22    28    21    1
    23    20    21    2
    24    27    25    2
    25    15    16    1
    26    21    22    1
    27    25    26    1
    28    25    24    2
    29    22    24    2
    30    22    23    2
