@<TRIPOS>MOLECULE
1bht_EPE_A_1.pdb
 15 15 0 0 0
SMALL
GASTEIGER

@<TRIPOS>ATOM
      1  N1        94.7800   26.6650   59.4860 N.3     1  EPE1       -0.2689
      2  C2        93.5250   26.1780   58.7690 C.3     1  EPE1        0.0897
      3  C3        92.4730   27.2650   58.8660 C.3     1  EPE1        0.0897
      4  N4        92.9710   28.5840   58.2530 N.3     1  EPE1       -0.2681
      5  C5        94.2790   29.0010   58.9120 C.3     1  EPE1        0.0897
      6  C6        95.2930   27.9050   58.7730 C.3     1  EPE1        0.0897
      7  C7        91.9350   29.6960   58.5280 C.3     1  EPE1        0.1081
      8  C8        90.8300   29.6750   57.4620 C.3     1  EPE1        0.1993
      9  O8        89.6010   30.4910   57.9640 O.3     1  EPE1       -0.2189
     10  C9        95.8850   25.6310   59.3960 C.3     1  EPE1        0.0939
     11  C10       95.4050   24.2730   59.8370 C.3     1  EPE1        0.1225
     12  S         96.9050   23.3320   60.1310 S.3     1  EPE1       -0.1946
     13  O1S       97.5690   23.0390   58.8080 O.3     1  EPE1       -0.3074
     14  O2S       96.5950   22.0370   60.8410 O.3     1  EPE1       -0.3074
     15  O3S       97.7920   24.2030   60.9600 O.3     1  EPE1       -0.3074
@<TRIPOS>BOND
     1     8     9    1
     2     8     7    1
     3     4     7    1
     4     4     3    1
     5     4     5    1
     6     2     3    1
     7     2     1    1
     8     6     5    1
     9     6     1    1
    10    13    12    1
    11    10     1    1
    12    10    11    1
    13    11    12    1
    14    12    14    1
    15    12    15    1
