@<TRIPOS>MOLECULE
1bhx_III_E_1.pdb
 46 46 0 0 0
SMALL
GASTEIGER

@<TRIPOS>ATOM
      1  N          7.2500  -12.7830    0.3990 N.3    55  ASP55      -0.1225
      2  CA         6.0560  -12.3990    1.2310 C.3    55  ASP55       0.1805
      3  C          5.8620  -10.8850    1.0740 C.2    55  ASP55       0.2598
      4  O          4.7550  -10.3920    0.8560 O.2    55  ASP55      -0.2718
      5  CB         6.3260  -12.7890    2.7030 C.3    55  ASP55       0.1424
      6  CG         5.1250  -12.5690    3.6490 C.2    55  ASP55       0.3668
      7  OD1        3.9430  -12.5370    3.2310 O.co2  55  ASP55      -0.2456
      8  OD2        5.3830  -12.4410    4.8610 O.co2  55  ASP55      -0.2456
      9  N          6.9820  -10.1740    1.1420 N.am   56  PHE56      -0.1962
     10  CA         6.9980   -8.7230    1.0200 C.3    56  PHE56       0.1771
     11  C          6.8420   -8.2390   -0.4210 C.2    56  PHE56       0.2619
     12  O          7.2780   -8.9110   -1.3730 O.2    56  PHE56      -0.2715
     13  CB         8.2930   -8.1580    1.6380 C.3    56  PHE56       0.0574
     14  CG         8.4210   -8.4020    3.1300 C.ar   56  PHE56      -0.0200
     15  CD1        8.6810   -9.6810    3.6360 C.ar   56  PHE56      -0.0042
     16  CD2        8.2810   -7.3570    4.0320 C.ar   56  PHE56      -0.0042
     17  CE1        8.8040   -9.9220    5.0150 C.ar   56  PHE56      -0.0003
     18  CE2        8.3930   -7.5820    5.4110 C.ar   56  PHE56      -0.0003
     19  CZ         8.6550   -8.8660    5.9010 C.ar   56  PHE56      -0.0000
     20  N          6.1500   -7.1140   -0.5470 N.am   57  GLU57      -0.1963
     21  CA         5.9070   -6.4810   -1.8170 C.3    57  GLU57       0.1733
     22  C          7.2310   -5.8230   -2.2040 C.2    57  GLU57       0.2616
     23  O          7.9730   -5.2630   -1.4010 O.2    57  GLU57      -0.2715
     24  CB         4.8080   -5.4490   -1.6760 C.3    57  GLU57       0.0429
     25  CG         4.6480   -4.5540   -2.8650 C.3    57  GLU57       0.1163
     26  CD         3.5020   -3.5920   -2.7080 C.2    57  GLU57       0.3649
     27  OE1        2.7270   -3.7290   -1.7450 O.co2  57  GLU57      -0.2457
     28  OE2        3.3610   -2.6940   -3.5590 O.co2  57  GLU57      -0.2457
     29  N          7.5210   -5.9280   -3.4770 N.am   58  GLU58      -0.1963
     30  CA         8.7130   -5.3990   -4.1070 C.3    58  GLU58       0.1733
     31  C          8.7980   -3.8880   -3.9430 C.2    58  GLU58       0.2617
     32  O          7.7920   -3.1620   -4.0360 O.2    58  GLU58      -0.2715
     33  CB         8.7260   -5.8760   -5.5780 C.3    58  GLU58       0.0429
     34  CG         7.3870   -5.8700   -6.4210 C.3    58  GLU58       0.1163
     35  CD         6.2370   -6.8510   -6.0050 C.2    58  GLU58       0.3649
     36  OE1        6.4890   -8.0210   -5.6280 O.co2  58  GLU58      -0.2457
     37  OE2        5.0540   -6.4340   -6.0330 O.co2  58  GLU58      -0.2457
     38  N          9.9950   -3.4570   -3.5800 N.am   59  ILE59      -0.1942
     39  CA        10.2620   -2.0490   -3.3790 C.3    59  ILE59       0.1977
     40  C         10.9960   -1.4790   -4.6010 C.2    59  ILE59       0.3842
     41  O         11.5500   -2.3110   -5.3610 O.co2  59  ILE59      -0.2437
     42  CB        11.0430   -1.8230   -2.0400 C.3    59  ILE59       0.0311
     43  CG1       12.3920   -2.5270   -2.0460 C.3    59  ILE59       0.0023
     44  CG2       10.2180   -2.3740   -0.8780 C.3    59  ILE59       0.0023
     45  CD1       13.1800   -2.2880   -0.7890 C.3    59  ILE59       0.0001
     46  OXT       11.0010   -0.2340   -4.8030 O.co2  59  ILE59      -0.2437
@<TRIPOS>BOND
     1    34    35    1
     2    34    33    1
     3    37    35   ar
     4    35    36   ar
     5    33    30    1
     6    41    40   ar
     7    46    40   ar
     8    40    39    1
     9    30    31    1
    10    30    29    1
    11    32    31    2
    12    31    38   am
    13    38    39    1
    14    28    26   ar
    15    29    22   am
    16    39    42    1
    17    25    26    1
    18    25    24    1
    19    26    27   ar
    20    22    21    1
    21    22    23    2
    22    43    42    1
    23    43    45    1
    24    42    44    1
    25    21    24    1
    26    21    20    1
    27    12    11    2
    28    20    11   am
    29    11    10    1
    30     1     2    1
    31     4     3    2
    32    10     9    1
    33    10    13    1
    34     3     9   am
    35     3     2    1
    36     2     5    1
    37    13    14    1
    38     5     6    1
    39    14    15   ar
    40    14    16   ar
    41     7     6   ar
    42    15    17   ar
    43     6     8   ar
    44    16    18   ar
    45    17    19   ar
    46    18    19   ar
