@<TRIPOS>MOLECULE
1bhx_R56_F_1.pdb
 31 33 0 0 0
SMALL
GASTEIGER

@<TRIPOS>ATOM
      1  C1        22.1690  -14.5920   25.7200 C.ar    1  R561       -0.0000
      2  C3        22.1450  -15.9400   25.3790 C.ar    1  R561       -0.0003
      3  C5        20.9710  -16.7030   25.6290 C.ar    1  R561       -0.0025
      4  C7        19.8390  -16.0960   26.2060 C.ar    1  R561        0.0030
      5  C8        19.8790  -14.7540   26.5500 C.ar    1  R561       -0.0025
      6  C10       21.0250  -14.0020   26.3100 C.ar    1  R561       -0.0003
      7  C12       18.5670  -16.9220   26.4870 C.3     1  R561        0.1969
      8  S15       17.8430  -17.3940   24.8500 S.O2    1  R561        0.0620
      9  O16       18.8810  -18.1230   24.0360 O.2     1  R561       -0.1558
     10  O17       16.5900  -17.9970   25.0660 O.2     1  R561       -0.1558
     11  N18       17.6520  -15.8550   24.1860 N.3     1  R561       -0.0739
     12  C20       18.0550  -15.5820   22.8040 C.3     1  R561        0.1734
     13  C22       17.3480  -14.3450   22.3100 C.2     1  R561        0.2443
     14  O23       16.3540  -13.9150   22.9140 O.2     1  R561       -0.2733
     15  N24       17.8480  -13.7720   21.1870 N.am    1  R561       -0.2634
     16  C25       19.0090  -14.3360   20.5480 C.3     1  R561        0.1239
     17  C27       20.1060  -14.6080   21.5470 C.3     1  R561        0.0331
     18  C30       19.5960  -15.4160   22.7580 C.3     1  R561        0.0313
     19  S33       19.5770  -13.0300   19.5260 S.3     1  R561       -0.1188
     20  C34       17.9100  -12.3660   19.2870 C.3     1  R561        0.0884
     21  C37       17.2240  -12.5620   20.5980 C.3     1  R561        0.1650
     22  C39       15.6820  -12.7390   20.3790 C.2     1  R561        0.2604
     23  O40       15.2270  -13.7840   19.9280 O.2     1  R561       -0.2715
     24  N41       14.8940  -11.6530   20.6710 N.am    1  R561       -0.2039
     25  C43       13.4600  -11.7790   20.4810 C.3     1  R561        0.1189
     26  C46       12.7470  -10.6020   21.1150 C.3     1  R561        0.0703
     27  C49       12.8600  -10.7240   22.6160 C.3     1  R561        0.2222
     28  N52       12.0620  -11.8660   23.1110 N.pl3   1  R561       -0.0865
     29  C54       11.1950  -11.7100   24.0880 C.cat   1  R561        0.5346
     30  N55       11.0320  -10.5560   24.6390 N.pl3   1  R561        0.1354
     31  N58       10.5070  -12.7250   24.5240 N.pl3   1  R561        0.1354
@<TRIPOS>BOND
     1    20    19    1
     2    20    21    1
     3    19    16    1
     4    23    22    2
     5    22    21    1
     6    22    24   am
     7    25    24    1
     8    25    26    1
     9    16    15    1
    10    16    17    1
    11    21    15    1
    12    26    27    1
    13    15    13   am
    14    17    18    1
    15    13    12    1
    16    13    14    2
    17    27    28    1
    18    18    12    1
    19    12    11    1
    20    28    29    2
    21     9     8    2
    22    29    31    1
    23    29    30    1
    24    11     8    1
    25     8    10    2
    26     8     7    1
    27     2     3   ar
    28     2     1   ar
    29     3     4   ar
    30     1     6   ar
    31     4     7    1
    32     4     5   ar
    33     6     5   ar
