@<TRIPOS>MOLECULE
1bi9_NAD_A_1.pdb
 27 29 0 0 0
SMALL
GASTEIGER

@<TRIPOS>ATOM
      1  PA        15.8620   11.3900   16.5890 P.3   701  NAD701      0.2231
      2  O1A       14.5890   11.5070   17.3260 O.3   701  NAD701     -0.4370
      3  O2A       16.2790   10.0630   15.9930 O.2   701  NAD701     -0.5169
      4  O5B       17.0510   11.9570   17.4860 O.3   701  NAD701     -0.3111
      5  C5B       17.0920   13.3100   17.9260 C.3   701  NAD701      0.1813
      6  C4B       17.7400   13.4540   19.2800 C.3   701  NAD701      0.1821
      7  O4B       16.9010   12.6500   20.0970 O.3   701  NAD701     -0.3135
      8  C3B       19.1950   12.9980   19.4500 C.3   701  NAD701      0.2184
      9  O3B       19.9690   13.8310   20.3860 O.3   701  NAD701     -0.2174
     10  C2B       19.0530   11.5670   19.9380 C.3   701  NAD701      0.2570
     11  O2B       20.1950   11.0260   20.6290 O.3   701  NAD701     -0.2130
     12  C1B       17.7850   11.6690   20.7940 C.3   701  NAD701      0.3186
     13  N9A       17.1040   10.2980   21.0330 N.pl3 701  NAD701     -0.1439
     14  C8A       16.8720    9.2630   20.1340 C.3   701  NAD701      0.3377
     15  N7A       15.9830    8.3940   20.5820 N.2   701  NAD701     -0.2095
     16  C5A       15.9300    8.6780   21.8650 C.2   701  NAD701      0.2526
     17  C6A       15.2830    7.8840   22.8700 C.2   701  NAD701      0.4393
     18  N6A       14.8210    6.6880   22.5580 N.pl3 701  NAD701      0.2180
     19  N1A       15.1840    8.4290   24.1840 N.2   701  NAD701      0.0021
     20  C2A       15.7340    9.6730   24.4770 C.3   701  NAD701      0.5254
     21  N3A       16.5490   10.3130   23.5650 N.2   701  NAD701     -0.0055
     22  C4A       16.5910    9.8910   22.1990 C.2   701  NAD701      0.3518
     23  O3        15.8730   12.4040   15.3520 O.3   701  NAD701     -0.2261
     24  PN        16.4930   12.2310   13.8680 P.3   701  NAD701      0.5373
     25  O1N       15.3650   12.3360   12.8820 O.2   701  NAD701     -0.2221
     26  O2N       17.4380   11.0350   13.7590 O.3   701  NAD701     -0.1143
     27  O5D       17.3890   13.5730   13.6520 O.3   701  NAD701     -0.1143
@<TRIPOS>BOND
     1    25    24    2
     2    27    24    1
     3    26    24    1
     4    24    23    1
     5    23     1    1
     6     3     1    2
     7     1     2    1
     8     1     4    1
     9     4     5    1
    10     5     6    1
    11     6     8    1
    12     6     7    1
    13     8    10    1
    14     8     9    1
    15    10    11    1
    16    10    12    1
    17     7    12    1
    18    14    15    1
    19    14    13    1
    20    15    16    2
    21    12    13    1
    22    13    22    1
    23    16    22    1
    24    16    17    1
    25    22    21    2
    26    18    17    1
    27    17    19    2
    28    21    20    1
    29    19    20    1
