@<TRIPOS>MOLECULE
1bib_BTN_A_1.pdb
 16 17 0 0 0
SMALL
GASTEIGER

@<TRIPOS>ATOM
      1  C11       82.2190  112.4840   74.4550 C.2   500  BTN500      0.3649
      2  O11       82.6170  111.3180   74.8670 O.co2 500  BTN500     -0.2457
      3  O12       82.4720  112.8250   73.3800 O.co2 500  BTN500     -0.2457
      4  C10       81.1370  113.2790   75.1470 C.3   500  BTN500      0.1141
      5  C9        81.0200  112.9650   76.2640 C.3   500  BTN500      0.0118
      6  C8        82.5220  113.3850   76.8810 C.3   500  BTN500      0.0015
      7  C7        82.9230  112.2310   77.8350 C.3   500  BTN500      0.0129
      8  C2        84.0090  112.7880   78.8790 C.3   500  BTN500      0.0729
      9  S1        85.6260  112.4310   78.3070 S.3   500  BTN500     -0.1369
     10  C6        86.3420  112.8310   79.9940 C.3   500  BTN500      0.0848
     11  C5        85.2920  112.2970   81.0200 C.3   500  BTN500      0.1509
     12  N1        85.7370  110.9850   81.4020 N.2   500  BTN500     -0.1859
     13  C3        84.8300  110.0170   80.9960 C.1   500  BTN500      0.2386
     14  O3        84.9370  108.8430   81.4050 O.2   500  BTN500     -0.2023
     15  N2        83.9320  110.6210   80.1880 N.2   500  BTN500     -0.1860
     16  C4        83.9790  111.9740   80.2140 C.3   500  BTN500      0.1500
@<TRIPOS>BOND
     1     3     1   ar
     2     1     2   ar
     3     1     4    1
     4     4     5    1
     5     5     6    1
     6     6     7    1
     7     7     8    1
     8     9     8    1
     9     9    10    1
    10     8    16    1
    11    10    11    1
    12    15    16    1
    13    15    13    2
    14    16    11    1
    15    13    12    2
    16    13    14    2
    17    11    12    1
