@<TRIPOS>MOLECULE
1bid_UMP_A_1.pdb
 20 21 0 0 0
SMALL
GASTEIGER

@<TRIPOS>ATOM
      1  N1       -28.5430   -9.0780   20.2240 N.am  603  UMP603     -0.1790
      2  C2       -27.5510   -8.0770   20.2090 C.1   603  UMP603      0.2844
      3  N3       -28.0480   -6.7810   20.0290 N.2   603  UMP603     -0.2452
      4  C4       -29.3980   -6.4200   19.8690 C.1   603  UMP603      0.2182
      5  C5       -30.3240   -7.5380   19.8810 C.2   603  UMP603      0.1242
      6  C6       -29.8420   -8.8370   20.0620 C.2   603  UMP603      0.0928
      7  O2       -26.3400   -8.2780   20.3190 O.2   603  UMP603     -0.1918
      8  O4       -29.7510   -5.2410   19.7780 O.2   603  UMP603     -0.2085
      9  C1'      -28.2290  -10.4960   20.4960 C.3   603  UMP603      0.2090
     10  C2'      -28.0000  -10.7890   21.9800 C.3   603  UMP603      0.0874
     11  C3'      -28.1280  -12.3030   22.0280 C.3   603  UMP603      0.1857
     12  C4'      -29.3790  -12.6450   21.2020 C.3   603  UMP603      0.1774
     13  O3'      -26.9690  -12.8550   21.3600 O.3   603  UMP603     -0.2203
     14  O4'      -29.2530  -11.5700   20.1410 O.3   603  UMP603     -0.3339
     15  C5'      -30.6580  -12.3990   22.0160 C.3   603  UMP603      0.1858
     16  O5'      -30.8250  -13.4300   23.0600 O.3   603  UMP603     -0.2675
     17  P        -31.5200  -13.2730   24.4800 P.3   603  UMP603      0.5327
     18  OP1      -30.7200  -12.2190   25.1010 O.3   603  UMP603     -0.1145
     19  OP2      -32.9700  -12.9990   24.5930 O.2   603  UMP603     -0.2224
     20  OP3      -31.2890  -14.5290   25.2030 O.3   603  UMP603     -0.1145
@<TRIPOS>BOND
     1     8     4    2
     2     4     5    1
     3     4     3    2
     4     5     6    2
     5     3     2    2
     6     6     1    1
     7    14     9    1
     8    14    12    1
     9     2     1   am
    10     2     7    2
    11     1     9    1
    12     9    10    1
    13    12    15    1
    14    12    11    1
    15    13    11    1
    16    10    11    1
    17    15    16    1
    18    16    17    1
    19    17    19    2
    20    17    18    1
    21    17    20    1
