@<TRIPOS>MOLECULE
1bif_AGS_A_1.pdb
 31 33 0 0 0
SMALL
GASTEIGER

@<TRIPOS>ATOM
      1  PG        56.6360   55.4400   55.3520 P.3   500  AGS500      0.4340
      2  S1G       56.2820   56.9940   54.5250 S.3   500  AGS500      0.0416
      3  O2G       55.7280   54.4050   54.7660 O.2   500  AGS500     -0.2423
      4  O3G       58.0610   55.0420   55.3840 O.3   500  AGS500     -0.1305
      5  PB        54.9820   55.0760   57.6580 P.3   500  AGS500      0.2262
      6  O1B       54.2270   54.2250   56.7100 O.2   500  AGS500     -0.5168
      7  O2B       54.3390   56.3520   58.0640 O.3   500  AGS500     -0.4369
      8  O3B       56.3280   55.4950   56.9520 O.3   500  AGS500     -0.2405
      9  PA        54.7870   52.6730   59.2950 P.3   500  AGS500      0.2189
     10  O1A       55.8860   52.0110   58.5530 O.2   500  AGS500     -0.5170
     11  O2A       53.3740   52.2730   59.1300 O.3   500  AGS500     -0.4371
     12  O3A       55.0390   54.3170   59.0130 O.3   500  AGS500     -0.2701
     13  O5'       55.0200   52.6950   60.8680 O.3   500  AGS500     -0.3112
     14  C5'       54.6570   51.6040   61.6730 C.3   500  AGS500      0.1813
     15  C4'       55.0540   52.0000   63.1000 C.3   500  AGS500      0.1821
     16  O4'       54.3180   53.1210   63.4820 O.3   500  AGS500     -0.3135
     17  C3'       54.8670   50.9240   64.1730 C.3   500  AGS500      0.2184
     18  O3'       55.8420   51.1260   65.1760 O.3   500  AGS500     -0.2174
     19  C2'       53.5330   51.3820   64.7930 C.3   500  AGS500      0.2570
     20  O2'       53.2940   50.9060   66.1370 O.3   500  AGS500     -0.2130
     21  C1'       53.6990   52.9150   64.7010 C.3   500  AGS500      0.3186
     22  N9        52.3690   53.5450   64.6220 N.pl3 500  AGS500     -0.1439
     23  C8        51.1210   53.0150   64.3520 C.3   500  AGS500      0.3377
     24  N7        50.0670   53.8020   64.4410 N.2   500  AGS500     -0.2095
     25  C5        50.6820   54.9850   64.7810 C.2   500  AGS500      0.2526
     26  C6        50.1810   56.2680   65.0820 C.2   500  AGS500      0.4393
     27  N6        48.7620   56.5640   64.9510 N.pl3 500  AGS500      0.2180
     28  N1        51.0490   57.2300   65.4960 N.2   500  AGS500      0.0021
     29  C2        52.3990   57.0100   65.4490 C.3   500  AGS500      0.5254
     30  N3        53.0220   55.8490   65.1440 N.2   500  AGS500     -0.0055
     31  C4        52.1060   54.8660   64.8160 C.2   500  AGS500      0.3518
@<TRIPOS>BOND
     1     2     1    1
     2     3     1    2
     3     1     4    1
     4     1     8    1
     5     6     5    2
     6     8     5    1
     7     5     7    1
     8     5    12    1
     9    10     9    2
    10    12     9    1
    11    11     9    1
    12     9    13    1
    13    13    14    1
    14    14    15    1
    15    15    16    1
    16    15    17    1
    17    16    21    1
    18    17    19    1
    19    17    18    1
    20    23    24    1
    21    23    22    1
    22    24    25    2
    23    22    21    1
    24    22    31    1
    25    21    19    1
    26    25    31    1
    27    25    26    1
    28    19    20    1
    29    31    30    2
    30    27    26    1
    31    26    28    2
    32    30    29    1
    33    29    28    1
