@<TRIPOS>MOLECULE
1bij_HEM_A_1.pdb
 43 50 0 0 0
SMALL
GASTEIGER

@<TRIPOS>ATOM
      1 FE        -31.5170  -24.9810   82.5870 Fe    142  HEM142      0.0000
      2  CHA      -29.8290  -24.8050   79.6970 C.2   142  HEM142      0.0000
      3  CHB      -33.3110  -27.5450   81.4300 C.2   142  HEM142      0.0000
      4  CHC      -33.3430  -25.1080   85.4570 C.2   142  HEM142      0.0000
      5  CHD      -30.7140  -21.7100   83.3690 C.2   142  HEM142      0.0000
      6  NA       -31.5310  -25.9930   80.8990 N.ar  142  HEM142      0.0000
      7  C1A      -30.7020  -25.8710   79.8320 C.ar  142  HEM142      0.0000
      8  C2A      -30.9840  -26.8240   78.7760 C.ar  142  HEM142      0.0000
      9  C3A      -32.0480  -27.5840   79.2360 C.ar  142  HEM142      0.0000
     10  C4A      -32.3740  -27.0240   80.5560 C.ar  142  HEM142      0.0000
     11  CMA      -32.6730  -28.8200   78.5410 C.3   142  HEM142      0.0000
     12  CAA      -30.3260  -26.8280   77.3820 C.3   142  HEM142      0.0000
     13  CBA      -29.1080  -27.7210   77.1820 C.3   142  HEM142      0.0000
     14  CGA      -28.2090  -27.2570   76.0320 C.2   142  HEM142      0.0000
     15  O1A      -28.6120  -26.3500   75.2850 O.co2 142  HEM142      0.0000
     16  O2A      -27.0840  -27.7780   75.8650 O.co2 142  HEM142      0.0000
     17  NB       -33.0200  -26.1060   83.2650 N.2   142  HEM142      0.0000
     18  C1B      -33.5810  -27.1910   82.6960 C.2   142  HEM142      0.0000
     19  C2B      -34.4910  -27.9120   83.6200 C.2   142  HEM142      0.0000
     20  C3B      -34.6090  -27.1320   84.7480 C.2   142  HEM142      0.0000
     21  C4B      -33.6680  -26.0480   84.5220 C.2   142  HEM142      0.0000
     22  CMB      -35.3440  -29.1740   83.3200 C.3   142  HEM142      0.0000
     23  CAB      -35.6220  -27.2480   85.7150 C.3   142  HEM142      0.0000
     24  CBB      -35.5020  -27.5740   87.1050 C.3   142  HEM142      0.0000
     25  NC       -31.8940  -23.7180   84.0920 N.ar  142  HEM142      0.0000
     26  C1C      -32.5780  -24.0200   85.2660 C.ar  142  HEM142      0.0000
     27  C2C      -32.6790  -22.8780   86.1850 C.ar  142  HEM142      0.0000
     28  C3C      -32.0230  -21.8490   85.5820 C.ar  142  HEM142      0.0000
     29  C4C      -31.5320  -22.3740   84.2570 C.ar  142  HEM142      0.0000
     30  CMC      -33.5880  -22.7990   87.3910 C.3   142  HEM142      0.0000
     31  CAC      -32.0050  -20.5290   86.0850 C.3   142  HEM142      0.0000
     32  CBC      -33.1460  -19.6560   86.3860 C.3   142  HEM142      0.0000
     33  ND       -30.3710  -23.5710   81.8090 N.2   142  HEM142      0.0000
     34  C1D      -30.1400  -22.2540   82.2410 C.2   142  HEM142      0.0000
     35  C2D      -29.3790  -21.4880   81.1990 C.2   142  HEM142      0.0000
     36  C3D      -29.1890  -22.4060   80.2210 C.2   142  HEM142      0.0000
     37  C4D      -29.7360  -23.6790   80.5790 C.2   142  HEM142      0.0000
     38  CMD      -28.8300  -20.0500   81.1820 C.3   142  HEM142      0.0000
     39  CAD      -28.3500  -22.2710   79.0230 C.3   142  HEM142      0.0000
     40  CBD      -29.0570  -21.7100   77.8140 C.3   142  HEM142      0.0000
     41  CGD      -28.0810  -21.1330   76.8350 C.2   142  HEM142      0.0000
     42  O1D      -27.7820  -21.8160   75.8400 O.co2 142  HEM142      0.0000
     43  O2D      -27.5660  -20.0220   77.0830 O.co2 142  HEM142      0.0000
@<TRIPOS>BOND
     1    15    14   ar
     2    42    41   ar
     3    16    14   ar
     4    14    13    1
     5    41    43   ar
     6    41    40    1
     7    13    12    1
     8    12     8    1
     9    40    39    1
    10    11     9    1
    11     8     9   ar
    12     8     7   ar
    13    39    36    1
    14     9    10   ar
    15     2     7    2
    16     2    37    1
    17     7     6   ar
    18    36    37    1
    19    36    35    2
    20    10     6   ar
    21    10     3    2
    22    37    33    2
    23     6     1    1
    24    38    35    1
    25    35    34    1
    26     3    18    1
    27    33    34    1
    28    33     1    1
    29    34     5    2
    30     1    17    1
    31     1    25    1
    32    18    17    2
    33    18    19    1
    34    17    21    1
    35    22    19    1
    36     5    29    1
    37    19    20    2
    38    25    29   ar
    39    25    26   ar
    40    29    28   ar
    41    21    20    1
    42    21     4    2
    43    20    23    1
    44    26     4    1
    45    26    27   ar
    46    28    31    1
    47    28    27   ar
    48    23    24    1
    49    31    32    1
    50    27    30    1
