@<TRIPOS>MOLECULE
1bil_0IU_A_1.pdb
 45 47 0 0 0
SMALL
GASTEIGER

@<TRIPOS>ATOM
      1  C1        42.6780   61.3260   49.5400 C.3   391  0IU391      0.1150
      2  C2        43.8000   62.4050   47.5520 C.3   391  0IU391      0.1150
      3  C         41.6350   61.3190   47.3170 C.2   391  0IU391      0.2460
      4  O         41.6010   61.6280   46.1740 O.2   391  0IU391     -0.2730
      5  N         42.6860   61.6600   48.1050 N.am  391  0IU391     -0.2746
      6  N1        39.5960   60.0250   46.8630 N.am  391  0IU391     -0.2691
      7  C3        38.8020   60.9020   46.2930 C.2   391  0IU391      0.2267
      8  O1        38.9480   62.0460   46.6140 O.2   391  0IU391     -0.2748
      9  CA        40.5160   60.4930   47.9050 C.3   391  0IU391      0.1795
     10  CB        39.5960   58.6350   46.4440 C.3   391  0IU391      0.0984
     11  CG2       41.0710   58.3440   46.0070 C.3   391  0IU391      0.0264
     12  CG        39.2750   57.7620   47.6730 C.ar  391  0IU391     -0.0043
     13  CD1       40.0460   56.7350   47.9830 C.ar  391  0IU391     -0.0027
     14  CD2       38.2760   58.0740   48.4460 C.ar  391  0IU391     -0.0027
     15  CE1       39.8170   56.0270   49.0960 C.ar  391  0IU391     -0.0003
     16  CE2       38.0320   57.3560   49.5440 C.ar  391  0IU391     -0.0003
     17  CZ        38.7890   56.3200   49.8620 C.ar  391  0IU391     -0.0000
     18  C4        36.2920   61.0310   43.5100 C.2   391  0IU391      0.2418
     19  O2        36.5720   60.1740   42.6580 O.2   391  0IU391     -0.2733
     20  CA1       37.4220   61.6330   44.2900 C.3   391  0IU391      0.0939
     21  CN        37.7980   60.4680   45.2390 C.3   391  0IU391      0.0948
     22  CB1       38.6110   61.9110   43.3530 C.3   391  0IU391      0.0650
     23  CG1       38.4330   63.2880   42.7490 C.2   391  0IU391      0.1008
     24 CD21       37.8310   63.4240   41.5910 C.3   391  0IU391      0.1202
     25  SE2       37.6200   65.1320   41.1860 S.3   391  0IU391     -0.0568
     26 CE11       38.4270   65.4480   42.6970 C.2   391  0IU391      0.2457
     27  ND1       38.7640   64.4180   43.3590 N.2   391  0IU391     -0.3856
     28  NZ        38.6720   66.6810   43.0370 N.pl3 391  0IU391     -0.0867
     29  C11       32.9370   61.5410   42.5010 C.3   391  0IU391      0.2018
     30  C21       33.8720   60.5950   43.2990 C.3   391  0IU391      0.1281
     31  C31       33.0270   59.8490   44.3920 C.3   391  0IU391      0.0244
     32  C1'       33.8770   59.1580   45.4910 C.3   391  0IU391      0.0018
     33  C2'       32.9940   58.8390   46.7460 C.3   391  0IU391      0.0001
     34  C3'       33.8070   57.9750   47.7630 C.3   391  0IU391      0.0000
     35  C4'       34.1990   56.6280   47.0890 C.3   391  0IU391      0.0000
     36  C5'       35.1680   56.9920   45.9410 C.3   391  0IU391      0.0000
     37  C6'       34.3530   57.8270   44.9140 C.3   391  0IU391      0.0001
     38  N2        35.0080   61.2930   43.9130 N.am  391  0IU391     -0.2045
     39  O11       32.7980   62.8060   43.1460 O.3   391  0IU391     -0.2186
     40  C12       33.5000   61.7800   41.0910 C.3   391  0IU391      0.1839
     41  C22       32.5460   62.7620   40.3350 C.3   391  0IU391      0.0356
     42  C32       33.1650   63.1330   38.9640 C.3   391  0IU391      0.0026
     43  C41       32.1240   63.6600   37.9810 C.3   391  0IU391      0.0001
     44  C5        34.2660   64.1800   39.1790 C.3   391  0IU391      0.0001
     45  O12       33.4940   60.5190   40.4480 O.3   391  0IU391     -0.2204
@<TRIPOS>BOND
     1    43    42    1
     2    42    44    1
     3    42    41    1
     4    41    40    1
     5    45    40    1
     6    40    29    1
     7    25    24    1
     8    25    26    1
     9    24    23    1
    10    29    39    1
    11    29    30    1
    12    19    18    2
    13    26    28    1
    14    26    27    2
    15    23    22    1
    16    23    27    2
    17    30    38    1
    18    30    31    1
    19    22    20    1
    20    18    38   am
    21    18    20    1
    22    20    21    1
    23    31    32    1
    24    37    32    1
    25    37    36    1
    26    21     7    1
    27    32    33    1
    28    36    35    1
    29    11    10    1
    30     4     3    2
    31     7     8    2
    32     7     6   am
    33    10     6    1
    34    10    12    1
    35    33    34    1
    36     6     9    1
    37    35    34    1
    38     3     9    1
    39     3     5   am
    40     2     5    1
    41    12    13   ar
    42    12    14   ar
    43    13    15   ar
    44     5     1    1
    45    14    16   ar
    46    15    17   ar
    47    16    17   ar
