@<TRIPOS>MOLECULE
1bim_0QB_A_1.pdb
 48 51 0 0 0
SMALL
GASTEIGER

@<TRIPOS>ATOM
      1  C1        43.0340   61.0890   48.8730 C.3   391  0QB391      0.1150
      2  C2        43.6860   62.6050   47.0220 C.3   391  0QB391      0.1150
      3  C         41.5260   61.4670   46.9880 C.2   391  0QB391      0.2460
      4  O         41.3470   61.9620   45.9400 O.2   391  0QB391     -0.2730
      5  N         42.6860   61.7270   47.6150 N.am  391  0QB391     -0.2746
      6  N1        39.5920   60.1220   46.4970 N.am  391  0QB391     -0.2691
      7  C3        38.6110   60.9360   46.0590 C.2   391  0QB391      0.2267
      8  O1        38.4800   62.0600   46.4600 O.2   391  0QB391     -0.2748
      9  CA        40.4930   60.5570   47.5680 C.3   391  0QB391      0.1795
     10  CB        39.6150   58.7620   46.0070 C.3   391  0QB391      0.0984
     11  CG2       41.0300   58.5410   45.4730 C.3   391  0QB391      0.0264
     12  CG        39.1830   57.8390   47.1730 C.ar  391  0QB391     -0.0043
     13  CD1       39.9930   56.8620   47.5970 C.ar  391  0QB391     -0.0027
     14  CD2       38.0190   58.0380   47.8010 C.ar  391  0QB391     -0.0027
     15  CE1       39.6280   56.0880   48.6330 C.ar  391  0QB391     -0.0003
     16  CE2       37.6500   57.2460   48.8200 C.ar  391  0QB391     -0.0003
     17  CZ        38.4480   56.2730   49.2350 C.ar  391  0QB391     -0.0000
     18  C4        36.1270   60.9350   43.2480 C.2   391  0QB391      0.2418
     19  O2        36.4230   60.0650   42.4830 O.2   391  0QB391     -0.2733
     20  CA1       37.2820   61.5240   44.0390 C.3   391  0QB391      0.0939
     21  CN        37.6760   60.3910   44.9980 C.3   391  0QB391      0.0948
     22  CB1       38.4440   61.7430   43.0450 C.3   391  0QB391      0.0650
     23  CG1       38.2710   63.1290   42.3880 C.2   391  0QB391      0.1008
     24 CD21       37.8130   63.2570   41.1440 C.3   391  0QB391      0.1202
     25  SE2       37.6750   64.9940   40.7120 S.3   391  0QB391     -0.0568
     26 CE11       38.2670   65.3290   42.3370 C.2   391  0QB391      0.2457
     27  ND1       38.5120   64.2890   43.0470 N.2   391  0QB391     -0.3856
     28  NZ        38.3810   66.5610   42.7250 N.pl3 391  0QB391     -0.0867
     29  C11       32.8300   61.7010   41.9250 C.3   391  0QB391      0.1803
     30  C21       33.6700   60.6620   42.7430 C.3   391  0QB391      0.1260
     31  C31       32.7340   59.9840   43.8030 C.3   391  0QB391      0.0243
     32  C1'       33.5630   59.1690   44.8190 C.3   391  0QB391      0.0018
     33  C2'       32.9620   59.2690   46.2580 C.3   391  0QB391      0.0001
     34  C3'       33.7150   58.3510   47.2640 C.3   391  0QB391      0.0000
     35  C4'       33.6750   56.8850   46.7780 C.3   391  0QB391      0.0000
     36  C5'       34.2870   56.7900   45.3440 C.3   391  0QB391      0.0000
     37  C6'       33.5140   57.7030   44.3480 C.3   391  0QB391      0.0001
     38  N2        34.8120   61.2980   43.4700 N.am  391  0QB391     -0.2046
     39  O11       32.5860   62.8260   42.7790 O.3   391  0QB391     -0.2208
     40  N11       32.8920   62.1410   38.3470 N.am  391  0QB391     -0.2808
     41  C22       33.2300   61.3470   39.4030 C.2   391  0QB391      0.2277
     42  O21       33.3560   60.0740   39.3260 O.2   391  0QB391     -0.2748
     43  C32       33.6080   62.1480   40.6410 C.3   391  0QB391      0.1103
     44  C41       33.2880   63.6170   40.1620 C.3   391  0QB391      0.0300
     45  C5        32.8100   63.5250   38.6600 C.3   391  0QB391      0.0610
     46  CM1       32.4770   61.6360   37.0810 C.3   391  0QB391      0.1147
     47  CM2       31.3000   63.8770   38.4600 C.3   391  0QB391      0.0199
     48  CM3       33.6980   64.4360   37.7510 C.3   391  0QB391      0.0199
@<TRIPOS>BOND
     1    46    40    1
     2    48    45    1
     3    40    45    1
     4    40    41   am
     5    47    45    1
     6    45    44    1
     7    42    41    2
     8    41    43    1
     9    44    43    1
    10    43    29    1
    11    25    24    1
    12    25    26    1
    13    24    23    1
    14    29    30    1
    15    29    39    1
    16    26    28    1
    17    26    27    2
    18    23    22    1
    19    23    27    2
    20    19    18    2
    21    30    38    1
    22    30    31    1
    23    22    20    1
    24    18    38   am
    25    18    20    1
    26    31    32    1
    27    20    21    1
    28    37    32    1
    29    37    36    1
    30    32    33    1
    31    21     7    1
    32    36    35    1
    33    11    10    1
    34     4     3    2
    35    10     6    1
    36    10    12    1
    37     7     8    2
    38     7     6   am
    39    33    34    1
    40     6     9    1
    41    35    34    1
    42     3     9    1
    43     3     5   am
    44     2     5    1
    45    12    13   ar
    46    12    14   ar
    47    13    15   ar
    48     5     1    1
    49    14    16   ar
    50    15    17   ar
    51    16    17   ar
