@<TRIPOS>MOLECULE
1bin_HEM_A_1.pdb
 43 50 0 0 0
SMALL
GASTEIGER

@<TRIPOS>ATOM
      1 FE         14.6910   16.1300   12.6590 Fe    144  HEM144      0.0000
      2  CHA       15.0050   12.8850   11.6610 C.2   144  HEM144      0.0000
      3  CHB       13.0440   16.8560    9.7770 C.2   144  HEM144      0.0000
      4  CHC       14.2240   19.3200   13.7480 C.2   144  HEM144      0.0000
      5  CHD       16.3300   15.3520   15.4500 C.2   144  HEM144      0.0000
      6  NA        14.2750   15.1490   10.9570 N.ar  144  HEM144      0.0000
      7  C1A       14.3370   13.7880   10.7850 C.ar  144  HEM144      0.0000
      8  C2A       13.7450   13.4470    9.6030 C.ar  144  HEM144      0.0000
      9  C3A       13.4120   14.5540    8.9500 C.ar  144  HEM144      0.0000
     10  C4A       13.6140   15.6250    9.8810 C.ar  144  HEM144      0.0000
     11  CMA       13.0600   14.7570    7.4760 C.3   144  HEM144      0.0000
     12  CAA       13.3830   12.0570    9.3180 C.3   144  HEM144      0.0000
     13  CBA       13.7010   11.3200    8.0810 C.3   144  HEM144      0.0000
     14  CGA       13.6830    9.8270    8.3690 C.2   144  HEM144      0.0000
     15  O1A       14.7830    9.1960    8.4150 O.co2 144  HEM144      0.0000
     16  O2A       12.5730    9.2950    8.6170 O.co2 144  HEM144      0.0000
     17  NB        13.7990   17.6610   11.8990 N.2   144  HEM144      0.0000
     18  C1B       13.1310   17.8050   10.7110 C.2   144  HEM144      0.0000
     19  C2B       12.6550   19.1570   10.5500 C.2   144  HEM144      0.0000
     20  C3B       12.9110   19.8600   11.6710 C.2   144  HEM144      0.0000
     21  C4B       13.6170   18.9240   12.5450 C.2   144  HEM144      0.0000
     22  CMB       12.0700   19.7990    9.3180 C.3   144  HEM144      0.0000
     23  CAB       12.7110   21.2560   11.8730 C.3   144  HEM144      0.0000
     24  CBB       11.5080   21.8960   12.2100 C.3   144  HEM144      0.0000
     25  NC        15.4100   17.2460   14.1900 N.ar  144  HEM144      0.0000
     26  C1C       15.0940   18.5150   14.5390 C.ar  144  HEM144      0.0000
     27  C2C       15.5770   18.8440   15.8860 C.ar  144  HEM144      0.0000
     28  C3C       16.1740   17.7260   16.3710 C.ar  144  HEM144      0.0000
     29  C4C       15.9940   16.7100   15.2950 C.ar  144  HEM144      0.0000
     30  CMC       15.2790   20.1540   16.6170 C.3   144  HEM144      0.0000
     31  CAC       16.8780   17.5350   17.5630 C.3   144  HEM144      0.0000
     32  CBC       18.3400   17.4090   17.5980 C.3   144  HEM144      0.0000
     33  ND        15.6640   14.4360   13.3680 N.2   144  HEM144      0.0000
     34  C1D       16.2220   14.2910   14.5740 C.2   144  HEM144      0.0000
     35  C2D       16.6820   12.8890   14.8150 C.2   144  HEM144      0.0000
     36  C3D       16.2910   12.1580   13.6980 C.2   144  HEM144      0.0000
     37  C4D       15.6480   13.1650   12.8460 C.2   144  HEM144      0.0000
     38  CMD       17.6180   12.4200   15.9390 C.3   144  HEM144      0.0000
     39  CAD       16.6830   10.7370   13.1530 C.3   144  HEM144      0.0000
     40  CBD       17.9160   10.7540   12.1870 C.3   144  HEM144      0.0000
     41  CGD       17.9050    9.6230   11.1040 C.2   144  HEM144      0.0000
     42  O1D       18.5460    8.5370   11.3400 O.co2 144  HEM144      0.0000
     43  O2D       17.2860    9.8370   10.0060 O.co2 144  HEM144      0.0000
@<TRIPOS>BOND
     1    11     9    1
     2    13    14    1
     3    13    12    1
     4    14    15   ar
     5    14    16   ar
     6     9     8   ar
     7     9    10   ar
     8    22    19    1
     9    12     8    1
    10     8     7   ar
    11     3    10    2
    12     3    18    1
    13    10     6   ar
    14    43    41   ar
    15    19    18    1
    16    19    20    2
    17    18    17    2
    18     7     6   ar
    19     7     2    2
    20     6     1    1
    21    41    42   ar
    22    41    40    1
    23     2    37    1
    24    20    23    1
    25    20    21    1
    26    23    24    1
    27    17    21    1
    28    17     1    1
    29    40    39    1
    30    21     4    2
    31     1    33    1
    32     1    25    1
    33    37    33    2
    34    37    36    1
    35    39    36    1
    36    33    34    1
    37    36    35    2
    38     4    26    1
    39    25    26   ar
    40    25    29   ar
    41    26    27   ar
    42    34    35    1
    43    34     5    2
    44    35    38    1
    45    29     5    1
    46    29    28   ar
    47    27    28   ar
    48    27    30    1
    49    28    31    1
    50    31    32    1
