@<TRIPOS>MOLECULE
1bir_2GP_A_1.pdb
 24 26 0 0 0
SMALL
GASTEIGER

@<TRIPOS>ATOM
      1  P          1.5270   -7.8150    1.5740 P.3   106  2GP106      0.5327
      2  O1P        0.9660   -6.4880    1.8230 O.3   106  2GP106     -0.1145
      3  O2P        2.2800   -8.3750    2.6880 O.3   106  2GP106     -0.1145
      4  O3P        0.6380   -8.7460    0.8740 O.2   106  2GP106     -0.2224
      5  O5'        4.3160   -6.3260   -4.1540 O.3   106  2GP106     -0.2176
      6  C5'        4.2050   -7.6690   -3.7730 C.3   106  2GP106      0.2142
      7  C4'        3.8490   -7.6360   -2.3020 C.3   106  2GP106      0.1827
      8  O4'        4.8810   -6.8780   -1.6360 O.3   106  2GP106     -0.3326
      9  C3'        2.5290   -6.9220   -1.9140 C.3   106  2GP106      0.2132
     10  O3'        1.3500   -7.6990   -2.2320 O.3   106  2GP106     -0.2176
     11  C2'        2.7990   -6.5470   -0.4210 C.3   106  2GP106      0.2054
     12  O2'        2.6820   -7.5920    0.5600 O.3   106  2GP106     -0.2657
     13  C1'        4.3520   -6.3340   -0.4270 C.3   106  2GP106      0.2266
     14  N9         4.8040   -4.9620   -0.2580 N.pl3 106  2GP106     -0.2354
     15  C8         5.9540   -4.5330    0.3650 C.3   106  2GP106      0.2246
     16  N7         6.1580   -3.3000    0.1860 N.2   106  2GP106     -0.2322
     17  C5         5.0190   -2.8580   -0.4490 C.2   106  2GP106      0.2182
     18  C6         4.6910   -1.5670   -0.8750 C.1   106  2GP106      0.2372
     19  O6         5.3240   -0.5260   -0.6800 O.2   106  2GP106     -0.2069
     20  N1         3.4590   -1.5430   -1.5820 N.2   106  2GP106     -0.2485
     21  C2         2.6090   -2.6140   -1.7780 C.1   106  2GP106      0.2531
     22  N2         1.4700   -2.3890   -2.4130 N.pl3 106  2GP106     -0.0226
     23  N3         2.9560   -3.8420   -1.4270 N.2   106  2GP106     -0.3074
     24  C4         4.1820   -3.8730   -0.7670 C.2   106  2GP106      0.2300
@<TRIPOS>BOND
     1     5     6    1
     2     6     7    1
     3    22    21    1
     4     7     9    1
     5     7     8    1
     6    10     9    1
     7     9    11    1
     8    21    20    2
     9    21    23    2
    10     8    13    1
    11    20    18    2
    12    23    24    2
    13    18    19    2
    14    18    17    1
    15    24    17    1
    16    24    14    1
    17    17    16    2
    18    13    11    1
    19    13    14    1
    20    11    12    1
    21    14    15    1
    22    16    15    1
    23    12     1    1
    24     4     1    2
    25     1     2    1
    26     1     3    1
