@<TRIPOS>MOLECULE
1biw_S80_B_1.pdb
 29 29 0 0 0
SMALL
GASTEIGER

@<TRIPOS>ATOM
      1  C10        7.7280   48.8860   54.7260 C.2   401  S80401      0.2456
      2  O4         7.1300   48.7430   55.7910 O.2   401  S80401     -0.2730
      3  N3         9.0640   48.6640   54.5960 N.am  401  S80401     -0.2756
      4  C9         9.7910   48.5950   53.3280 C.3   401  S80401      0.0935
      5  C8        10.0530   49.9670   52.7000 C.3   401  S80401      0.0216
      6  C7         8.8120   50.5880   52.0720 C.3   401  S80401      0.0040
      7  C6         7.6010   50.7340   52.9270 C.3   401  S80401      0.0311
      8  C5         6.9830   49.5680   53.6070 C.3   401  S80401      0.1712
      9  N2         5.5340   49.6070   53.8140 N.am  401  S80401     -0.1978
     10  C4         4.6060   48.8100   53.2170 C.2   401  S80401      0.2417
     11  C3         3.2000   48.7670   53.6500 C.3   401  S80401      0.0841
     12  C2         2.2080   49.3600   52.6880 C.3   401  S80401      0.0540
     13  C1         0.8270   49.4610   53.2340 C.2   401  S80401      0.0869
     14  O1         0.6530   50.2790   54.1110 O.2   401  S80401     -0.5396
     15  N1        -0.2040   48.7210   52.8070 N.am  401  S80401     -0.2030
     16  O2        -1.4000   48.9070   53.4850 O.3   401  S80401     -0.4026
     17  C11        2.5090   50.1180   51.3890 C.3   401  S80401      0.0095
     18  C12        2.7640   51.5950   51.7610 C.3   401  S80401      0.0360
     19  C13        2.7820   52.5070   50.5140 C.3   401  S80401      0.1821
     20  O5         1.4680   52.5610   49.9590 O.3   401  S80401     -0.2204
     21  C14        2.7900   47.7390   54.6160 C.3   401  S80401      0.0095
     22  C15        3.1310   47.5590   56.0000 C.3   401  S80401      0.0005
     23  C17        3.0120   48.6560   57.0090 C.3   401  S80401      0.0000
     24  C16        3.0420   46.1870   56.6390 C.3   401  S80401      0.0000
     25  O3         4.8460   48.0310   52.3310 O.2   401  S80401     -0.2733
     26  C18        9.9330   48.5750   55.7860 C.3   401  S80401      0.1254
     27  C19        9.9770   47.1930   56.4310 C.3   401  S80401      0.1637
     28  O6        10.5110   46.2280   55.5420 O.3   401  S80401     -0.3493
     29  C20       10.4720   44.9290   56.1410 C.3   401  S80401      0.1742
@<TRIPOS>BOND
     1    20    19    1
     2    19    18    1
     3    17    18    1
     4    17    12    1
     5     6     5    1
     6     6     7    1
     7    25    10    2
     8    12    13    1
     9    12    11    1
    10     5     4    1
    11    15    13   am
    12    15    16    1
    13     7     8    1
    14    10    11    1
    15    10     9   am
    16    13    14    2
    17     4     3    1
    18     8     9    1
    19     8     1    1
    20    11    21    1
    21     3     1   am
    22     3    26    1
    23    21    22    1
    24     1     2    2
    25    28    29    1
    26    28    27    1
    27    26    27    1
    28    22    24    1
    29    22    23    1
