@<TRIPOS>MOLECULE
1bj0_CTC_A_1.pdb
 33 36 0 0 0
SMALL
GASTEIGER

@<TRIPOS>ATOM
      1  C1        21.1240   36.0380   34.9540 C.2   222  CTC222      0.1913
      2  O1        20.7650   35.8190   33.7630 O.2   222  CTC222     -0.2928
      3  C2        20.3870   35.4190   35.9730 C.3   222  CTC222      0.1712
      4  C2'       19.1180   34.8970   35.7040 C.2   222  CTC222      0.2700
      5  O2'       18.7190   33.7950   36.2150 O.2   222  CTC222     -0.2711
      6  N2'       18.3440   35.4310   34.7030 N.am  222  CTC222     -0.0874
      7  C3        21.0700   34.9830   37.0970 C.3   222  CTC222      0.1823
      8  O3        20.7400   33.7010   37.6770 O.3   222  CTC222     -0.2207
      9  C4        22.2300   35.7900   37.7180 C.3   222  CTC222      0.0919
     10  N4        22.9490   34.7180   38.6240 N.3   222  CTC222     -0.2692
     11  C4'       23.8390   33.7200   37.7540 C.3   222  CTC222      0.0897
     12  C4D       23.8230   35.2280   39.7670 C.3   222  CTC222      0.0897
     13  C4A       22.9680   36.7350   36.6820 C.3   222  CTC222      0.0547
     14  C5        22.6990   38.2870   36.8050 C.3   222  CTC222      0.0077
     15  C5A       23.3720   39.2760   35.7820 C.3   222  CTC222      0.0420
     16  C6        23.0390   40.7610   35.8800 C.3   222  CTC222      0.1467
     17  O6        21.6170   40.8270   35.9510 O.3   222  CTC222     -0.2211
     18  C6'       23.7640   41.1710   37.1880 C.3   222  CTC222      0.0376
     19  C6A       23.5260   41.6590   34.6420 C.ar  222  CTC222      0.0215
     20  C7        23.3130   43.0680   34.6180 C.ar  222  CTC222      0.0562
     21 CL7        22.4130   43.9110   35.8850 Cl    222  CTC222     -0.0825
     22  C8        23.6370   43.8290   33.5060 C.ar  222  CTC222      0.0144
     23  C9        24.1830   43.2380   32.4100 C.ar  222  CTC222      0.0430
     24  C10       24.3900   41.8610   32.3880 C.ar  222  CTC222      0.1982
     25  O10       25.0900   41.3330   31.2440 O.3   222  CTC222     -0.2865
     26  C6B       24.0160   41.0320   33.4900 C.ar  222  CTC222      0.0728
     27  C11       23.7630   39.6370   33.2960 C.2   222  CTC222      0.1782
     28  O11       23.8130   39.1990   32.1160 O.2   222  CTC222     -0.2912
     29  C5B       23.4240   38.7390   34.3730 C.3   222  CTC222      0.0979
     30  C12       23.4020   37.3260   34.2100 C.3   222  CTC222      0.1937
     31  O12       24.0390   36.7230   33.0640 O.3   222  CTC222     -0.2196
     32  C4B       22.6290   36.3470   35.1990 C.3   222  CTC222      0.2070
     33  O4B       23.2360   35.0660   34.9520 O.3   222  CTC222     -0.2154
@<TRIPOS>BOND
     1    25    24    1
     2    28    27    2
     3    24    23   ar
     4    24    26   ar
     5    23    22   ar
     6    31    30    1
     7    27    26    1
     8    27    29    1
     9    26    19   ar
    10    22    20   ar
    11     2     1    2
    12    30    29    1
    13    30    32    1
    14    29    15    1
    15    20    19   ar
    16    20    21    1
    17    19    16    1
    18     6     4   am
    19    33    32    1
    20     1    32    1
    21     1     3    1
    22    32    13    1
    23     4     3    1
    24     4     5    2
    25    15    16    1
    26    15    14    1
    27    16    17    1
    28    16    18    1
    29     3     7    1
    30    13    14    1
    31    13     9    1
    32     7     8    1
    33     7     9    1
    34     9    10    1
    35    11    10    1
    36    10    12    1
