@<TRIPOS>MOLECULE
1bj4_PLP_A_1.pdb
 15 15 0 0 0
SMALL
GASTEIGER

@<TRIPOS>ATOM
      1  N1        57.5870   57.0880  182.9840 N.ar  500  PLP500     -0.2452
      2  C2        57.9370   56.5040  181.7950 C.ar  500  PLP500      0.0978
      3  C2A       57.5080   57.1450  180.4770 C.3   500  PLP500      0.0555
      4  C3        58.7240   55.3840  181.7880 C.ar  500  PLP500      0.2049
      5  O3        59.0260   54.7750  180.5990 O.3   500  PLP500     -0.2857
      6  C4        59.1850   54.8590  182.9760 C.ar  500  PLP500      0.0182
      7  C4A       60.1170   53.6500  182.9770 C.3   500  PLP500      0.0342
      8  C5        58.8400   55.4560  184.1660 C.ar  500  PLP500      0.0261
      9  C6        58.0330   56.5640  184.1640 C.ar  500  PLP500      0.0965
     10  C5A       59.4760   54.9910  185.4750 C.3   500  PLP500      0.1815
     11  O4P       59.0250   53.7000  185.8790 O.3   500  PLP500     -0.2653
     12  P         59.5090   53.0980  187.2960 P.3   500  PLP500      0.5329
     13  O1P       60.9500   53.3690  187.4620 O.3   500  PLP500     -0.1145
     14  O2P       59.3250   51.5240  187.0570 O.2   500  PLP500     -0.2224
     15  O3P       58.5490   53.5300  188.3350 O.3   500  PLP500     -0.1145
@<TRIPOS>BOND
     1     3     2    1
     2     5     4    1
     3     4     2   ar
     4     4     6   ar
     5     2     1   ar
     6     6     7    1
     7     6     8   ar
     8     1     9   ar
     9     9     8   ar
    10     8    10    1
    11    10    11    1
    12    11    12    1
    13    14    12    2
    14    12    13    1
    15    12    15    1
