@<TRIPOS>MOLECULE
1bj5_MYR_A_1.pdb
 14 13 0 0 0
SMALL
GASTEIGER

@<TRIPOS>ATOM
      1  C1        29.0560   12.6180   36.5300 C.2   1001  MYR1001     0.3649
      2  O1        28.3530   11.6360   36.8500 O.co2 1001  MYR1001    -0.2457
      3  O2        28.5890   13.7610   36.3350 O.co2 1001  MYR1001    -0.2457
      4  C2        30.5490   12.4100   36.3720 C.3   1001  MYR1001     0.1141
      5  C3        31.2760   12.3160   37.7070 C.3   1001  MYR1001     0.0118
      6  C4        31.8360   13.6710   38.1390 C.3   1001  MYR1001     0.0006
      7  C5        33.2580   13.8670   37.6340 C.3   1001  MYR1001     0.0000
      8  C6        33.6950   15.3230   37.7090 C.3   1001  MYR1001     0.0000
      9  C7        34.2050   15.8100   36.3570 C.3   1001  MYR1001     0.0000
     10  C8        35.7290   15.8940   36.3110 C.3   1001  MYR1001     0.0000
     11  C9        36.2300   16.1810   34.8970 C.3   1001  MYR1001     0.0000
     12  C10       37.6180   15.5960   34.6580 C.3   1001  MYR1001     0.0000
     13  C11       38.0810   15.7820   33.2200 C.3   1001  MYR1001     0.0000
     14  C12       37.1790   15.0390   32.2440 C.3   1001  MYR1001     0.0000
@<TRIPOS>BOND
     1    14    13    1
     2    13    12    1
     3    12    11    1
     4    11    10    1
     5    10     9    1
     6     3     1   ar
     7     9     8    1
     8     4     1    1
     9     4     5    1
    10     1     2   ar
    11     7     8    1
    12     7     6    1
    13     5     6    1
