@<TRIPOS>MOLECULE
1bj9_DDH_A_1.pdb
 45 52 0 0 0
SMALL
GASTEIGER

@<TRIPOS>ATOM
      1 FE         -5.6890   57.0280   20.9610 Fe    296  DDH296      0.0000
      2  NA        -6.3050   56.3040   22.5400 N.2   296  DDH296      0.0000
      3  NB        -6.7110   58.6780   21.5860 N.ar  296  DDH296      0.0000
      4  NC        -4.9940   57.9670   19.3900 N.2   296  DDH296      0.0000
      5  ND        -4.4670   55.4280   20.5270 N.ar  296  DDH296      0.0000
      6  C1A       -5.9930   54.9750   22.8960 C.2   296  DDH296      0.0000
      7  CHA       -5.4230   53.9350   22.1930 C.2   296  DDH296      0.0000
      8  C4D       -4.7040   54.1760   21.0420 C.ar  296  DDH296      0.0000
      9  C1B       -7.4630   58.8760   22.7040 C.ar  296  DDH296      0.0000
     10  CHB       -7.5730   58.0560   23.8040 C.2   296  DDH296      0.0000
     11  C4A       -7.1640   56.7640   23.5420 C.2   296  DDH296      0.0000
     12  C1C       -5.1960   59.3220   19.1010 C.2   296  DDH296      0.0000
     13  CHC       -6.0620   60.1750   19.7410 C.2   296  DDH296      0.0000
     14  C4B       -6.8330   59.8240   20.8170 C.ar  296  DDH296      0.0000
     15  C1D       -3.8730   55.2510   19.2980 C.ar  296  DDH296      0.0000
     16  CHD       -3.5080   56.2530   18.4250 C.2   296  DDH296      0.0000
     17  C4C       -4.0560   57.5310   18.4650 C.2   296  DDH296      0.0000
     18  C2A       -6.5440   54.7060   24.1990 C.2   296  DDH296      0.0000
     19  CAA       -6.5360   53.2790   24.7890 C.3   296  DDH296      0.0000
     20  C3A       -7.2500   55.7800   24.5810 C.2   296  DDH296      0.0000
     21  CMA       -8.1950   55.8850   25.7960 C.3   296  DDH296      0.0000
     22  CBA       -5.4660   53.0730   25.8760 C.3   296  DDH296      0.0000
     23  CGA       -5.4150   51.7050   26.5420 C.2   296  DDH296      0.0000
     24  O1A       -6.2210   51.4370   27.4630 O.co2 296  DDH296      0.0000
     25  O2A       -4.4840   50.9280   26.2220 O.co2 296  DDH296      0.0000
     26  C2B       -7.9850   60.2290   22.7030 C.ar  296  DDH296      0.0000
     27  CMB       -8.7780   60.8390   23.8580 C.3   296  DDH296      0.0000
     28  C3B       -7.5290   60.8340   21.6050 C.ar  296  DDH296      0.0000
     29  CAB       -7.9460   62.1960   21.0390 C.2   296  DDH296      0.0000
     30  OCB       -7.1060   62.9040   20.4810 O.2   296  DDH296      0.0000
     31  CBB       -9.0930   62.7490   21.4730 C.3   296  DDH296      0.0000
     32  C2C       -4.4200   59.6870   17.9350 C.2   296  DDH296      0.0000
     33  CMC       -4.3710   61.0450   17.1990 C.3   296  DDH296      0.0000
     34  C3C       -3.6540   58.6600   17.6360 C.2   296  DDH296      0.0000
     35  CAC       -2.5670   58.5760   16.5610 C.2   296  DDH296      0.0000
     36  OCC       -1.6450   57.8350   16.8310 O.2   296  DDH296      0.0000
     37  CBC       -2.4770   59.4240   15.5230 C.3   296  DDH296      0.0000
     38  C2D       -3.4820   53.8430   19.1710 C.ar  296  DDH296      0.0000
     39  CMD       -2.8620   53.2570   17.8890 C.3   296  DDH296      0.0000
     40  C3D       -4.0080   53.1960   20.2210 C.ar  296  DDH296      0.0000
     41  CAD       -4.0840   51.6820   20.5140 C.3   296  DDH296      0.0000
     42  CBD       -2.9790   51.2700   21.4830 C.3   296  DDH296      0.0000
     43  CGD       -2.9720   49.8190   21.8870 C.2   296  DDH296      0.0000
     44  O1D       -2.2140   49.6240   22.8730 O.co2 296  DDH296      0.0000
     45  O2D       -3.6810   49.0410   21.2020 O.co2 296  DDH296      0.0000
@<TRIPOS>BOND
     1    37    35    1
     2    35    36    2
     3    35    34    1
     4    33    32    1
     5    34    32    2
     6    34    17    1
     7    39    38    1
     8    32    12    1
     9    16    17    1
    10    16    15    2
    11    17     4    2
    12    12     4    1
    13    12    13    2
    14    38    15   ar
    15    38    40   ar
    16    15     5   ar
    17     4     1    1
    18    13    14    1
    19    40    41    1
    20    40     8   ar
    21    30    29    2
    22    41    42    1
    23     5     1    1
    24     5     8   ar
    25    14     3   ar
    26    14    28   ar
    27     1     3    1
    28     1     2    1
    29    29    31    1
    30    29    28    1
    31     8     7    2
    32    45    43   ar
    33    42    43    1
    34     3     9   ar
    35    28    26   ar
    36    43    44   ar
    37     7     6    1
    38     2     6    2
    39     2    11    1
    40    26     9   ar
    41    26    27    1
    42     9    10    1
    43     6    18    1
    44    11    10    2
    45    11    20    1
    46    18    20    2
    47    18    19    1
    48    20    21    1
    49    19    22    1
    50    22    23    1
    51    25    23   ar
    52    23    24   ar
