@<TRIPOS>MOLECULE
1bje_HEM_A_1.pdb
 43 50 0 0 0
SMALL
GASTEIGER

@<TRIPOS>ATOM
      1 FE         14.3080   29.5660    4.9530 Fe    154  HEM154      0.0000
      2  CHA       15.3920   32.7890    5.0760 C.2   154  HEM154      0.0000
      3  CHB       13.7340   29.6360    8.3370 C.2   154  HEM154      0.0000
      4  CHC       13.1150   26.4180    4.8100 C.2   154  HEM154      0.0000
      5  CHD       15.2810   29.3560    1.6520 C.2   154  HEM154      0.0000
      6  NA        14.5510   30.9410    6.4010 N.2   154  HEM154      0.0000
      7  C1A       14.9860   32.2520    6.2670 C.2   154  HEM154      0.0000
      8  C2A       14.8900   32.9320    7.5370 C.2   154  HEM154      0.0000
      9  C3A       14.4310   32.0620    8.4490 C.2   154  HEM154      0.0000
     10  C4A       14.1920   30.8020    7.7440 C.2   154  HEM154      0.0000
     11  CMA       14.1490   32.2360    9.9380 C.3   154  HEM154      0.0000
     12  CAA       15.2690   34.4330    7.7410 C.3   154  HEM154      0.0000
     13  CBA       14.0700   35.4130    7.9840 C.3   154  HEM154      0.0000
     14  CGA       13.1000   35.4530    6.8020 C.2   154  HEM154      0.0000
     15  O1A       13.5840   35.7390    5.6810 O.co2 154  HEM154      0.0000
     16  O2A       11.8910   35.0840    7.0920 O.co2 154  HEM154      0.0000
     17  NB        13.5830   28.2930    6.3010 N.ar  154  HEM154      0.0000
     18  C1B       13.3780   28.4690    7.6780 C.ar  154  HEM154      0.0000
     19  C2B       12.7720   27.3270    8.2570 C.ar  154  HEM154      0.0000
     20  C3B       12.6130   26.4150    7.2940 C.ar  154  HEM154      0.0000
     21  C4B       13.1040   27.0060    6.0590 C.ar  154  HEM154      0.0000
     22  CMB       12.3990   27.1620    9.7610 C.3   154  HEM154      0.0000
     23  CAB       12.0070   25.0220    7.3180 C.3   154  HEM154      0.0000
     24  CBB       12.0200   24.0560    8.4620 C.3   154  HEM154      0.0000
     25  NC        14.2100   28.1820    3.5140 N.2   154  HEM154      0.0000
     26  C1C       13.7000   26.8990    3.6680 C.2   154  HEM154      0.0000
     27  C2C       13.9580   26.1450    2.4470 C.2   154  HEM154      0.0000
     28  C3C       14.5550   26.9740    1.5680 C.2   154  HEM154      0.0000
     29  C4C       14.7470   28.2500    2.2460 C.2   154  HEM154      0.0000
     30  CMC       13.4970   24.6820    2.2260 C.3   154  HEM154      0.0000
     31  CAC       15.0130   26.7240    0.1310 C.3   154  HEM154      0.0000
     32  CBC       15.1220   25.2890   -0.3610 C.3   154  HEM154      0.0000
     33  ND        15.1400   30.7960    3.6350 N.ar  154  HEM154      0.0000
     34  C1D       15.4840   30.5520    2.3100 C.ar  154  HEM154      0.0000
     35  C2D       16.0770   31.7190    1.7400 C.ar  154  HEM154      0.0000
     36  C3D       16.0850   32.6360    2.6870 C.ar  154  HEM154      0.0000
     37  C4D       15.5300   32.0930    3.8850 C.ar  154  HEM154      0.0000
     38  CMD       16.6220   31.8520    0.2840 C.3   154  HEM154      0.0000
     39  CAD       16.7430   34.0600    2.6870 C.3   154  HEM154      0.0000
     40  CBD       18.2840   33.7640    2.9100 C.3   154  HEM154      0.0000
     41  CGD       19.0930   34.9910    3.1130 C.2   154  HEM154      0.0000
     42  O1D       19.7560   35.3890    2.1230 O.co2 154  HEM154      0.0000
     43  O2D       19.0830   35.5280    4.2330 O.co2 154  HEM154      0.0000
@<TRIPOS>BOND
     1    32    31    1
     2    31    28    1
     3    38    35    1
     4    28    29    1
     5    28    27    2
     6     5    29    1
     7     5    34    2
     8    35    34   ar
     9    35    36   ar
    10    42    41   ar
    11    30    27    1
    12    29    25    2
    13    34    33   ar
    14    27    26    1
    15    39    36    1
    16    39    40    1
    17    36    37   ar
    18    40    41    1
    19    41    43   ar
    20    25    26    1
    21    25     1    1
    22    33    37   ar
    23    33     1    1
    24    26     4    2
    25    37     2    2
    26     4    21    1
    27     1    17    1
    28     1     6    1
    29     2     7    1
    30    15    14   ar
    31    21    17   ar
    32    21    20   ar
    33     7     6    2
    34     7     8    1
    35    17    18   ar
    36     6    10    1
    37    14    16   ar
    38    14    13    1
    39    20    23    1
    40    20    19   ar
    41    23    24    1
    42     8    12    1
    43     8     9    2
    44    18    19   ar
    45    18     3    1
    46    12    13    1
    47    10     3    2
    48    10     9    1
    49    19    22    1
    50     9    11    1
