@<TRIPOS>MOLECULE
1bjg_UFP_A_1.pdb
 21 22 0 0 0
SMALL
GASTEIGER

@<TRIPOS>ATOM
      1  N1        42.2380   70.6320   54.2630 N.am  266  UFP266     -0.1989
      2  C2        41.3570   71.7080   54.0700 C.1   266  UFP266      0.2803
      3  N3        40.1160   71.3830   53.5720 N.2   266  UFP266     -0.2470
      4  C4        39.7280   70.1070   53.2260 C.1   266  UFP266      0.2265
      5  C5        40.6990   68.9250   53.3410 C.3   266  UFP266      0.2980
      6  C6        41.8100   69.2080   54.4140 C.3   266  UFP266      0.1597
      7  O2        41.6480   72.8870   54.2790 O.2   266  UFP266     -0.1922
      8  O4        38.5750   69.9380   52.8200 O.2   266  UFP266     -0.2106
      9  F5        40.0330   67.7060   53.6220 F     266  UFP266     -0.2160
     10  C1'       43.6850   70.8770   54.2510 C.3   266  UFP266      0.2049
     11  C2'       44.1920   71.2500   55.5630 C.3   266  UFP266      0.0871
     12  C3'       45.6130   71.2430   55.3940 C.3   266  UFP266      0.1857
     13  C4'       45.9440   69.9350   54.6490 C.3   266  UFP266      0.1774
     14  O3'       45.9730   72.4240   54.5980 O.3   266  UFP266     -0.2203
     15  O4'       44.7010   69.8540   53.7860 O.3   266  UFP266     -0.3342
     16  C5'       45.9100   68.7680   55.5750 C.3   266  UFP266      0.1858
     17  O5'       46.9820   68.7190   56.5890 O.3   266  UFP266     -0.2675
     18  P         46.6220   67.9750   57.9330 P.3   266  UFP266      0.5327
     19  O1P       45.6590   68.8700   58.5700 O.3   266  UFP266     -0.1145
     20  O2P       45.9850   66.6970   57.6130 O.2   266  UFP266     -0.2224
     21  O3P       47.7730   67.7800   58.8560 O.3   266  UFP266     -0.1145
@<TRIPOS>BOND
     1     8     4    2
     2     4     5    1
     3     4     3    2
     4     5     9    1
     5     5     6    1
     6     3     2    2
     7    15    10    1
     8    15    13    1
     9     2     1   am
    10     2     7    2
    11    10     1    1
    12    10    11    1
    13     1     6    1
    14    14    12    1
    15    13    12    1
    16    13    16    1
    17    12    11    1
    18    16    17    1
    19    17    18    1
    20    20    18    2
    21    18    19    1
    22    18    21    1
