@<TRIPOS>MOLECULE
1bjg_TMF_A_1.pdb
 33 36 0 0 0
SMALL
GASTEIGER

@<TRIPOS>ATOM
      1  N1        46.4920   71.9360   51.4640 N.2   267  TMF267     -0.2726
      2  C2        47.5870   71.5960   50.7880 C.1   267  TMF267      0.2603
      3  NA2       48.7740   71.5960   51.4010 N.pl3 267  TMF267     -0.0221
      4  N3        47.4980   71.2290   49.5060 N.2   267  TMF267     -0.2515
      5  C4        46.3530   71.1700   48.8060 C.1   267  TMF267      0.2219
      6  O4        46.3290   70.7830   47.4880 O.2   267  TMF267     -0.2109
      7  C4A       45.1770   71.5320   49.5080 C.3   267  TMF267      0.2774
      8  N5        43.9630   71.6850   48.8950 N.3   267  TMF267     -0.2275
      9  C6        42.8150   72.2230   49.6800 C.3   267  TMF267      0.1058
     10  C7        42.9670   72.0780   51.1270 C.3   267  TMF267      0.1547
     11  N8        44.3580   72.2450   51.5410 N.2   267  TMF267     -0.2096
     12  C8A       45.3220   71.9090   50.8530 C.1   267  TMF267      0.1050
     13  C9        41.5990   71.5120   49.2640 C.3   267  TMF267      0.1101
     14  N10       41.8930   70.9250   47.9490 N.pl3 267  TMF267     -0.2923
     15  C11       40.4910   72.5670   44.3690 C.ar  267  TMF267      0.0551
     16  C12       41.7430   71.9260   44.3920 C.ar  267  TMF267      0.0058
     17  C13       42.2390   71.4210   45.6060 C.ar  267  TMF267      0.0147
     18  C14       41.5000   71.5470   46.8090 C.ar  267  TMF267      0.0488
     19  C15       40.2840   72.2620   46.7860 C.ar  267  TMF267      0.0147
     20  C16       39.7910   72.7650   45.5770 C.ar  267  TMF267      0.0058
     21  C         39.8090   72.8740   43.1240 C.2   267  TMF267      0.2652
     22  O         38.5790   72.9510   43.1030 O.2   267  TMF267     -0.2684
     23  N         40.5030   73.0650   41.9880 N.am  267  TMF267     -0.1918
     24  CA        39.8610   73.6400   40.7740 C.3   267  TMF267      0.1986
     25  CB        38.9930   72.6380   40.0660 C.3   267  TMF267      0.0451
     26  CG        37.9220   73.2630   39.1760 C.3   267  TMF267      0.1164
     27  CD        36.9330   72.2530   38.6080 C.2   267  TMF267      0.3649
     28  OE1       35.8070   72.1440   39.1470 O.co2 267  TMF267     -0.2457
     29  OE2       37.2620   71.5890   37.6050 O.co2 267  TMF267     -0.2457
     30  CT        40.9250   74.2220   39.8350 C.2   267  TMF267      0.3842
     31  O1        42.1280   73.9850   40.0860 O.co2 267  TMF267     -0.2437
     32  O2        40.5520   74.9410   38.8810 O.co2 267  TMF267     -0.2437
     33  CP1       43.3240   70.5850   48.1540 C.3   267  TMF267      0.1706
@<TRIPOS>BOND
     1    29    27   ar
     2    27    28   ar
     3    27    26    1
     4    32    30   ar
     5    26    25    1
     6    30    31   ar
     7    30    24    1
     8    25    24    1
     9    24    23    1
    10    23    21   am
    11    22    21    2
    12    21    15    1
    13    15    16   ar
    14    15    20   ar
    15    16    17   ar
    16    20    19   ar
    17    17    18   ar
    18    19    18   ar
    19    18    14    1
    20     6     5    2
    21    14    33    1
    22    14    13    1
    23    33     8    1
    24     5     4    2
    25     5     7    1
    26     8     7    1
    27     8     9    1
    28    13     9    1
    29     4     2    2
    30     7    12    1
    31     9    10    1
    32     2     3    1
    33     2     1    2
    34    12     1    2
    35    12    11    2
    36    10    11    1
