@<TRIPOS>MOLECULE
1bji_DPC_A_1.pdb
 28 29 0 0 0
SMALL
GASTEIGER

@<TRIPOS>ATOM
      1  C1        23.7040   20.1290   65.2380 C.2   479  DPC479      0.3914
      2  O1A       24.3820   21.1730   65.2880 O.co2 479  DPC479     -0.2430
      3  O1B       22.5200   20.0760   65.6350 O.co2 479  DPC479     -0.2430
      4  C2        24.2850   19.0260   64.6280 C.3   479  DPC479      0.2196
      5  C3        23.6200   17.9000   64.2370 C.3   479  DPC479      0.0622
      6  C4        24.2200   17.0020   63.1800 C.3   479  DPC479      0.1176
      7  C5        25.6680   16.9470   63.2730 C.3   479  DPC479      0.1488
      8  N5        26.3350   16.2020   62.1880 N.am  479  DPC479     -0.2027
      9  C10       27.0420   15.0800   62.3280 C.2   479  DPC479      0.2419
     10  O10       27.2660   14.5750   63.4110 O.2   479  DPC479     -0.2733
     11  C11       27.7040   14.3420   61.2240 C.3   479  DPC479      0.0964
     12  C6        26.1640   18.3740   63.3030 C.3   479  DPC479      0.2127
     13  O6        25.6120   19.0450   64.3690 O.3   479  DPC479     -0.3364
     14  C7        27.6610   18.2750   63.5730 C.2   479  DPC479      0.2547
     15  O7        27.9280   17.9720   64.7320 O.2   479  DPC479     -0.2722
     16  N8        28.6180   18.4690   62.6520 N.am  479  DPC479     -0.2772
     17  C81       30.0060   18.3720   63.1720 C.3   479  DPC479      0.0981
     18  C82       30.5980   16.9840   62.9900 C.3   479  DPC479      0.0478
     19  CG        32.0180   17.0640   63.4730 C.ar  479  DPC479     -0.0205
     20  CD1       32.2970   17.0400   64.8270 C.ar  479  DPC479     -0.0042
     21  CD2       33.0810   17.1290   62.5700 C.ar  479  DPC479     -0.0042
     22  CE1       33.6060   17.0720   65.2810 C.ar  479  DPC479     -0.0003
     23  CE2       34.3940   17.1650   63.0160 C.ar  479  DPC479     -0.0003
     24  CZ        34.6500   17.1340   64.3760 C.ar  479  DPC479     -0.0000
     25  C9        28.2350   18.8470   61.2970 C.3   479  DPC479      0.0935
     26  C91       28.0520   20.4090   61.2910 C.3   479  DPC479      0.0215
     27  C92       29.1410   21.3770   61.6740 C.3   479  DPC479      0.0018
     28  NE        23.7350   15.7120   63.4460 N.3   479  DPC479     -0.1309
@<TRIPOS>BOND
     1    11     9    1
     2    26    25    1
     3    26    27    1
     4    25    16    1
     5     8     9   am
     6     8     7    1
     7     9    10    2
     8    21    23   ar
     9    21    19   ar
    10    16    17    1
    11    16    14   am
    12    18    17    1
    13    18    19    1
    14    23    24   ar
    15     6     7    1
    16     6    28    1
    17     6     5    1
    18     7    12    1
    19    12    14    1
    20    12    13    1
    21    19    20   ar
    22    14    15    2
    23     5     4    1
    24    13     4    1
    25    24    22   ar
    26     4     1    1
    27    20    22   ar
    28     1     2   ar
    29     1     3   ar
