@<TRIPOS>MOLECULE
1bjo_PLP_A_1.pdb
 15 15 0 0 0
SMALL
GASTEIGER

@<TRIPOS>ATOM
      1  N1        20.1630   68.4250   39.3690 N.ar  363  PLP363     -0.2452
      2  C2        21.3960   68.2560   38.8320 C.ar  363  PLP363      0.0978
      3  C2A       22.2080   69.4230   38.3640 C.3   363  PLP363      0.0555
      4  C3        21.8860   66.9470   38.7270 C.ar  363  PLP363      0.2049
      5  O3        23.1040   66.7350   38.2180 O.3   363  PLP363     -0.2857
      6  C4        21.1120   65.8630   39.1790 C.ar  363  PLP363      0.0182
      7  C4A       21.6300   64.4480   39.0280 C.3   363  PLP363      0.0342
      8  C5        19.8430   66.1050   39.7420 C.ar  363  PLP363      0.0261
      9  C6        19.4040   67.3970   39.8200 C.ar  363  PLP363      0.0965
     10  C5A       18.9810   64.9390   40.2340 C.3   363  PLP363      0.1815
     11  O4P       19.6230   64.3770   41.4210 O.3   363  PLP363     -0.2653
     12  P         18.8610   63.1630   42.1600 P.3   363  PLP363      0.5329
     13  O1P       18.6840   62.0720   41.1300 O.2   363  PLP363     -0.2224
     14  O2P       17.4450   63.7180   42.5510 O.3   363  PLP363     -0.1145
     15  O3P       19.6430   62.8660   43.4120 O.3   363  PLP363     -0.1145
@<TRIPOS>BOND
     1     5     4    1
     2     3     2    1
     3     4     2   ar
     4     4     6   ar
     5     2     1   ar
     6     7     6    1
     7     6     8   ar
     8     1     9   ar
     9     8     9   ar
    10     8    10    1
    11    10    11    1
    12    13    12    2
    13    11    12    1
    14    12    14    1
    15    12    15    1
