@<TRIPOS>MOLECULE
1bjo_GAM_A_1.pdb
 11 10 0 0 0
SMALL
GASTEIGER

@<TRIPOS>ATOM
      1  CB2       23.5620   62.0590   38.9790 C.3   364  GAM364      0.0306
      2  CB1       21.8740   62.1070   37.1020 C.3   364  GAM364      0.0404
      3  CG        22.1070   60.6350   36.8230 C.3   364  GAM364      0.1161
      4  CD        20.8320   59.9400   36.4020 C.2   364  GAM364      0.3649
      5  OE1       19.8630   59.9540   37.2080 O.co2 364  GAM364     -0.2457
      6  OE2       20.8080   59.3910   35.2690 O.co2 364  GAM364     -0.2457
      7  C         24.2410   62.8600   36.6700 C.2   364  GAM364      0.3800
      8  O         25.0310   61.8810   36.6290 O.co2 364  GAM364     -0.2441
      9  OXT       24.3050   63.8720   35.9070 O.co2 364  GAM364     -0.2441
     10  CA        23.0860   62.8270   37.7160 C.3   364  GAM364      0.1704
     11  N         22.7140   64.2000   38.0790 N.3   364  GAM364     -0.1229
@<TRIPOS>BOND
     1     6     4   ar
     2     9     7   ar
     3     4     3    1
     4     4     5   ar
     5     8     7   ar
     6     7    10    1
     7     3     2    1
     8     2    10    1
     9    10    11    1
    10    10     1    1
