@<TRIPOS>MOLECULE
1bjq_ADE_A_1.pdb
 10 11 0 0 0
SMALL
GASTEIGER

@<TRIPOS>ATOM
      1  N9        42.4560    1.5960   28.1360 N.2   601  ADE601     -0.1914
      2  C8        41.2310    1.6660   28.7510 C.3   601  ADE601      0.2618
      3  N7        41.2910    2.0250   30.0010 N.2   601  ADE601     -0.2267
      4  C5        42.6330    2.2050   30.2370 C.2   601  ADE601      0.2303
      5  C6        43.3750    2.5900   31.3800 C.2   601  ADE601      0.4393
      6  N6        42.7940    2.8630   32.5320 N.pl3 601  ADE601      0.2185
      7  N1        44.7230    2.6680   31.2570 N.2   601  ADE601     -0.0265
      8  C2        45.2980    2.3830   30.0790 C.3   601  ADE601      0.4008
      9  N3        44.6980    2.0070   28.9280 N.2   601  ADE601     -0.1640
     10  C4        43.3570    1.9420   29.0940 C.1   601  ADE601      0.0579
@<TRIPOS>BOND
     1     1     2    1
     2     1    10    2
     3     2     3    1
     4     9    10    2
     5     9     8    1
     6    10     4    1
     7     3     4    2
     8     8     7    1
     9     4     5    1
    10     7     5    2
    11     5     6    1
