@<TRIPOS>MOLECULE
1bju_GP6_A_1.pdb
 20 21 0 0 0
SMALL
GASTEIGER

@<TRIPOS>ATOM
      1  N1        -2.7990   13.9840   14.4490 N.pl3 910  GP6910      0.2047
      2  N2        -2.0060   12.2130   15.6660 N.pl3 910  GP6910      0.2047
      3  C1        -2.3010   13.5080   15.5820 C.2   910  GP6910      0.4766
      4  C2        -1.8870   14.3700   16.6050 C.ar  910  GP6910      0.0976
      5  C3        -1.9370   15.7610   16.4670 C.ar  910  GP6910      0.0093
      6  C4        -1.5410   16.6110   17.5040 C.ar  910  GP6910      0.0169
      7  C5        -1.0780   16.0860   18.7200 C.ar  910  GP6910      0.0750
      8  C6        -1.0270   14.6990   18.8660 C.ar  910  GP6910      0.0169
      9  C7        -1.4250   13.8630   17.8200 C.ar  910  GP6910      0.0093
     10  N3        -0.6720   16.8760   19.7460 N.am  910  GP6910     -0.1607
     11  C8         0.2400   17.8600   19.6510 C.2   910  GP6910      0.3477
     12  O1         0.7740   18.1990   18.5840 O.2   910  GP6910     -0.2484
     13  N4         0.5310   18.4530   20.8150 N.am  910  GP6910     -0.1607
     14  C9         1.5460   19.2940   21.0740 C.ar  910  GP6910      0.0750
     15  C10        1.3980   20.2380   22.0940 C.ar  910  GP6910      0.0175
     16  C11        2.4440   21.1080   22.4110 C.ar  910  GP6910      0.0127
     17  C12        3.6410   21.0470   21.6980 C.ar  910  GP6910      0.0578
     18  C13        3.7940   20.1190   20.6750 C.ar  910  GP6910      0.0127
     19  C14        2.7500   19.2470   20.3620 C.ar  910  GP6910      0.0175
     20 CL          4.9500   22.0990   22.0540 Cl    910  GP6910     -0.0822
@<TRIPOS>BOND
     1     1     3    2
     2     3     2    1
     3     3     4    1
     4     5     4   ar
     5     5     6   ar
     6     4     9   ar
     7     6     7   ar
     8     9     8   ar
     9    12    11    2
    10     7     8   ar
    11     7    10    1
    12    11    10   am
    13    11    13   am
    14    19    18   ar
    15    19    14   ar
    16    18    17   ar
    17    13    14    1
    18    14    15   ar
    19    17    20    1
    20    17    16   ar
    21    15    16   ar
