@<TRIPOS>MOLECULE
1bjv_GP8_A_1.pdb
 26 28 0 0 0
SMALL
GASTEIGER

@<TRIPOS>ATOM
      1  N1        -2.8490   13.8230   13.8080 N.pl3 900  GP8900      0.2047
      2  N2        -1.9970   12.0070   14.9800 N.pl3 900  GP8900      0.2047
      3  C1        -2.3230   13.3130   14.9280 C.2   900  GP8900      0.4766
      4  C2        -1.8640   14.1660   15.9640 C.ar  900  GP8900      0.0976
      5  C3        -1.8980   15.5640   15.8270 C.ar  900  GP8900      0.0093
      6  C4        -1.5020   16.4100   16.8650 C.ar  900  GP8900      0.0169
      7  C5        -1.0560   15.8700   18.0800 C.ar  900  GP8900      0.0750
      8  C6        -1.0040   14.4810   18.2520 C.ar  900  GP8900      0.0169
      9  C7        -1.4040   13.6530   17.1990 C.ar  900  GP8900      0.0093
     10  N3        -0.6740   16.6870   19.0840 N.am  900  GP8900     -0.1607
     11  C8         0.2590   17.6460   19.0030 C.2   900  GP8900      0.3477
     12  O1         0.8290   17.9300   17.9320 O.2   900  GP8900     -0.2484
     13  N4         0.5700   18.2810   20.1300 N.am  900  GP8900     -0.1607
     14  C9         1.4490   19.2740   20.2580 C.ar  900  GP8900      0.0752
     15  C10        1.0310   20.4010   20.9650 C.ar  900  GP8900      0.0198
     16  C11        1.9630   21.4130   21.1970 C.ar  900  GP8900      0.0388
     17  C12        3.2830   21.2900   20.7240 C.ar  900  GP8900      0.1454
     18  C13        3.6670   20.1370   20.0250 C.ar  900  GP8900      0.0388
     19  C14        2.7440   19.1120   19.7820 C.ar  900  GP8900      0.0198
     20  O2         4.2000   22.2810   20.9260 O.3   900  GP8900     -0.4535
     21  C15        4.7560   22.7430   22.0830 C.ar  900  GP8900      0.1453
     22  C16        5.7950   23.6730   21.9850 C.ar  900  GP8900      0.0375
     23  C17        6.3920   24.1850   23.1360 C.ar  900  GP8900      0.0031
     24  C18        5.9560   23.7720   24.3940 C.ar  900  GP8900      0.0002
     25  C19        4.9230   22.8390   24.5010 C.ar  900  GP8900      0.0031
     26  C20        4.3200   22.3230   23.3510 C.ar  900  GP8900      0.0375
@<TRIPOS>BOND
     1     1     3    2
     2     3     2    1
     3     3     4    1
     4     5     4   ar
     5     5     6   ar
     6     4     9   ar
     7     6     7   ar
     8     9     8   ar
     9    12    11    2
    10     7     8   ar
    11     7    10    1
    12    11    10   am
    13    11    13   am
    14    19    18   ar
    15    19    14   ar
    16    18    17   ar
    17    13    14    1
    18    14    15   ar
    19    17    20    1
    20    17    16   ar
    21    20    21    1
    22    15    16   ar
    23    22    21   ar
    24    22    23   ar
    25    21    26   ar
    26    23    24   ar
    27    26    25   ar
    28    24    25   ar
