@<TRIPOS>MOLECULE
1bjy_CTC_A_1.pdb
 33 36 0 0 0
SMALL
GASTEIGER

@<TRIPOS>ATOM
      1  C1        31.2200   17.9620   56.4320 C.2   222  CTC222      0.1913
      2  O1        31.7140   18.0870   57.5770 O.2   222  CTC222     -0.2928
      3  C2        31.8440   17.0950   55.4970 C.3   222  CTC222      0.1712
      4  C2'       33.1190   16.5170   55.7460 C.2   222  CTC222      0.2700
      5  O2'       33.5040   15.5190   55.0830 O.2   222  CTC222     -0.2711
      6  N2'       33.9280   16.9290   56.7750 N.am  222  CTC222     -0.0874
      7  C3        31.0590   16.6240   54.4410 C.3   222  CTC222      0.1823
      8  O3        31.3050   15.3600   53.8710 O.3   222  CTC222     -0.2207
      9  C4        29.8680   17.4090   53.8870 C.3   222  CTC222      0.0919
     10  N4        28.9620   16.5760   52.9330 N.3   222  CTC222     -0.2692
     11  C4'       28.0010   15.6980   53.7440 C.3   222  CTC222      0.0897
     12  C4D       28.0970   17.4170   51.9660 C.3   222  CTC222      0.0897
     13  C4A       29.2740   18.4450   54.7920 C.3   222  CTC222      0.0547
     14  C5        30.0150   19.6530   54.3640 C.3   222  CTC222      0.0077
     15  C5A       29.5570   20.9070   55.0890 C.3   222  CTC222      0.0420
     16  C6        30.3720   22.0990   54.7820 C.3   222  CTC222      0.1467
     17  O6        31.7500   21.7000   54.8650 O.3   222  CTC222     -0.2211
     18  C6'       29.7900   22.4460   53.4050 C.3   222  CTC222      0.0376
     19  C6A       30.1240   23.3020   55.6800 C.ar  222  CTC222      0.0215
     20  C7        30.8420   24.4910   55.4800 C.ar  222  CTC222      0.0562
     21 CL7        32.0710   24.6440   54.1800 Cl    222  CTC222     -0.0825
     22  C8        30.5830   25.5920   56.2670 C.ar  222  CTC222      0.0144
     23  C9        29.5860   25.5460   57.2130 C.ar  222  CTC222      0.0430
     24  C10       28.8450   24.3950   57.4000 C.ar  222  CTC222      0.1982
     25  O10       27.5570   24.5410   58.0050 O.3   222  CTC222     -0.2865
     26  C6B       29.1590   23.2190   56.6860 C.ar  222  CTC222      0.0728
     27  C11       28.8190   21.9440   57.2090 C.2   222  CTC222      0.1782
     28  O11       27.9940   21.8750   58.1470 O.2   222  CTC222     -0.2912
     29  C5B       29.1940   20.7700   56.5290 C.3   222  CTC222      0.0979
     30  C12       29.0410   19.4740   57.0330 C.3   222  CTC222      0.1937
     31  O12       28.3450   19.2240   58.2580 O.3   222  CTC222     -0.2196
     32  C4B       29.6800   18.2530   56.2880 C.3   222  CTC222      0.2070
     33  O4B       28.9860   17.0840   56.7060 O.3   222  CTC222     -0.2154
@<TRIPOS>BOND
     1    12    10    1
     2    10    11    1
     3    10     9    1
     4    18    16    1
     5     8     7    1
     6     9     7    1
     7     9    13    1
     8    21    20    1
     9    14    13    1
    10    14    15    1
    11     7     3    1
    12    16    17    1
    13    16    15    1
    14    16    19    1
    15    13    32    1
    16     5     4    2
    17    15    29    1
    18    20    19   ar
    19    20    22   ar
    20     3     4    1
    21     3     1    1
    22    19    26   ar
    23     4     6   am
    24    22    23   ar
    25    32     1    1
    26    32    33    1
    27    32    30    1
    28     1     2    2
    29    29    30    1
    30    29    27    1
    31    26    27    1
    32    26    24   ar
    33    30    31    1
    34    27    28    2
    35    23    24   ar
    36    24    25    1
