@<TRIPOS>MOLECULE
1bk0_ACV_A_1.pdb
 24 23 0 0 0
SMALL
GASTEIGER

@<TRIPOS>ATOM
      1  C1        17.2560   36.3230    5.6780 C.2   351  ACV351      0.3819
      2  C2        15.8250   36.5800    6.1520 C.3   351  ACV351      0.1943
      3  C3        15.2150   37.8070    5.4750 C.3   351  ACV351      0.0311
      4  C4        13.7670   38.0880    5.9050 C.3   351  ACV351      0.0117
      5  C7        13.3240   39.3640    5.1740 C.3   351  ACV351      0.0869
      6  C10       11.8960   39.6640    5.5960 C.2   351  ACV351      0.2418
      7  N11       10.9350   39.4240    4.7170 N.am  351  ACV351     -0.1968
      8  C12        9.5070   39.7250    4.8630 C.3   351  ACV351      0.1843
      9  C13        8.7610   38.3940    4.6920 C.2   351  ACV351      0.2626
     10  N14       15.7760   36.7420    7.7520 N.3   351  ACV351     -0.1208
     11  O15       11.5580   40.0390    6.7060 O.2   351  ACV351     -0.2733
     12  C16        9.1150   40.7110    3.7560 C.3   351  ACV351      0.0997
     13  S17        9.5200   40.0700    2.0960 S.3   351  ACV351     -0.0797
     14  O18        9.2810   37.2980    4.6860 O.2   351  ACV351     -0.2714
     15  O19       18.1630   36.4560    6.5370 O.co2 351  ACV351     -0.2441
     16  O20       17.3990   36.0650    4.4840 O.co2 351  ACV351     -0.2441
     17  N29        7.4160   38.4960    4.6170 N.am  351  ACV351     -0.1941
     18  C30        6.5430   37.3430    4.4020 C.3   351  ACV351      0.1977
     19  C31        5.3180   37.4190    5.3300 C.2   351  ACV351      0.3842
     20  C32        6.1090   37.1560    2.9150 C.3   351  ACV351      0.0311
     21  C33        7.3480   36.8750    2.0460 C.3   351  ACV351      0.0023
     22  C37        5.5590   38.5400    2.4920 C.3   351  ACV351      0.0023
     23  O42        5.2410   38.2960    6.2040 O.co2 351  ACV351     -0.2437
     24  O43        4.4260   36.5720    5.1470 O.co2 351  ACV351     -0.2437
@<TRIPOS>BOND
     1    21    20    1
     2    13    12    1
     3    22    20    1
     4    20    18    1
     5    12     8    1
     6    18    17    1
     7    18    19    1
     8    16     1   ar
     9    17     9   am
    10    14     9    2
    11     9     8    1
    12     7     8    1
    13     7     6   am
    14    24    19   ar
    15     5     6    1
    16     5     4    1
    17    19    23   ar
    18     3     4    1
    19     3     2    1
    20     6    11    2
    21     1     2    1
    22     1    15   ar
    23     2    10    1
