@<TRIPOS>MOLECULE
1bk6_III_D_1.pdb
 33 32 0 0 0
SMALL
GASTEIGER

@<TRIPOS>ATOM
      1  N         90.7860   40.7440   38.3590 N.3   127  ALA127     -0.1231
      2  CA        90.4790   39.4370   38.9350 C.3   127  ALA127      0.1694
      3  C         91.4370   39.0360   40.0850 C.2   127  ALA127      0.2592
      4  O         91.4260   37.8780   40.5220 O.2   127  ALA127     -0.2718
      5  CB        90.4870   38.3630   37.8180 C.3   127  ALA127      0.0304
      6  N         92.2460   39.9850   40.5730 N.am  128  LYS128     -0.1966
      7  CA        93.2020   39.7420   41.6660 C.3   128  LYS128      0.1728
      8  C         92.5290   39.8420   43.0390 C.2   128  LYS128      0.2616
      9  O         92.0190   40.9070   43.3870 O.2   128  LYS128     -0.2715
     10  CB        94.3470   40.7580   41.6280 C.3   128  LYS128      0.0311
     11  CG        95.3180   40.6410   40.4680 C.3   128  LYS128      0.0038
     12  CD        96.3290   39.5300   40.6760 C.3   128  LYS128      0.0206
     13  CE        97.3970   39.5550   39.5900 C.3   128  LYS128      0.1093
     14  NZ        98.4740   38.5870   39.8870 N.3   128  LYS128     -0.1314
     15  N         92.5570   38.7570   43.8170 N.am  129  LYS129     -0.1963
     16  CA        91.9290   38.7300   45.1400 C.3   129  LYS129      0.1728
     17  C         92.8880   38.7800   46.3240 C.2   129  LYS129      0.2616
     18  O         93.7580   37.8840   46.4920 O.2   129  LYS129     -0.2715
     19  CB        91.0330   37.4800   45.3060 C.3   129  LYS129      0.0311
     20  CG        89.8700   37.2810   44.3000 C.3   129  LYS129      0.0038
     21  CD        89.1590   35.9710   44.6250 C.3   129  LYS129      0.0206
     22  CE        90.1490   34.8200   44.5920 C.3   129  LYS129      0.1093
     23  NZ        89.6480   33.6140   45.2900 N.3   129  LYS129     -0.1314
     24  N         92.7080   39.8220   47.1510 N.am  130  ALA130     -0.1963
     25  CA        93.4450   40.1150   48.3740 C.3   130  ALA130      0.1728
     26  C         92.6280   39.8720   49.6550 C.2   130  ALA130      0.2616
     27  O         91.4290   40.2770   49.7740 O.2   130  ALA130     -0.2715
     28  CB        93.9830   41.5610   48.4140 C.3   130  ALA130      0.0334
     29  N         93.4160   39.3320   50.5510 N.am  131  ALA131     -0.1977
     30  CA        93.2720   38.9190   51.9840 C.3   131  ALA131      0.1597
     31  C         94.3320   37.8580   52.3180 C.2   131  ALA131      0.2287
     32  O         94.4840   36.8060   51.6670 O.2   131  ALA131     -0.2864
     33  CB        91.8800   38.3880   52.2800 C.3   131  ALA131      0.0319
@<TRIPOS>BOND
     1     5     2    1
     2     1     2    1
     3     2     3    1
     4    13    14    1
     5    13    12    1
     6     3     4    2
     7     3     6   am
     8    11    12    1
     9    11    10    1
    10     6     7    1
    11    10     7    1
    12     7     8    1
    13     8     9    2
    14     8    15   am
    15    15    16    1
    16    20    21    1
    17    20    19    1
    18    22    21    1
    19    22    23    1
    20    16    19    1
    21    16    17    1
    22    17    18    2
    23    17    24   am
    24    24    25    1
    25    25    28    1
    26    25    26    1
    27    26    27    2
    28    26    29   am
    29    29    30    1
    30    32    31    2
    31    30    33    1
    32    30    31    1
