@<TRIPOS>MOLECULE
1bk9_PBP_A_1.pdb
 10 10 0 0 0
SMALL
GASTEIGER

@<TRIPOS>ATOM
      1  CH        21.0150   56.3430   -3.3220 C.3   400  PBP400      0.0773
      2  CG        20.9630   58.7360   -2.3270 C.ar  400  PBP400      0.0347
      3  CD1       20.8220   59.5780   -1.2370 C.ar  400  PBP400      0.0033
      4  CE1       20.5770   60.9230   -1.4250 C.ar  400  PBP400      0.0068
      5  CD2       20.8590   59.2790   -3.5960 C.ar  400  PBP400      0.0033
      6  CE2       20.6120   60.6260   -3.7880 C.ar  400  PBP400      0.0068
      7  CZ        20.4660   61.4690   -2.7020 C.ar  400  PBP400      0.0346
      8 BR         20.0300   63.3030   -2.9420 Br    400  PBP400     -0.0490
      9  CR        21.0080   57.3520   -2.1680 C.2   400  PBP400      0.1735
     10  O         21.0090   56.8990   -1.0240 O.2   400  PBP400     -0.2913
@<TRIPOS>BOND
     1     6     5   ar
     2     6     7   ar
     3     5     2   ar
     4     1     9    1
     5     8     7    1
     6     7     4   ar
     7     2     9    1
     8     2     3   ar
     9     9    10    2
    10     4     3   ar
