@<TRIPOS>MOLECULE
1bkc_INN_A_1.pdb
 29 28 0 0 0
SMALL
GASTEIGER

@<TRIPOS>ATOM
      1  C0        -4.9120   41.3340   45.8300 C.3     2  INN2        0.0603
      2  C         -5.3250   40.8950   44.4750 C.2     2  INN2        0.0873
      3  O         -6.0880   39.9470   44.4390 O.2     2  INN2       -0.5395
      4  N         -4.9600   41.5400   43.3910 N.am    2  INN2       -0.2030
      5  O4        -4.7920   41.2110   42.0910 O.3     2  INN2       -0.4026
      6  C4        -3.7470   40.3880   47.6570 C.2     2  INN2        0.2417
      7  O1        -3.3060   41.4650   48.0530 O.2     2  INN2       -0.2733
      8  CA        -4.0520   40.2210   46.1850 C.3     2  INN2        0.0845
      9  CB        -2.6910   40.0420   45.4880 C.3     2  INN2        0.0095
     10  C1        -1.7340   38.9600   46.0700 C.3     2  INN2        0.0005
     11  C2        -2.2640   37.4990   45.8660 C.3     2  INN2        0.0000
     12  C3        -0.3790   39.0600   45.2730 C.3     2  INN2        0.0000
     13  N1        -4.1560   39.3460   48.7990 N.am    2  INN2       -0.1978
     14  C5        -4.0810   40.1160   50.0440 C.3     2  INN2        0.1726
     15  C6        -5.5320   40.2390   50.6550 C.3     2  INN2        0.0270
     16  C7        -6.3590   41.3440   49.9150 C.3     2  INN2        0.0022
     17  C8        -6.2860   38.8950   50.4860 C.3     2  INN2        0.0022
     18  C9        -5.4770   40.5950   52.1660 C.3     2  INN2        0.0022
     19  C10       -3.2390   39.1810   50.8900 C.2     2  INN2        0.2616
     20  O2        -3.4270   37.9920   50.6920 O.2     2  INN2       -0.2715
     21  N2        -2.3670   39.5820   51.5460 N.am    2  INN2       -0.1963
     22  C11       -1.7190   38.9850   52.7340 C.3     2  INN2        0.1728
     23  C13       -2.2430   38.6670   53.8670 C.2     2  INN2        0.2613
     24  O3        -2.2780   39.8440   54.2560 O.2     2  INN2       -0.2715
     25  C12       -0.1550   39.1290   52.7680 C.3     2  INN2        0.0334
     26  N4        -3.4850   38.0130   58.4230 N.3     2  INN2       -0.1294
     27  C15       -3.7570   38.3020   57.0010 C.3     2  INN2        0.1327
     28  C14       -2.4770   38.4700   56.1760 C.3     2  INN2        0.1356
     29  N3        -2.5190   37.7960   54.8600 N.am    2  INN2       -0.2024
@<TRIPOS>BOND
     1     5     4    1
     2     4     2   am
     3     3     2    2
     4     2     1    1
     5    12    10    1
     6     9    10    1
     7     9     8    1
     8     1     8    1
     9    11    10    1
    10     8     6    1
    11     6     7    2
    12     6    13   am
    13    13    14    1
    14    16    15    1
    15    14    15    1
    16    14    19    1
    17    17    15    1
    18    15    18    1
    19    20    19    2
    20    19    21   am
    21    21    22    1
    22    22    25    1
    23    22    23    1
    24    23    24    2
    25    23    29   am
    26    29    28    1
    27    28    27    1
    28    27    26    1
