@<TRIPOS>MOLECULE
1bke_MYR_A_1.pdb
 14 13 0 0 0
SMALL
GASTEIGER

@<TRIPOS>ATOM
      1  C1        28.8050   12.6780   36.1870 C.2   1001  MYR1001     0.3649
      2  O1        27.9020   11.8740   36.5080 O.co2 1001  MYR1001    -0.2457
      3  O2        28.5730   13.8620   35.8480 O.co2 1001  MYR1001    -0.2457
      4  C2        30.2500   12.1870   36.1960 C.3   1001  MYR1001     0.1141
      5  C3        30.9360   12.3540   37.5400 C.3   1001  MYR1001     0.0118
      6  C4        31.3940   13.7900   37.7720 C.3   1001  MYR1001     0.0006
      7  C5        32.8570   13.9680   37.4120 C.3   1001  MYR1001     0.0000
      8  C6        33.2650   15.4290   37.4610 C.3   1001  MYR1001     0.0000
      9  C7        33.8040   15.8910   36.1120 C.3   1001  MYR1001     0.0000
     10  C8        35.3110   15.6870   36.0010 C.3   1001  MYR1001     0.0000
     11  C9        35.8130   16.0290   34.6040 C.3   1001  MYR1001     0.0000
     12  C10       37.1350   15.3370   34.3120 C.3   1001  MYR1001     0.0000
     13  C11       37.5060   15.4130   32.8360 C.3   1001  MYR1001     0.0000
     14  C12       36.5250   14.6480   31.9530 C.3   1001  MYR1001     0.0000
@<TRIPOS>BOND
     1    14    13    1
     2    13    12    1
     3    12    11    1
     4    11    10    1
     5     3     1   ar
     6    10     9    1
     7     9     8    1
     8     1     4    1
     9     1     2   ar
    10     4     5    1
    11     7     8    1
    12     7     6    1
    13     5     6    1
