@<TRIPOS>MOLECULE
1bke_B3I_A_1.pdb
 12 12 0 0 0
SMALL
GASTEIGER

@<TRIPOS>ATOM
      1  C2        35.1250   14.5740    9.7460 C.ar  2001  B3I2001     0.0418
      2  C3        35.9630   15.3920    8.9170 C.ar  2001  B3I2001     0.0360
      3  C5        34.0150   16.0340    7.6320 C.ar  2001  B3I2001     0.0307
      4  C6        33.1870   15.2520    8.4360 C.ar  2001  B3I2001     0.0128
      5  C         32.8580   13.7400   10.2760 C.2   2001  B3I2001     0.3882
      6  O1        32.8700   12.4890   10.1880 O.co2 2001  B3I2001    -0.2405
      7  O2        32.0540   14.3030   11.0620 O.co2 2001  B3I2001    -0.2405
      8  C1        33.7190   14.5140    9.4960 C.ar  2001  B3I2001     0.0860
      9  C4        35.3910   16.1160    7.8570 C.ar  2001  B3I2001     0.0120
     10  I1        35.9440   13.5040   11.2550 I     2001  B3I2001    -0.0419
     11  I2        38.0030   15.5260    9.2300 I     2001  B3I2001    -0.0421
     12  I3        33.1760   17.0350    6.1120 I     2001  B3I2001    -0.0425
@<TRIPOS>BOND
     1    12     3    1
     2     3     9   ar
     3     3     4   ar
     4     9     2   ar
     5     4     8   ar
     6     2    11    1
     7     2     1   ar
     8     8     1   ar
     9     8     5    1
    10     1    10    1
    11     6     5   ar
    12     5     7   ar
