@<TRIPOS>MOLECULE
1bkg_PMP_A_1.pdb
 16 16 0 0 0
SMALL
GASTEIGER

@<TRIPOS>ATOM
      1  N1        66.9010   56.2380   -0.6070 N.ar  413  PMP413     -0.2452
      2  C2        67.8450   55.4460   -0.0240 C.ar  413  PMP413      0.0978
      3  C2A       69.3040   55.4690   -0.5350 C.3   413  PMP413      0.0555
      4  C3        67.4800   54.6320    1.0160 C.ar  413  PMP413      0.2063
      5  O3        68.4110   53.8300    1.6140 O.3   413  PMP413     -0.2856
      6  C4        66.1410   54.6190    1.4550 C.ar  413  PMP413      0.0369
      7  C4A       65.7310   53.7050    2.5920 C.3   413  PMP413      0.1386
      8  N4A       66.7440   53.6820    3.5120 N.3   413  PMP413     -0.1261
      9  C5        65.1850   55.4510    0.8310 C.ar  413  PMP413      0.0275
     10  C6        65.5930   56.2450   -0.1930 C.ar  413  PMP413      0.0965
     11  C5A       63.6670   55.5000    1.2400 C.3   413  PMP413      0.1816
     12  O4P       63.3920   55.2890    2.6090 O.3   413  PMP413     -0.2653
     13  P         61.9350   55.3050    3.1610 P.3   413  PMP413      0.5329
     14  O1P       61.7780   56.7190    3.4300 O.3   413  PMP413     -0.1145
     15  O2P       62.0550   54.4190    4.4400 O.3   413  PMP413     -0.1145
     16  O3P       60.9460   54.6940    2.3100 O.2   413  PMP413     -0.2224
@<TRIPOS>BOND
     1     1    10   ar
     2     1     2   ar
     3     3     2    1
     4    10     9   ar
     5     2     4   ar
     6     9    11    1
     7     9     6   ar
     8     4     6   ar
     9     4     5    1
    10    11    12    1
    11     6     7    1
    12    16    13    2
    13     7     8    1
    14    12    13    1
    15    13    14    1
    16    13    15    1
