@<TRIPOS>MOLECULE
1bkj_FMN_A_1.pdb
 31 33 0 0 0
SMALL
GASTEIGER

@<TRIPOS>ATOM
      1  N1        -7.0160   -3.0430    8.3220 N.2   241  FMN241     -0.2890
      2  C2        -7.4830   -3.4410    7.0910 C.1   241  FMN241      0.3669
      3  O2        -8.4010   -4.1990    6.9090 O.2   241  FMN241     -0.1744
      4  N3        -6.7230   -2.9420    6.0420 N.2   241  FMN241     -0.2300
      5  C4        -5.4590   -2.2870    6.1270 C.1   241  FMN241      0.2513
      6  O4        -4.8760   -2.0360    5.0880 O.2   241  FMN241     -0.2057
      7  C4A       -5.0210   -2.0120    7.4650 C.2   241  FMN241      0.2700
      8  N5        -3.9410   -1.1450    7.5790 N.2   241  FMN241     -0.3878
      9  C5A       -3.6080   -0.5860    8.8220 C.2   241  FMN241      0.1320
     10  C6        -2.6170    0.3780    8.8450 C.2   241  FMN241      0.0250
     11  C7        -2.2870    1.0130   10.0410 C.2   241  FMN241     -0.0238
     12  C7M       -1.3180    2.2300    9.9540 C.3   241  FMN241      0.0308
     13  C8        -2.9440    0.6310   11.2460 C.2   241  FMN241     -0.0280
     14  C8M       -2.5670    1.1570   12.5920 C.3   241  FMN241      0.0304
     15  C9        -3.9280   -0.3230   11.2320 C.2   241  FMN241     -0.0041
     16  C9A       -4.2980   -0.9560   10.0050 C.3   241  FMN241      0.1497
     17  N10       -5.3830   -1.9000    9.8890 N.pl3 241  FMN241     -0.2691
     18  C10       -5.8110   -2.3570    8.6160 C.2   241  FMN241      0.2416
     19  C1'       -6.2170   -2.1590   10.9360 C.3   241  FMN241      0.1294
     20  C2'       -5.9960   -3.4360   11.7130 C.3   241  FMN241      0.2044
     21  O2'       -5.6350   -4.6040   11.1080 O.3   241  FMN241     -0.2185
     22  C3'       -6.2720   -3.4100   13.1580 C.3   241  FMN241      0.2164
     23  O3'       -6.0480   -2.1900   13.8180 O.3   241  FMN241     -0.2175
     24  C4'       -6.1260   -4.6200   14.0400 C.3   241  FMN241      0.2147
     25  O4'       -6.0360   -5.9010   13.4640 O.3   241  FMN241     -0.2176
     26  C5'       -6.4760   -4.5560   15.4490 C.3   241  FMN241      0.1892
     27  O5'       -7.9340   -4.6120   15.3980 O.3   241  FMN241     -0.2674
     28  P         -8.9270   -3.3940   15.8300 P.3   241  FMN241      0.5327
     29  O1P       -8.7390   -3.2910   17.2650 O.3   241  FMN241     -0.1145
     30  O2P      -10.2480   -3.8600   15.3420 O.3   241  FMN241     -0.1145
     31  O3P       -8.4390   -2.1320   15.2260 O.2   241  FMN241     -0.2224
@<TRIPOS>BOND
     1     6     5    2
     2     4     5    2
     3     4     2    2
     4     5     7    1
     5     3     2    2
     6     2     1    2
     7     7     8    2
     8     7    18    1
     9     8     9    2
    10     1    18    2
    11    18    17    1
    12     9    10    1
    13     9    16    1
    14    10    11    2
    15    17    16    1
    16    17    19    1
    17    12    11    1
    18    16    15    1
    19    11    13    1
    20    19    20    1
    21    21    20    1
    22    15    13    2
    23    13    14    1
    24    20    22    1
    25    22    23    1
    26    22    24    1
    27    25    24    1
    28    24    26    1
    29    31    28    2
    30    30    28    1
    31    27    26    1
    32    27    28    1
    33    28    29    1
