@<TRIPOS>MOLECULE
1bkm_1C5_A_1.pdb
 47 48 0 0 0
SMALL
GASTEIGER

@<TRIPOS>ATOM
      1  C1         0.0490   17.6680   19.9580 C.3   113  1C5113      0.0000
      2  C2         0.5130   19.1040   19.7090 C.3   113  1C5113      0.0003
      3  C3         1.9840   19.1670   19.2470 C.3   113  1C5113      0.0043
      4  C4         2.9170   18.4970   20.2730 C.3   113  1C5113      0.0217
      5  C5         2.4670   17.0430   20.4580 C.3   113  1C5113      0.0043
      6  C6         0.9990   16.9450   20.9150 C.3   113  1C5113      0.0003
      7  C7         4.4180   18.6760   19.9350 C.2   113  1C5113     -0.0293
      8  C8         5.3910   18.0650   20.9530 C.2   113  1C5113     -0.0087
      9  C9         6.8810   18.0570   20.5390 C.3   113  1C5113      0.1254
     10  C10        7.6150   19.3210   20.9890 C.2   113  1C5113      0.2354
     11  C11        7.3440   16.5630   18.8950 C.2   113  1C5113      0.2406
     12  C12        7.5680   16.4630   17.2550 C.3   113  1C5113      0.1491
     13  C13        6.2560   16.5090   16.5900 C.3   113  1C5113      0.0408
     14  C14        6.4170   16.2580   15.0930 C.3   113  1C5113      0.1163
     15  C15        7.1380   17.4500   14.4580 C.2   113  1C5113      0.3649
     16  C16        9.4820   14.9260   17.4440 C.2   113  1C5113      0.2410
     17  C17       10.1690   13.5830   17.2000 C.3   113  1C5113      0.1529
     18  C18        9.8100   12.6180   18.3570 C.3   113  1C5113      0.0553
     19  C19       10.2920   11.1730   18.1650 C.ar  113  1C5113     -0.0198
     20  C20        9.5900   10.2970   17.3210 C.ar  113  1C5113     -0.0011
     21  C21       10.0210    8.9640   17.1990 C.ar  113  1C5113      0.0371
     22  C22       11.1380    8.5110   17.9250 C.ar  113  1C5113      0.1490
     23  C23       11.8360    9.3820   18.7740 C.ar  113  1C5113      0.0371
     24  C24       11.4280   10.7210   18.8670 C.ar  113  1C5113     -0.0011
     25  C25       12.1110   13.5990   15.8540 C.2   113  1C5113      0.2233
     26  C26       13.6130   13.8620   15.7380 C.3   113  1C5113      0.0946
     27  N1         8.7180   19.6270   20.3290 N.am  113  1C5113     -0.3275
     28  N2         7.0850   17.6560   19.0960 N.am  113  1C5113     -0.2984
     29  N3         8.3550   15.1370   16.7650 N.am  113  1C5113     -0.2970
     30  N4        11.6200   13.7530   17.0710 N.am  113  1C5113     -0.2981
     31  O1         7.2270   19.9610   21.9390 O.2   113  1C5113     -0.2736
     32  O2         7.3860   15.7290   19.6420 O.2   113  1C5113     -0.2733
     33  O3         8.1760   17.2500   13.8290 O.co2 113  1C5113     -0.2457
     34  O4         6.6930   18.5670   14.5280 O.co2 113  1C5113     -0.2457
     35  O5         9.9490   15.7270   18.2410 O.2   113  1C5113     -0.2733
     36  O6        11.4190   13.2160   14.9150 O.2   113  1C5113     -0.2751
     37  O4P       11.5880    7.1800   17.7840 O.3   113  1C5113     -0.3998
     38  O1P       12.0490    7.7110   15.3880 O.2   113  1C5113     -0.2114
     39  O2P       12.2410    5.4440   16.1350 O.3   113  1C5113     -0.1039
     40  O3P       13.8830    7.0840   16.8590 O.3   113  1C5113     -0.1039
     41  P         12.4560    6.8530   16.5450 P.3   113  1C5113      0.5887
     42  H9         7.3610   17.3410   21.2110 H     113  1C5113      0.0646
     43 HN11        9.1650   20.4080   20.7520 H     113  1C5113      0.1450
     44 HN12        9.0660   19.1600   19.5190 H     113  1C5113      0.1450
     45  HN2        7.1590   18.3010   18.3340 H     113  1C5113      0.1498
     46  HN3        8.2050   14.5380   15.9740 H     113  1C5113      0.1499
     47  HN4       12.2080   14.1850   17.7630 H     113  1C5113      0.1498
@<TRIPOS>BOND
     1    33    15   ar
     2    15    34   ar
     3    15    14    1
     4    36    25    2
     5    14    13    1
     6    38    41    2
     7    26    25    1
     8    25    30   am
     9    46    29    1
    10    39    41    1
    11    41    40    1
    12    41    37    1
    13    13    12    1
    14    29    12    1
    15    29    16   am
    16    30    17    1
    17    30    47    1
    18    21    20   ar
    19    21    22   ar
    20    17    16    1
    21    17    18    1
    22    12    11    1
    23    20    19   ar
    24    16    35    2
    25    37    22    1
    26    22    23   ar
    27    19    18    1
    28    19    24   ar
    29    45    28    1
    30    23    24   ar
    31    11    28   am
    32    11    32    2
    33    28     9    1
    34     3     2    1
    35     3     4    1
    36    44    27    1
    37     2     1    1
    38     7     4    1
    39     7     8    2
    40     1     6    1
    41     4     5    1
    42    27    43    1
    43    27    10   am
    44     5     6    1
    45     9     8    1
    46     9    10    1
    47     9    42    1
    48    10    31    2
