@<TRIPOS>MOLECULE
1bks_PLP_B_1.pdb
 15 15 0 0 0
SMALL
GASTEIGER

@<TRIPOS>ATOM
      1  N1        85.4160   13.8180   11.8770 N.ar  401  PLP401     -0.2452
      2  C2        85.3850   14.1660   10.5930 C.ar  401  PLP401      0.0978
      3  C2A       86.6260   13.9650    9.7980 C.3   401  PLP401      0.0555
      4  C3        84.1740   14.6750   10.0810 C.ar  401  PLP401      0.2049
      5  O3        84.0370   15.0400    8.8270 O.3   401  PLP401     -0.2857
      6  C4        83.0940   14.8230   10.9590 C.ar  401  PLP401      0.0182
      7  C4A       81.8190   15.3460   10.3250 C.3   401  PLP401      0.0342
      8  C5        83.1680   14.4430   12.2670 C.ar  401  PLP401      0.0261
      9  C6        84.3740   13.9260   12.7290 C.ar  401  PLP401      0.0965
     10  C5A       82.0280   14.6050   13.2420 C.3   401  PLP401      0.1815
     11  O4P       80.9420   13.7470   13.0530 O.3   401  PLP401     -0.2653
     12  P         80.3980   12.5720   13.8140 P.3   401  PLP401      0.5329
     13  O1P       78.9360   12.4960   13.4260 O.2   401  PLP401     -0.2224
     14  O2P       80.5670   12.9350   15.3510 O.3   401  PLP401     -0.1145
     15  O3P       81.0980   11.2670   13.6210 O.3   401  PLP401     -0.1145
@<TRIPOS>BOND
     1     5     4    1
     2     3     2    1
     3     4     2   ar
     4     4     6   ar
     5     7     6    1
     6     2     1   ar
     7     6     8   ar
     8     1     9   ar
     9     8     9   ar
    10     8    10    1
    11    11    10    1
    12    11    12    1
    13    13    12    2
    14    15    12    1
    15    12    14    1
