@<TRIPOS>MOLECULE
1bkw_PHB_A_1.pdb
 10 10 0 0 0
SMALL
GASTEIGER

@<TRIPOS>ATOM
      1  C1'       17.2820   96.8590   45.8490 C.2   396  PHB396      0.3878
      2  O1'       16.3220   97.4450   45.3260 O.co2 396  PHB396     -0.2406
      3  O2'       18.1540   97.4980   46.4680 O.co2 396  PHB396     -0.2406
      4  C1        17.3480   95.4520   45.8130 C.ar  396  PHB396      0.0800
      5  C2        16.3110   94.7080   45.2230 C.ar  396  PHB396      0.0099
      6  C3        16.3590   93.3200   45.2060 C.ar  396  PHB396      0.0422
      7  C4        17.4450   92.6470   45.7910 C.ar  396  PHB396      0.1958
      8  C5        18.4950   93.3610   46.3850 C.ar  396  PHB396      0.0422
      9  C6        18.4390   94.7430   46.3990 C.ar  396  PHB396      0.0099
     10  O4        17.4610   91.3430   45.7440 O.3   396  PHB396     -0.2866
@<TRIPOS>BOND
     1     6     5   ar
     2     6     7   ar
     3     5     4   ar
     4     2     1   ar
     5    10     7    1
     6     7     8   ar
     7     4     1    1
     8     4     9   ar
     9     1     3   ar
    10     8     9   ar
