@<TRIPOS>MOLECULE
1bkx_A_A_1.pdb
 19 21 0 0 0
SMALL
GASTEIGER

@<TRIPOS>ATOM
      1  O5'        8.4800   41.6500   18.8480 O.3   351  A351       -0.2176
      2  C5'        9.6810   41.2630   18.1920 C.3   351  A351        0.2143
      3  C4'        9.9580   39.7920   18.3770 C.3   351  A351        0.1851
      4  O4'       11.1850   39.5200   17.7670 O.3   351  A351       -0.3134
      5  C3'       10.1070   39.3270   19.8560 C.3   351  A351        0.2186
      6  O3'        8.9290   38.7210   20.4700 O.3   351  A351       -0.2174
      7  C2'       11.1910   38.3150   19.7840 C.3   351  A351        0.2570
      8  O2'       10.6660   37.0010   19.4880 O.3   351  A351       -0.2130
      9  C1'       12.0280   38.8400   18.6340 C.3   351  A351        0.3186
     10  N9        13.0150   39.7530   18.9900 N.pl3 351  A351       -0.1439
     11  C8        12.8110   41.1280   18.8630 C.3   351  A351        0.3377
     12  N7        13.9380   41.8470   19.0880 N.2   351  A351       -0.2095
     13  C5        14.9300   40.8490   19.3060 C.2   351  A351        0.2526
     14  C6        16.3210   40.9180   19.5860 C.2   351  A351        0.4393
     15  N6        16.9900   42.0730   19.7300 N.pl3 351  A351        0.2180
     16  N1        16.9930   39.7370   19.7640 N.2   351  A351        0.0021
     17  C2        16.3200   38.5640   19.6030 C.3   351  A351        0.5254
     18  N3        15.0120   38.3680   19.3300 N.2   351  A351       -0.0055
     19  C4        14.3660   39.5560   19.2060 C.2   351  A351        0.3518
@<TRIPOS>BOND
     1     4     3    1
     2     4     9    1
     3     2     3    1
     4     2     1    1
     5     3     5    1
     6     9    10    1
     7     9     7    1
     8    11    10    1
     9    11    12    1
    10    10    19    1
    11    12    13    2
    12    19    13    1
    13    19    18    2
    14    13    14    1
    15    18    17    1
    16     8     7    1
    17    14    15    1
    18    14    16    2
    19    17    16    1
    20     7     5    1
    21     5     6    1
