@<TRIPOS>MOLECULE
1bky_SAH_A_1.pdb
 30 32 0 0 0
SMALL
GASTEIGER

@<TRIPOS>ATOM
      1  N         -4.0660   12.8050   24.1870 N.3   400  SAH400     -0.2362
      2  CA        -4.2320   11.7910   25.2120 C.3   400  SAH400      0.1728
      3  CB        -2.9400   10.9910   25.3350 C.3   400  SAH400      0.0403
      4  CG        -2.5520   10.2870   24.0250 C.3   400  SAH400      0.0596
      5  SD        -1.2550    9.0500   24.1760 S.3   400  SAH400     -0.1375
      6  C         -4.6380   12.4020   26.5530 C.2   400  SAH400      0.3800
      7  O         -5.0000   13.5950   26.5490 O.co2 400  SAH400     -0.2441
      8  OXT       -4.4900   11.7260   27.6060 O.co2 400  SAH400     -0.2441
      9  C5'       -1.2450    8.4860   22.4590 C.3   400  SAH400      0.0899
     10  C4'       -2.5590    7.8540   22.0120 C.3   400  SAH400      0.1629
     11  O4'       -2.5930    7.7210   20.5740 O.3   400  SAH400     -0.3154
     12  C3'       -2.7450    6.4430   22.5740 C.3   400  SAH400      0.2132
     13  O3'       -3.9080    6.3910   23.4290 O.3   400  SAH400     -0.2176
     14  C2'       -2.9390    5.6460   21.3520 C.3   400  SAH400      0.2171
     15  O2'       -3.8420    4.4720   21.5230 O.3   400  SAH400     -0.3762
     16  C1'       -3.5040    6.6280   20.4120 C.3   400  SAH400      0.3149
     17  N9        -3.4650    6.1440   19.0100 N.pl3 400  SAH400     -0.1440
     18  C8        -2.4130    5.5790   18.2610 C.3   400  SAH400      0.3377
     19  N7        -2.7610    5.3210   17.0170 N.2   400  SAH400     -0.2098
     20  C5        -4.1160    5.7320   16.9360 C.2   400  SAH400      0.2438
     21  C6        -5.0660    5.7200   15.9110 C.2   400  SAH400      0.3428
     22  N6        -4.8360    5.2870   14.6780 N.pl3 400  SAH400     -0.2449
     23  N1        -6.2710    6.1650   16.1990 N.2   400  SAH400     -0.0059
     24  C2        -6.5400    6.6080   17.4060 C.3   400  SAH400      0.5252
     25  N3        -5.7800    6.6920   18.4450 N.2   400  SAH400     -0.0055
     26  C4        -4.5490    6.2250   18.1390 C.2   400  SAH400      0.3515
     27  HN1       -4.3910   12.6080   23.2850 H     400  SAH400      0.1419
     28 HO2'       -3.6450    3.9860   20.7300 H     400  SAH400      0.2107
     29 HN61       -3.9080    4.9800   14.4570 H     400  SAH400      0.2885
     30 HN62       -5.5710    5.2390   13.9880 H     400  SAH400      0.2885
@<TRIPOS>BOND
     1    30    22    1
     2    29    22    1
     3    22    21    1
     4    21    23    2
     5    21    20    1
     6    23    24    1
     7    20    19    2
     8    20    26    1
     9    19    18    1
    10    24    25    1
    11    26    25    2
    12    26    17    1
    13    18    17    1
    14    17    16    1
    15    16    11    1
    16    16    14    1
    17    11    10    1
    18    28    15    1
    19    14    15    1
    20    14    12    1
    21    10     9    1
    22    10    12    1
    23     9     5    1
    24    12    13    1
    25    27     1    1
    26     4     5    1
    27     4     3    1
    28     1     2    1
    29     2     3    1
    30     2     6    1
    31     7     6   ar
    32     6     8   ar
