@<TRIPOS>MOLECULE
1bl4_AP1_A_1.pdb
 50 53 0 0 0
SMALL
GASTEIGER

@<TRIPOS>ATOM
      1  C1         6.5130    1.1850   -3.4200 C.2   108  AP1108      0.3354
      2  C2         5.0160    1.5050   -3.4870 C.3   108  AP1108      0.1746
      3  C3         4.0720    0.7010   -2.5580 C.3   108  AP1108      0.0314
      4  C4         4.0060   -0.7900   -3.0250 C.3   108  AP1108      0.0040
      5  C5         3.4390   -0.8850   -4.4630 C.3   108  AP1108      0.0216
      6  C6         4.3100   -0.0500   -5.4230 C.3   108  AP1108      0.0939
      7  C8         4.4860    2.4000   -5.7520 C.2   108  AP1108      0.2296
      8  C9         4.0740    2.1860   -7.2080 C.3   108  AP1108      0.0991
      9  C10        5.2780    1.7120   -8.0250 C.ar  108  AP1108     -0.0076
     10  C11        6.4360    2.5060   -8.1080 C.ar  108  AP1108      0.0365
     11  C12        7.5810    2.0460   -8.7940 C.ar  108  AP1108      0.1751
     12  C13        7.5420    0.7970   -9.4140 C.ar  108  AP1108      0.2060
     13  C14        6.3750    0.0000   -9.3550 C.ar  108  AP1108      0.1751
     14  O15        6.3520   -1.2400   -9.9810 O.3   108  AP1108     -0.4683
     15  C16        2.0590    3.7820   -7.1820 C.3   108  AP1108      0.0009
     16  O17        8.7460    2.8080   -8.8680 O.3   108  AP1108     -0.4683
     17  C18        5.3220   -2.1900   -9.6560 C.3   108  AP1108      0.2526
     18  C19        8.7060    0.6920  -11.4940 C.3   108  AP1108      0.2528
     19  C20        8.8100    4.0970   -8.2310 C.3   108  AP1108      0.2526
     20  C21       12.4770    1.2830    1.2960 C.3   108  AP1108      0.2526
     21  C22        8.2750   -1.2250   -6.5440 C.ar  108  AP1108     -0.0006
     22  C23        8.2480   -2.5460   -7.0220 C.ar  108  AP1108      0.0029
     23  C24        8.4320   -3.6130   -6.1390 C.ar  108  AP1108      0.0369
     24  C25        8.4890   -0.9420   -5.1890 C.ar  108  AP1108      0.0203
     25  C26        8.4950    0.4960   -4.6400 C.3   108  AP1108      0.1916
     26  C27        9.3220    1.4810   -5.5120 C.3   108  AP1108      0.0530
     27  C28       10.8290    1.4840   -5.1660 C.3   108  AP1108      0.0305
     28  C29       11.1830    1.6610   -3.6810 C.ar  108  AP1108     -0.0188
     29  C30       11.3100    2.9570   -3.1730 C.ar  108  AP1108      0.0358
     30  C31       11.6380    3.1750   -1.8220 C.ar  108  AP1108      0.1721
     31  C32       11.8430    2.0830   -0.9640 C.ar  108  AP1108      0.1724
     32  C33       11.7160    0.7820   -1.4670 C.ar  108  AP1108      0.0397
     33  C34       11.3890    0.5790   -2.8110 C.ar  108  AP1108     -0.0009
     34  C35        8.6500   -3.3630   -4.7680 C.ar  108  AP1108      0.1392
     35  O36        8.8190   -4.4130   -3.8280 O.3   108  AP1108     -0.4637
     36  C37        9.9960   -5.2510   -3.7220 C.3   108  AP1108      0.3186
     37  C38       10.4530   -5.6720   -5.1030 C.2   108  AP1108      0.4084
     38  O39       11.5000   -5.1490   -5.5780 O.co2 108  AP1108     -0.2415
     39  O40        9.7610   -6.5390   -5.7260 O.co2 108  AP1108     -0.2415
     40  C41        8.6770   -2.0240   -4.3100 C.ar  108  AP1108      0.0361
     41  C42       11.1230    5.5950   -1.8920 C.3   108  AP1108      0.2526
     42  N7         4.5320    1.3440   -4.9000 N.am  108  AP1108     -0.2712
     43  O43        7.0840    0.8510   -4.5990 O.3   108  AP1108     -0.4465
     44  O44        7.0900    1.2300   -2.3480 O.2   108  AP1108     -0.2483
     45  O45        4.7630    3.5220   -5.3860 O.2   108  AP1108     -0.2745
     46  C46        3.4470    3.4820   -7.8060 C.3   108  AP1108      0.0135
     47  C47        5.2510    0.4690   -8.6630 C.ar  108  AP1108      0.0365
     48  O48        8.6710    0.3420  -10.0960 O.3   108  AP1108     -0.4654
     49  O49       11.7730    4.4680   -1.2870 O.3   108  AP1108     -0.4684
     50  O50       12.1730    2.3510    0.3760 O.3   108  AP1108     -0.4684
@<TRIPOS>BOND
     1    18    48    1
     2    48    12    1
     3    14    17    1
     4    14    13    1
     5    12    13   ar
     6    12    11   ar
     7    13    47   ar
     8    16    11    1
     9    16    19    1
    10    11    10   ar
    11    47     9   ar
    12    10     9   ar
    13     9     8    1
    14    46     8    1
    15    46    15    1
    16     8     7    1
    17    22    21   ar
    18    22    23   ar
    19    21    24   ar
    20    23    34   ar
    21     7    45    2
    22     7    42   am
    23    39    37   ar
    24    38    37   ar
    25    26    27    1
    26    26    25    1
    27     6    42    1
    28     6     5    1
    29    24    25    1
    30    24    40   ar
    31    27    28    1
    32    37    36    1
    33    42     2    1
    34    34    40   ar
    35    34    35    1
    36    25    43    1
    37    43     1    1
    38     5     4    1
    39    35    36    1
    40    28    29   ar
    41    28    33   ar
    42     2     1    1
    43     2     3    1
    44     1    44    2
    45    29    30   ar
    46     4     3    1
    47    33    32   ar
    48    41    49    1
    49    30    49    1
    50    30    31   ar
    51    32    31   ar
    52    31    50    1
    53    50    20    1
