@<TRIPOS>MOLECULE
1bl5_NAP_A_1.pdb
 27 29 0 0 0
SMALL
GASTEIGER

@<TRIPOS>ATOM
      1  PA        92.0960   68.0700   -4.7970 P.3     2  NAP2        0.5327
      2  O1A       90.8340   67.6680   -4.0540 O.3     2  NAP2       -0.1145
      3  O2A       91.9720   68.4070   -6.2600 O.2     2  NAP2       -0.2224
      4  O5B       92.7900   69.4350   -4.0660 O.3     2  NAP2       -0.2675
      5  C5B       92.8150   70.6550   -4.8900 C.3     2  NAP2        0.1860
      6  C4B       94.0950   71.5450   -4.9870 C.3     2  NAP2        0.1822
      7  O4B       94.4710   72.3180   -3.8050 O.3     2  NAP2       -0.3136
      8  C3B       95.3850   70.8060   -5.3370 C.3     2  NAP2        0.2157
      9  O3B       95.4320   70.4260   -6.7060 O.3     2  NAP2       -0.2175
     10  C2B       96.4740   71.8040   -4.9750 C.3     2  NAP2        0.2314
     11  O2B       96.3290   73.0680   -5.6230 O.3     2  NAP2       -0.2630
     12  C1B       95.9030   72.1980   -3.6410 C.3     2  NAP2        0.3158
     13  N9A       96.2780   71.2950   -2.5090 N.pl3   2  NAP2       -0.1439
     14  C8A       95.6450   70.1380   -2.0200 C.3     2  NAP2        0.3377
     15  N7A       96.1740   69.7120   -0.9000 N.2     2  NAP2       -0.2095
     16  C5A       97.2010   70.6190   -0.6240 C.2     2  NAP2        0.2526
     17  C6A       98.1310   70.7110    0.4150 C.2     2  NAP2        0.4393
     18  N6A       98.1820   69.8630    1.4070 N.pl3   2  NAP2        0.2180
     19  N1A       99.0350   71.6890    0.3490 N.2     2  NAP2        0.0021
     20  C2A       99.0270   72.5600   -0.6680 C.3     2  NAP2        0.5254
     21  N3A       98.1870   72.5910   -1.7100 N.2     2  NAP2       -0.0055
     22  C4A       97.2800   71.5820   -1.6120 C.2     2  NAP2        0.3518
     23  O3        93.2920   66.9230   -4.6890 O.3     2  NAP2       -0.1145
     24  P2B       97.3470   73.6730   -6.7620 P.3     2  NAP2        0.5328
     25  O1X       97.4970   72.5720   -7.7620 O.2     2  NAP2       -0.2224
     26  O2X       96.8400   75.0170   -7.1660 O.3     2  NAP2       -0.1145
     27  O3X       98.8010   73.9740   -6.1030 O.3     2  NAP2       -0.1145
@<TRIPOS>BOND
     1    25    24    2
     2    26    24    1
     3    24    27    1
     4    24    11    1
     5     9     8    1
     6     3     1    2
     7    11    10    1
     8     8     6    1
     9     8    10    1
    10     6     5    1
    11     6     7    1
    12    10    12    1
    13     5     4    1
    14     1    23    1
    15     1     4    1
    16     1     2    1
    17     7    12    1
    18    12    13    1
    19    13    14    1
    20    13    22    1
    21    14    15    1
    22    21    22    2
    23    21    20    1
    24    22    16    1
    25    15    16    2
    26    20    19    1
    27    16    17    1
    28    19    17    2
    29    17    18    1
