@<TRIPOS>MOLECULE
1bl5_AKG_A_1.pdb
 10 9 0 0 0
SMALL
GASTEIGER

@<TRIPOS>ATOM
      1  C1        85.0260   67.0330    3.3350 C.2     1  AKG1        0.4257
      2  O1        85.1530   66.2980    4.2800 O.co2   1  AKG1       -0.2369
      3  O2        85.0930   68.3170    3.6330 O.co2   1  AKG1       -0.2369
      4  C2        84.6920   66.8380    1.9460 C.2     1  AKG1        0.2710
      5  O5        84.6210   67.9940    1.1920 O.2     1  AKG1       -0.2798
      6  C3        84.6200   65.5110    1.7610 C.2     1  AKG1        0.0347
      7  C4        84.4840   64.8750    0.4940 C.3     1  AKG1        0.1435
      8  C5        85.6490   63.9140    0.3740 C.2     1  AKG1        0.3693
      9  O3        86.7300   64.2190   -0.0450 O.co2   1  AKG1       -0.2453
     10  O4        85.4860   62.7950    0.8310 O.co2   1  AKG1       -0.2453
@<TRIPOS>BOND
     1     9     8   ar
     2     8     7    1
     3     8    10   ar
     4     7     6    1
     5     5     4    1
     6     6     4    2
     7     4     1    1
     8     1     3   ar
     9     1     2   ar
