@<TRIPOS>MOLECULE
1bl6_SB6_A_1.pdb
 22 25 0 0 0
SMALL
GASTEIGER

@<TRIPOS>ATOM
      1  FA1        7.9390   10.9520   30.2500 F     800  SB6800     -0.2042
      2  CA1        6.2980   12.3920   31.2320 C.ar  800  SB6800      0.0297
      3  CA2        6.6870   11.4820   30.2200 C.ar  800  SB6800      0.1401
      4  CA3        5.7760   11.1240   29.1840 C.ar  800  SB6800      0.0297
      5  CA4        4.4670   11.6800   29.1780 C.ar  800  SB6800      0.0035
      6  CA5        4.0450   12.6090   30.2120 C.ar  800  SB6800      0.0150
      7  CA6        4.9960   12.9490   31.2300 C.ar  800  SB6800      0.0035
      8  CB1        0.2710    9.1030   28.8640 C.ar  800  SB6800      0.0986
      9  NB2        0.6480    8.2870   29.8690 N.ar  800  SB6800     -0.2423
     10  CB3        1.2490    8.7450   30.9850 C.ar  800  SB6800      0.0986
     11  CB4        1.5150   10.1290   31.1540 C.ar  800  SB6800      0.0181
     12  CB5        1.1360   11.0470   30.1130 C.ar  800  SB6800      0.0010
     13  CB6        0.4990   10.5010   28.9430 C.ar  800  SB6800      0.0181
     14  NC1        0.3390   13.4600   30.3260 N.3   800  SB6800     -0.2449
     15  CC2        1.3880   12.4630   30.2470 C.3   800  SB6800      0.1221
     16  CC3        2.7190   13.1680   30.2370 C.2   800  SB6800      0.0740
     17  NC4        2.5030   14.5560   30.3210 N.2   800  SB6800     -0.2550
     18  CC5        1.1320   14.6060   30.3640 C.3   800  SB6800      0.2010
     19  CD1       -1.1850   13.4020   30.3410 C.3   800  SB6800      0.0744
     20  CE1       -1.8380   13.2980   28.9070 C.3   800  SB6800      0.0161
     21  CE2       -1.0040   13.4460   27.6070 C.3   800  SB6800      0.0014
     22  CE3       -1.9320   14.5780   28.0580 C.3   800  SB6800      0.0014
@<TRIPOS>BOND
     1    21    22    1
     2    21    20    1
     3    22    20    1
     4     8    13   ar
     5     8     9   ar
     6    20    19    1
     7    13    12   ar
     8     5     4   ar
     9     5     6   ar
    10     4     3   ar
    11     9    10   ar
    12    12    15    1
    13    12    11   ar
    14     6    16    1
    15     6     7   ar
    16     3     1    1
    17     3     2   ar
    18    16    15    1
    19    16    17    2
    20    15    14    1
    21    17    18    1
    22    14    19    1
    23    14    18    1
    24    10    11   ar
    25     7     2   ar
