@<TRIPOS>MOLECULE
1bl7_SB4_A_1.pdb
 25 28 0 0 0
SMALL
GASTEIGER

@<TRIPOS>ATOM
      1  CA1       -0.7150   13.9340   31.0480 C.3   800  SB4800      0.0349
      2  CA2       -2.2560   14.0530   31.0450 C.3   800  SB4800      0.0901
      3  NA3       -2.7750   15.2930   30.3480 N.3   800  SB4800     -0.2180
      4  CA4       -2.1910   15.6130   28.9920 C.3   800  SB4800      0.0901
      5  CA5       -0.6460   15.4360   28.9680 C.3   800  SB4800      0.0349
      6  CA6       -0.1460   14.1020   29.6150 C.3   800  SB4800      0.0628
      7  CB1        5.3620   11.7460   28.8610 C.ar  800  SB4800      0.0035
      8  CB2        6.5890   11.0630   29.0130 C.ar  800  SB4800      0.0297
      9  CB3        7.3730   11.2740   30.1640 C.ar  800  SB4800      0.1401
     10  CB4        6.9400   12.1690   31.1760 C.ar  800  SB4800      0.0297
     11  CB5        5.7110   12.8560   31.0300 C.ar  800  SB4800      0.0035
     12  CB6        4.8890   12.6620   29.8690 C.ar  800  SB4800      0.0151
     13  FB7        8.5510   10.6150   30.3030 F     800  SB4800     -0.2042
     14  CC1        2.2910   10.5090   30.5950 C.2   800  SB4800      0.0518
     15  CC2        1.7660   11.5090   29.6870 C.2   800  SB4800      0.1435
     16  NC3        0.7890   11.1550   28.7880 N.2   800  SB4800     -0.3379
     17  CC4        0.3490    9.8990   28.7720 C.1   800  SB4800      0.1861
     18  NC5        0.7740    8.9170   29.5640 N.2   800  SB4800     -0.1673
     19  CC6        1.7370    9.2020   30.4730 C.2   800  SB4800      0.1142
     20  NC7       -0.5830    9.6050   27.9020 N.pl3 800  SB4800     -0.0345
     21  ND1        1.3580   13.9970   29.6610 N.3   800  SB4800     -0.2440
     22  CD2        2.2980   15.0140   29.6890 C.3   800  SB4800      0.2011
     23  ND3        3.6240   14.7740   29.7430 N.2   800  SB4800     -0.2549
     24  CD4        3.6470   13.3730   29.7540 C.2   800  SB4800      0.0767
     25  CD5        2.2430   12.8750   29.6980 C.3   800  SB4800      0.1530
@<TRIPOS>BOND
     1    20    17    1
     2    17    16    2
     3    17    18    2
     4    16    15    2
     5     7     8   ar
     6     7    12   ar
     7     5     4    1
     8     5     6    1
     9     4     3    1
    10     8     9   ar
    11    18    19    1
    12     6    21    1
    13     6     1    1
    14    21    22    1
    15    21    25    1
    16    15    25    1
    17    15    14    1
    18    22    23    1
    19    25    24    1
    20    23    24    2
    21    24    12    1
    22    12    11   ar
    23     9    13    1
    24     9    10   ar
    25     3     2    1
    26    19    14    2
    27    11    10   ar
    28     2     1    1
