@<TRIPOS>MOLECULE
1bl9_DHE_A_1.pdb
 49 56 0 0 0
SMALL
GASTEIGER

@<TRIPOS>ATOM
      1 FE         27.7450   21.8500    6.0400 Fe    602  DHE602      0.0000
      2  CHA       24.4410   22.1970    6.7880 C.2   602  DHE602      0.0000
      3  CHB       28.2320   19.8530    8.7720 C.2   602  DHE602      0.0000
      4  CHC       30.8030   21.0740    4.8820 C.2   602  DHE602      0.0000
      5  CHD       27.6700   24.6290    4.1560 C.2   602  DHE602      0.0000
      6  NA        26.4830   21.0080    7.4550 N.2   602  DHE602      0.0000
      7  C1A       25.1360   21.3080    7.6130 C.2   602  DHE602      0.0000
      8  C2A       24.6490   20.5300    8.7190 C.2   602  DHE602      0.0000
      9  C3A       25.7160   19.8340    9.2450 C.2   602  DHE602      0.0000
     10  C4A       26.8920   20.2070    8.5110 C.2   602  DHE602      0.0000
     11  CMA       25.7270   18.8340   10.3620 C.3   602  DHE602      0.0000
     12  CAA       23.2020   20.4560    9.1740 C.2   602  DHE602      0.0000
     13  CBA       22.8120   21.4200   10.2130 C.2   602  DHE602      0.0000
     14  CGA       21.3640   21.6200   10.4440 C.2   602  DHE602      0.0000
     15  O1A       20.5560   21.3190    9.5280 O.co2 602  DHE602      0.0000
     16  O2A       20.9820   22.0850   11.5480 O.co2 602  DHE602      0.0000
     17  NB        29.3220   20.6480    6.7070 N.pl3 602  DHE602      0.0000
     18  C1B       29.2980   19.9690    7.8930 C.2   602  DHE602      0.0000
     19  C2B       30.6230   19.3280    8.1020 C.2   602  DHE602      0.0000
     20  OMB       31.0430   18.8290    9.1190 O.2   602  DHE602      0.0000
     21  C3B       31.3590   19.4080    6.7820 C.2   602  DHE602      0.0000
     22  CGB       31.2050   17.9680    6.0940 C.3   602  DHE602      0.0000
     23  CAB       32.8060   19.7180    6.9040 C.3   602  DHE602      0.0000
     24  CBB       33.1620   21.0180    7.4740 C.2   602  DHE602      0.0000
     25  O1B       34.3330   21.4180    7.3190 O.co2 602  DHE602      0.0000
     26  O2B       32.3000   21.6760    8.0930 O.co2 602  DHE602      0.0000
     27  C4B       30.4860   20.4310    6.0480 C.2   602  DHE602      0.0000
     28  NC        29.0270   22.7270    4.6700 N.2   602  DHE602      0.0000
     29  C1C       30.2280   22.1860    4.3340 C.2   602  DHE602      0.0000
     30  C2C       30.8620   23.0090    3.2790 C.2   602  DHE602      0.0000
     31  OMC       31.9050   22.7840    2.7250 O.2   602  DHE602      0.0000
     32  C3C       29.9440   24.1970    3.0310 C.2   602  DHE602      0.0000
     33  CGC       29.4360   24.0670    1.5090 C.3   602  DHE602      0.0000
     34  CAC       30.6240   25.5020    3.1890 C.3   602  DHE602      0.0000
     35  CBC       31.1160   25.8120    4.5320 C.2   602  DHE602      0.0000
     36  O1C       30.8030   26.9240    5.0350 O.co2 602  DHE602      0.0000
     37  O2C       31.8340   24.9680    5.1270 O.co2 602  DHE602      0.0000
     38  C4C       28.8060   23.8760    3.9940 C.2   602  DHE602      0.0000
     39  ND        26.2350   23.0620    5.3570 N.ar  602  DHE602      0.0000
     40  C1D       26.4270   24.1660    4.5610 C.ar  602  DHE602      0.0000
     41  C2D       25.1450   24.7090    4.2560 C.ar  602  DHE602      0.0000
     42  C3D       24.2130   24.0090    5.0010 C.ar  602  DHE602      0.0000
     43  C4D       24.9260   23.0350    5.7800 C.ar  602  DHE602      0.0000
     44  CMD       24.9200   25.8330    3.2940 C.3   602  DHE602      0.0000
     45  CAD       22.7640   24.2090    5.0160 C.2   602  DHE602      0.0000
     46  CBD       21.9750   24.2970    4.0050 C.2   602  DHE602      0.0000
     47  CGD       20.5190   24.1260    4.0400 C.2   602  DHE602      0.0000
     48  O1D       19.8370   24.6100    3.1150 O.co2 602  DHE602      0.0000
     49  O2D       20.0100   23.4970    5.0070 O.co2 602  DHE602      0.0000
@<TRIPOS>BOND
     1    33    32    1
     2    31    30    1
     3    32    34    1
     4    32    30    2
     5    32    38    1
     6    48    47   ar
     7    34    35    1
     8    30    29    1
     9    44    41    1
    10    38     5    1
    11    38    28    2
    12    46    47    1
    13    46    45    2
    14    47    49   ar
    15     5    40    2
    16    41    40   ar
    17    41    42   ar
    18    29    28    1
    19    29     4    2
    20    35    36   ar
    21    35    37   ar
    22    40    39   ar
    23    28     1    1
    24     4    27    1
    25    42    45    1
    26    42    43   ar
    27    39    43   ar
    28    39     1    1
    29    43     2    2
    30     1    17    1
    31     1     6    1
    32    27    17    1
    33    27    21    2
    34    22    21    1
    35    17    18    1
    36    21    23    1
    37    21    19    1
    38     2     7    1
    39    23    24    1
    40    25    24   ar
    41     6     7    2
    42     6    10    1
    43    24    26   ar
    44     7     8    1
    45    18    19    2
    46    18     3    1
    47    19    20    1
    48    10     3    2
    49    10     9    1
    50     8    12    1
    51     8     9    2
    52    12    13    2
    53     9    11    1
    54    15    14   ar
    55    13    14    1
    56    14    16   ar
