@<TRIPOS>MOLECULE
1bl9_HEC_A_1.pdb
 43 50 0 0 0
SMALL
GASTEIGER

@<TRIPOS>ATOM
      1 FE         43.4060    9.6830    7.0650 Fe    601  HEC601      0.0000
      2  CHA       43.1870    6.3110    7.1250 C.2   601  HEC601      0.0000
      3  CHB       46.4190    9.5380    8.5200 C.2   601  HEC601      0.0000
      4  CHC       43.7370   13.0710    6.7860 C.2   601  HEC601      0.0000
      5  CHD       40.3090    9.8870    5.8350 C.2   601  HEC601      0.0000
      6  NA        44.5750    8.2510    7.6110 N.2   601  HEC601      0.0000
      7  C1A       44.3560    6.8920    7.5510 C.2   601  HEC601      0.0000
      8  C2A       45.4730    6.1650    8.1200 C.2   601  HEC601      0.0000
      9  C3A       46.3690    7.0760    8.5320 C.2   601  HEC601      0.0000
     10  C4A       45.8070    8.3590    8.2200 C.2   601  HEC601      0.0000
     11  CMA       47.7210    6.7900    9.1660 C.3   601  HEC601      0.0000
     12  CAA       45.6520    4.6720    8.1940 C.3   601  HEC601      0.0000
     13  CBA       45.0670    4.0660    9.4470 C.3   601  HEC601      0.0000
     14  CGA       45.1910    2.5590    9.4690 C.2   601  HEC601      0.0000
     15  O1A       44.4810    1.8890    8.6930 O.co2 601  HEC601      0.0000
     16  O2A       46.0050    2.0510   10.2660 O.co2 601  HEC601      0.0000
     17  NB        44.7740   11.0150    7.5510 N.ar  601  HEC601      0.0000
     18  C1B       45.9420   10.7910    8.2200 C.ar  601  HEC601      0.0000
     19  C2B       46.6730   11.9920    8.4630 C.ar  601  HEC601      0.0000
     20  C3B       45.9480   12.9590    7.8490 C.ar  601  HEC601      0.0000
     21  C4B       44.7790   12.3630    7.3330 C.ar  601  HEC601      0.0000
     22  CMB       47.9420   12.1240    9.3450 C.3   601  HEC601      0.0000
     23  CAB       46.1980   14.4600    7.8350 C.3   601  HEC601      0.0000
     24  CBB       47.5940   14.9810    7.5360 C.3   601  HEC601      0.0000
     25  NC        42.2770   11.1600    6.4320 N.2   601  HEC601      0.0000
     26  C1C       42.5600   12.5130    6.3630 C.2   601  HEC601      0.0000
     27  C2C       41.4710   13.2610    5.7730 C.2   601  HEC601      0.0000
     28  C3C       40.4980   12.3590    5.5330 C.2   601  HEC601      0.0000
     29  C4C       41.0130   11.0670    5.9430 C.2   601  HEC601      0.0000
     30  CMC       41.4540   14.7440    5.4120 C.3   601  HEC601      0.0000
     31  CAC       39.0640   12.6380    5.0890 C.3   601  HEC601      0.0000
     32  CBC       38.7290   13.6520    4.0060 C.3   601  HEC601      0.0000
     33  ND        42.0290    8.3760    6.6190 N.ar  601  HEC601      0.0000
     34  C1D       40.7670    8.6340    6.1470 C.ar  601  HEC601      0.0000
     35  C2D       40.0290    7.4150    5.9150 C.ar  601  HEC601      0.0000
     36  C3D       40.8360    6.3950    6.2320 C.ar  601  HEC601      0.0000
     37  C4D       42.0820    6.9970    6.6990 C.ar  601  HEC601      0.0000
     38  CMD       38.6290    7.2490    5.3450 C.3   601  HEC601      0.0000
     39  CAD       40.5340    4.9350    5.9100 C.3   601  HEC601      0.0000
     40  CBD       41.3230    4.5680    4.6620 C.3   601  HEC601      0.0000
     41  CGD       41.2110    3.0990    4.2840 C.2   601  HEC601      0.0000
     42  O1D       41.1360    2.7920    3.0750 O.co2 601  HEC601      0.0000
     43  O2D       41.2150    2.2420    5.1900 O.co2 601  HEC601      0.0000
@<TRIPOS>BOND
     1    42    41   ar
     2    32    31    1
     3    41    40    1
     4    41    43   ar
     5    40    39    1
     6    31    28    1
     7    38    35    1
     8    30    27    1
     9    28    27    2
    10    28    29    1
    11    27    26    1
    12     5    29    1
    13     5    34    2
    14    39    36    1
    15    35    34   ar
    16    35    36   ar
    17    29    25    2
    18    34    33   ar
    19    36    37   ar
    20    26    25    1
    21    26     4    2
    22    25     1    1
    23    33    37   ar
    24    33     1    1
    25    37     2    2
    26     4    21    1
    27     1    17    1
    28     1     6    1
    29     2     7    1
    30    21    17   ar
    31    21    20   ar
    32    24    23    1
    33    17    18   ar
    34     7     6    2
    35     7     8    1
    36     6    10    1
    37    23    20    1
    38    20    19   ar
    39     8    12    1
    40     8     9    2
    41    12    13    1
    42    18    19   ar
    43    18     3    1
    44    10     3    2
    45    10     9    1
    46    19    22    1
    47     9    11    1
    48    15    14   ar
    49    13    14    1
    50    14    16   ar
