@<TRIPOS>MOLECULE
1blc_TEM_A_1.pdb
 11 10 0 0 0
SMALL
GASTEIGER

@<TRIPOS>ATOM
      1  O1         1.7810   -9.6680   -8.1830 O.2   626  TEM626     -0.2941
      2  C2         2.2610   -8.5360   -8.1610 C.2   626  TEM626      0.1750
      3  C3         2.1280   -7.6360   -9.3960 C.3   626  TEM626      0.1763
      4  N4         1.4500   -8.3970  -10.4550 N.pl3 626  TEM626     -0.2283
      5  C5         2.2770   -9.1610  -11.3370 C.2   626  TEM626      0.0840
      6  C6         3.5230   -9.6390  -11.1990 C.2   626  TEM626      0.0628
      7  C7         4.0780  -10.4610  -12.3110 C.2   626  TEM626      0.2356
      8  O8         5.2180  -10.8990  -12.2720 O.2   626  TEM626     -0.2831
      9  C9         2.9020   -7.9320   -6.9280 C.3   626  TEM626      0.1019
     10  C10        3.7840   -8.9580   -6.2320 C.3   626  TEM626      0.1899
     11  O11        3.0810  -10.1220   -5.7930 O.3   626  TEM626     -0.2199
@<TRIPOS>BOND
     1     7     8    2
     2     7     6    1
     3     5     6    2
     4     5     4    1
     5     4     3    1
     6     3     2    1
     7     1     2    2
     8     2     9    1
     9     9    10    1
    10    10    11    1
