@<TRIPOS>MOLECULE
1blc_CEM_A_1.pdb
 14 13 0 0 0
SMALL
GASTEIGER

@<TRIPOS>ATOM
      1  O1         4.3720   -4.5680  -13.9530 O.2   301  CEM301     -0.2936
      2  C2         4.0900   -5.6910  -13.5480 C.2   301  CEM301      0.1840
      3  C3         4.8150   -6.8580  -14.2730 C.3   301  CEM301      0.2522
      4  N4         4.4160   -8.1430  -13.7770 N.pl3 301  CEM301     -0.2196
      5  C5         5.4440   -8.4890  -12.7730 C.2   301  CEM301      0.0845
      6  C6         5.6370   -9.6640  -12.2430 C.2   301  CEM301      0.0628
      7  C7         4.8260  -10.8630  -12.4600 C.2   301  CEM301      0.2356
      8  O8         5.2010  -11.9200  -11.9790 O.2   301  CEM301     -0.2831
      9  C9         2.9960   -5.9460  -12.5560 C.3   301  CEM301      0.1024
     10  C10        3.4500   -5.8500  -11.1140 C.3   301  CEM301      0.1899
     11  O11        4.8110   -6.2290  -10.9280 O.3   301  CEM301     -0.2199
     12  C12        4.8300   -6.5570  -15.7670 C.2   301  CEM301      0.3913
     13  O13        5.0490   -5.3170  -15.9510 O.co2 301  CEM301     -0.2433
     14  O14        4.5630   -7.3480  -16.6610 O.co2 301  CEM301     -0.2433
@<TRIPOS>BOND
     1    14    12   ar
     2    13    12   ar
     3    12     3    1
     4     3     4    1
     5     3     2    1
     6     1     2    2
     7     4     5    1
     8     2     9    1
     9     5     6    2
    10     9    10    1
    11     7     6    1
    12     7     8    2
    13    10    11    1
