@<TRIPOS>MOLECULE
1blf_MAN_A_1.pdb
 11 11 0 0 0
SMALL
GASTEIGER

@<TRIPOS>ATOM
      1  C1        86.7270   41.6940    7.4090 C.3   698  MAN698      0.1777
      2  C2        87.3490   42.1250    8.7430 C.3   698  MAN698      0.2141
      3  C3        88.8370   42.3840    8.5490 C.3   698  MAN698      0.2173
      4  C4        89.4830   41.1030    8.0280 C.3   698  MAN698      0.2142
      5  C5        88.7910   40.6900    6.7220 C.3   698  MAN698      0.1810
      6  C6        89.3760   39.4210    6.1190 C.3   698  MAN698      0.2141
      7  O2        87.1780   41.1500    9.7560 O.3   698  MAN698     -0.2176
      8  O3        89.4250   42.7640    9.7870 O.3   698  MAN698     -0.2175
      9  O4        90.8700   41.3100    7.8000 O.3   698  MAN698     -0.2176
     10  O5        87.3750   40.5220    6.9360 O.3   698  MAN698     -0.3481
     11  O6        88.5460   38.9740    5.0570 O.3   698  MAN698     -0.2176
@<TRIPOS>BOND
     1    11     6    1
     2     6     5    1
     3     5    10    1
     4     5     4    1
     5    10     1    1
     6     1     2    1
     7     9     4    1
     8     4     3    1
     9     3     2    1
    10     3     8    1
    11     2     7    1
