@<TRIPOS>MOLECULE
1blh_FOS_A_1.pdb
 15 15 0 0 0
SMALL
GASTEIGER

@<TRIPOS>ATOM
      1  C1         5.4010   -7.9360   -6.9160 C.ar  291  FOS291      0.0213
      2  C2         4.7190   -7.0470   -6.0320 C.ar  291  FOS291     -0.0007
      3  C3         5.5070   -6.0750   -5.3480 C.ar  291  FOS291     -0.0002
      4  C4         6.8910   -6.0610   -5.5510 C.ar  291  FOS291     -0.0000
      5  C5         7.5430   -6.9310   -6.4010 C.ar  291  FOS291     -0.0002
      6  C6         6.8020   -7.8990   -7.0940 C.ar  291  FOS291     -0.0007
      7  C          4.6010   -9.0010   -7.6250 C.3   291  FOS291      0.2368
      8  O          3.2890   -8.5380   -7.9350 O.3   291  FOS291     -0.4285
      9  C'         2.6720   -9.0770   -9.0160 C.2   291  FOS291      0.4219
     10  O'         1.5220   -8.8090   -9.2100 O.2   291  FOS291     -0.2245
     11  N          3.3160   -9.8630   -9.8910 N.am  291  FOS291     -0.1588
     12  CM         2.5500  -10.3520  -11.0000 C.3   291  FOS291      0.2014
     13  P          3.6900  -10.2160  -12.4020 P.3   291  FOS291      0.2775
     14  O1P        4.0340   -8.8660  -12.7990 O.3   291  FOS291     -0.1726
     15  O2P        5.0050  -10.7330  -12.2710 O.3   291  FOS291     -0.1726
@<TRIPOS>BOND
     1    14    13    1
     2    13    15    1
     3    13    12    1
     4    12    11    1
     5    11     9   am
     6    10     9    2
     7     9     8    1
     8     8     7    1
     9     7     1    1
    10     6     1   ar
    11     6     5   ar
    12     1     2   ar
    13     5     4   ar
    14     2     3   ar
    15     4     3   ar
