@<TRIPOS>MOLECULE
1bll_III_I_1.pdb
 33 32 0 0 0
SMALL
GASTEIGER

@<TRIPOS>ATOM
      1  N         62.1320   54.0570   16.4170 N.3     2  L2O2       -0.1297
      2  C1        62.6180   53.5560   17.6980 C.3     2  L2O2        0.1311
      3  C2        62.2640   54.6320   18.6260 C.3     2  L2O2        0.0222
      4  C3        61.3910   54.2440   19.7740 C.3     2  L2O2        0.0015
      5  C4        61.5790   52.7370   19.9940 C.3     2  L2O2        0.0000
      6  C5        59.9240   54.5180   19.4200 C.3     2  L2O2        0.0000
      7  C6        64.1250   53.2960   17.6250 C.3     2  L2O2        0.2463
      8  O1        64.5080   52.9030   16.3340 O.3     2  L2O2       -0.2116
      9  C         64.5100   52.2260   18.6730 C.2     2  L2O2        0.2737
     10  O         63.8610   51.2860   19.0380 O.2     2  L2O2       -0.2705
     11  N         65.7340   52.4810   19.1880 N.am    3  VAL3       -0.1956
     12  CA        66.3550   51.6520   20.1540 C.3     3  VAL3        0.1727
     13  C         65.8180   51.8960   21.5740 C.2     3  VAL3        0.2616
     14  O         65.2280   52.9370   21.8650 O.2     3  VAL3       -0.2715
     15  CB        67.8960   51.8280   20.1910 C.3     3  VAL3        0.0290
     16  CG1       68.2280   53.1560   20.8780 C.3     3  VAL3        0.0023
     17  CG2       68.5910   50.6890   20.9490 C.3     3  VAL3        0.0023
     18  N         66.0370   50.9020   22.4480 N.am    4  VAL4       -0.1963
     19  CA        65.3710   50.8320   23.7500 C.3     4  VAL4        0.1727
     20  C         66.2340   51.3330   24.8690 C.2     4  VAL4        0.2617
     21  O         67.4450   51.4050   24.6280 O.2     4  VAL4       -0.2715
     22  CB        65.2880   49.3460   24.1010 C.3     4  VAL4        0.0290
     23  CG1       64.7270   48.5340   22.9310 C.3     4  VAL4        0.0023
     24  CG2       66.7590   48.9640   24.3100 C.3     4  VAL4        0.0023
     25  N         65.6980   51.6810   26.0200 N.am    5  ASP5       -0.1936
     26  CA        66.4480   52.1680   27.1650 C.3     5  ASP5        0.2090
     27  C         65.5740   53.1410   27.9720 C.2     5  ASP5        0.3848
     28  O         64.8490   53.9730   27.4220 O.co2   5  ASP5       -0.2437
     29  CB        67.7750   52.7730   26.6720 C.3     5  ASP5        0.1472
     30  CG        68.3880   53.8600   27.5570 C.2     5  ASP5        0.3672
     31  OD1       68.0710   53.8610   28.7690 O.co2   5  ASP5       -0.2456
     32  OD2       69.1330   54.6930   26.9960 O.co2   5  ASP5       -0.2456
     33  OXT       65.5430   53.1200   29.2040 O.co2   5  ASP5       -0.2437
@<TRIPOS>BOND
     1     8     7    1
     2     1     2    1
     3     7     2    1
     4     7     9    1
     5     2     3    1
     6     3     4    1
     7     9    10    2
     8     9    11   am
     9    11    12    1
    10     6     4    1
    11     4     5    1
    12    12    15    1
    13    12    13    1
    14    15    16    1
    15    15    17    1
    16    13    14    2
    17    13    18   am
    18    18    19    1
    19    23    22    1
    20    19    22    1
    21    19    20    1
    22    22    24    1
    23    21    20    2
    24    20    25   am
    25    25    26    1
    26    29    26    1
    27    29    30    1
    28    32    30   ar
    29    26    27    1
    30    28    27   ar
    31    30    31   ar
    32    27    33   ar
