@<TRIPOS>MOLECULE
1bls_IPP_A_1.pdb
 15 15 0 0 0
SMALL
GASTEIGER

@<TRIPOS>ATOM
      1  P         22.4530   55.6230   24.2260 P.3   362  IPP362      0.2774
      2  O1P       23.8480   56.2670   24.4800 O.3   362  IPP362     -0.1726
      3  O2P       22.4010   54.4780   25.2740 O.3   362  IPP362     -0.1726
      4  C         21.1770   56.4470   24.5370 C.3   362  IPP362      0.1979
      5  N         19.8590   55.9980   24.4500 N.am  362  IPP362     -0.1952
      6  C1        18.9000   56.2120   23.6110 C.2   362  IPP362      0.2463
      7  O1        18.9150   57.1280   22.7680 O.2   362  IPP362     -0.2730
      8  C2        17.5730   55.9230   23.4070 C.3   362  IPP362      0.1131
      9  C1'       16.4260   56.4030   24.2760 C.ar  362  IPP362     -0.0130
     10  C2'       16.4040   57.6820   24.8240 C.ar  362  IPP362     -0.0033
     11  C3'       15.3290   58.1240   25.5950 C.ar  362  IPP362      0.0055
     12  C4'       14.2730   57.2400   25.8350 C.ar  362  IPP362      0.0300
     13  I         12.6950   57.9960   26.9890 I     362  IPP362     -0.0425
     14  C5'       14.2730   55.9580   25.3080 C.ar  362  IPP362      0.0055
     15  C6'       15.3640   55.5290   24.5340 C.ar  362  IPP362     -0.0033
@<TRIPOS>BOND
     1     7     6    2
     2     8     6    1
     3     8     9    1
     4     6     5   am
     5     1     2    1
     6     1     4    1
     7     1     3    1
     8     9    15   ar
     9     9    10   ar
    10     5     4    1
    11    15    14   ar
    12    10    11   ar
    13    14    12   ar
    14    11    12   ar
    15    12    13    1
