@<TRIPOS>MOLECULE
1blz_ACV_A_1.pdb
 24 23 0 0 0
SMALL
GASTEIGER

@<TRIPOS>ATOM
      1  C1        17.4880   37.3080    5.7690 C.2   333  ACV333      0.3819
      2  C2        16.0440   37.5670    6.2430 C.3   333  ACV333      0.1943
      3  C3        15.4570   38.7730    5.4930 C.3   333  ACV333      0.0311
      4  C4        13.9640   39.0170    5.8660 C.3   333  ACV333      0.0117
      5  C7        13.5860   40.3890    5.2330 C.3   333  ACV333      0.0869
      6  C10       12.1530   40.6740    5.5820 C.2   333  ACV333      0.2418
      7  N11       11.1700   40.3400    4.7760 N.am  333  ACV333     -0.1968
      8  C12        9.7210   40.5590    4.9150 C.3   333  ACV333      0.1843
      9  C13        9.0280   39.2170    4.7650 C.2   333  ACV333      0.2626
     10  N14       16.0380   37.7060    7.7840 N.3   333  ACV333     -0.1208
     11  O15       11.8180   41.2600    6.6360 O.2   333  ACV333     -0.2733
     12  C16        9.3620   41.6470    3.8800 C.3   333  ACV333      0.0997
     13  S17        9.7680   41.1380    2.1460 S.3   333  ACV333     -0.0797
     14  O18        9.5620   38.1220    4.7700 O.2   333  ACV333     -0.2714
     15  O19       18.4220   37.5320    6.6140 O.co2 333  ACV333     -0.2441
     16  O20       17.6920   37.0650    4.5500 O.co2 333  ACV333     -0.2441
     17  N29        7.7100   39.2200    4.4280 N.am  333  ACV333     -0.1941
     18  C30        6.8560   38.0440    4.3080 C.3   333  ACV333      0.1977
     19  C31        5.6580   38.0550    5.2470 C.2   333  ACV333      0.3842
     20  C32        6.5030   37.5500    2.8710 C.3   333  ACV333      0.0311
     21  C33        7.6540   37.8070    1.8300 C.3   333  ACV333      0.0023
     22  C37        5.3340   38.4660    2.4140 C.3   333  ACV333      0.0023
     23  O42        5.4970   39.0060    6.0620 O.co2 333  ACV333     -0.2437
     24  O43        4.7880   37.1210    5.1700 O.co2 333  ACV333     -0.2437
@<TRIPOS>BOND
     1    21    20    1
     2    13    12    1
     3    22    20    1
     4    20    18    1
     5    12     8    1
     6    18    17    1
     7    18    19    1
     8    17     9   am
     9    16     1   ar
    10     9    14    2
    11     9     8    1
    12     7     8    1
    13     7     6   am
    14    24    19   ar
    15     5     6    1
    16     5     4    1
    17    19    23   ar
    18     3     4    1
    19     3     2    1
    20     6    11    2
    21     1     2    1
    22     1    15   ar
    23     2    10    1
