@<TRIPOS>MOLECULE
1bm1_RET_A_1.pdb
 20 20 0 0 0
SMALL
GASTEIGER

@<TRIPOS>ATOM
      1  C1        39.5580   17.2120   22.2190 C.3   250  RET250      0.0183
      2  C2        40.4190   16.7040   21.0500 C.3   250  RET250      0.0044
      3  C3        40.2870   15.2840   20.7940 C.3   250  RET250      0.0047
      4  C4        40.7180   14.4760   22.0400 C.3   250  RET250      0.0217
      5  C5        40.2150   15.0660   23.3410 C.2   250  RET250     -0.0479
      6  C6        39.6810   16.2900   23.4460 C.2   250  RET250     -0.0307
      7  C7        39.1580   16.8590   24.6840 C.2   250  RET250     -0.0052
      8  C8        38.6130   18.0780   24.8300 C.2   250  RET250     -0.0046
      9  C9        38.0810   18.6920   26.0320 C.2   250  RET250     -0.0219
     10  C10       37.5650   19.9510   25.9760 C.2   250  RET250     -0.0043
     11  C11       37.0080   20.7160   27.0490 C.2   250  RET250     -0.0007
     12  C12       36.5020   21.9620   26.9340 C.2   250  RET250     -0.0046
     13  C13       35.9140   22.8270   27.8970 C.2   250  RET250     -0.0261
     14  C14       35.5050   24.0500   27.4450 C.2   250  RET250     -0.0300
     15  C15       34.8960   25.1120   28.1110 C.3   250  RET250      0.0304
     16  C16       39.9950   18.6390   22.5640 C.3   250  RET250      0.0043
     17  C17       38.1150   17.2180   21.6750 C.3   250  RET250      0.0043
     18  C18       40.3740   14.0720   24.4670 C.3   250  RET250      0.0260
     19  C19       38.1210   17.8940   27.3010 C.3   250  RET250      0.0310
     20  C20       35.7780   22.3780   29.3260 C.3   250  RET250      0.0307
@<TRIPOS>BOND
     1     3     2    1
     2     3     4    1
     3     2     1    1
     4    17     1    1
     5     4     5    1
     6     1    16    1
     7     1     6    1
     8     5     6    2
     9     5    18    1
    10     6     7    1
    11     7     8    2
    12     8     9    1
    13    10     9    2
    14    10    11    1
    15     9    19    1
    16    12    11    2
    17    12    13    1
    18    14    13    2
    19    14    15    1
    20    13    20    1
