@<TRIPOS>MOLECULE
1bm6_3MP_A_1.pdb
 13 13 0 0 0
SMALL
GASTEIGER

@<TRIPOS>ATOM
      1  CB        -0.2070    0.3900    1.1270 C.3     2  3MP2       -0.0215
      2  CG         0.1120    0.7340    2.5600 C.2     2  3MP2       -0.0204
      3  CD1       -0.7440    1.5370    3.2970 C.2     2  3MP2       -0.0682
      4  CD2        1.2730    0.2410    3.1680 C.2     2  3MP2        0.0803
      5  CE1       -0.4090    1.8190    4.6120 C.3     2  3MP2        0.0363
      6  CZ         0.7730    1.2850    5.1410 C.2     2  3MP2        0.0629
      7  NE2        1.6060    0.5080    4.4380 N.2     2  3MP2       -0.4231
      8  HB1       -0.0650   -0.6670    0.9790 H       2  3MP2        0.0317
      9  HB2        0.4440    0.9360    0.4700 H       2  3MP2        0.0317
     10  HD1       -1.6470    1.9340    2.8580 H       2  3MP2        0.0582
     11  HD2        1.9320   -0.3850    2.5840 H       2  3MP2        0.0972
     12  HE1       -1.0500    2.4390    5.2190 H       2  3MP2        0.0421
     13  HZ         1.0250    1.5120    6.1670 H       2  3MP2        0.0928
@<TRIPOS>BOND
     1     9     1    1
     2     8     1    1
     3     1     2    1
     4     2     4    1
     5     2     3    2
     6    11     4    1
     7    10     3    1
     8     4     7    2
     9     3     5    1
    10     7     6    2
    11     5     6    1
    12     5    12    1
    13     6    13    1
