@<TRIPOS>MOLECULE
1bm6_MSB_A_1.pdb
 18 18 0 0 0
SMALL
GASTEIGER

@<TRIPOS>ATOM
      1  S         -1.8470    2.1640    0.0700 S.3     3  MSB3        0.0033
      2  OB1       -1.4340    3.1920    0.9660 O.3     3  MSB3       -0.0735
      3  OB2       -3.2030    2.1710   -0.3540 O.3     3  MSB3       -0.0735
      4  CG        -0.8490    2.1840   -1.3690 C.ar    3  MSB3        0.0870
      5  CD1       -1.4510    1.9840   -2.6060 C.ar    3  MSB3       -0.0336
      6  CD2        0.5190    2.4090   -1.2690 C.ar    3  MSB3       -0.0336
      7  CE1       -0.6800    2.0170   -3.7660 C.ar    3  MSB3       -0.0182
      8  CE2        1.3040    2.4340   -2.4280 C.ar    3  MSB3       -0.0182
      9  CZ         0.6990    2.2420   -3.6800 C.ar    3  MSB3        0.1202
     10  OH         1.4550    2.2850   -4.8300 O.3     3  MSB3       -0.4951
     11  CH         0.8670    2.9780   -5.9220 C.3     3  MSB3        0.0788
     12  HD1       -2.5160    1.8000   -2.6600 H       3  MSB3        0.0638
     13  HD2        0.9690    2.5440   -0.2950 H       3  MSB3        0.0638
     14  HE1       -1.1430    1.8620   -4.7300 H       3  MSB3        0.0655
     15  HE2        2.3670    2.6100   -2.3590 H       3  MSB3        0.0655
     16  HH1        1.6390    3.2970   -6.6050 H       3  MSB3        0.0660
     17  HH2        0.1790    2.3210   -6.4360 H       3  MSB3        0.0660
     18  HH3        0.3380    3.8430   -5.5570 H       3  MSB3        0.0660
@<TRIPOS>BOND
     1    16    11    1
     2    17    11    1
     3    11    18    1
     4    11    10    1
     5    10     9    1
     6    14     7    1
     7     7     9   ar
     8     7     5   ar
     9     9     8   ar
    10    12     5    1
    11     5     4   ar
    12     8    15    1
    13     8     6   ar
    14     4     6   ar
    15     4     1    1
    16     6    13    1
    17     3     1    1
    18     1     2    1
