@<TRIPOS>MOLECULE
1bm6_HAV_A_1.pdb
 19 18 0 0 0
SMALL
GASTEIGER

@<TRIPOS>ATOM
      1  NA        -1.6310    0.7510    0.8530 N.3     1  HAV1       -0.1297
      2  CA        -2.4850   -0.3800    0.4250 C.3     1  HAV1        0.1239
      3  CB        -2.6800   -1.2620    1.6390 C.3     1  HAV1       -0.0197
      4  CG1       -3.1730   -2.6440    1.2100 C.3     1  HAV1       -0.0607
      5  CG2       -3.7090   -0.6140    2.5650 C.3     1  HAV1       -0.0607
      6  C         -1.7960   -1.1870   -0.6890 C.2     1  HAV1        0.2558
      7  O         -0.6210   -1.0400   -0.9570 O.2     1  HAV1       -0.2719
      8  O1        -1.9810   -2.8210   -2.3560 O.3     1  HAV1       -0.2951
      9  N         -2.5400   -2.0350   -1.3490 N.am    1  HAV1       -0.1961
     10  HA        -3.4400   -0.0160    0.0820 H       1  HAV1        0.0592
     11  HB        -1.7290   -1.3460    2.1500 H       1  HAV1        0.0316
     12 HG11       -2.4350   -3.1060    0.5710 H       1  HAV1        0.0233
     13 HG12       -3.3320   -3.2580    2.0820 H       1  HAV1        0.0233
     14 HG13       -4.1010   -2.5390    0.6690 H       1  HAV1        0.0233
     15 HG21       -4.2300    0.1680    2.0310 H       1  HAV1        0.0233
     16 HG22       -4.4170   -1.3590    2.8940 H       1  HAV1        0.0233
     17 HG23       -3.2060   -0.1910    3.4230 H       1  HAV1        0.0233
     18  HO1       -2.6410   -3.1690   -2.9600 H       1  HAV1        0.2414
     19  HN        -3.4930   -2.1260   -1.1280 H       1  HAV1        0.1822
@<TRIPOS>BOND
     1    18     8    1
     2     8     9    1
     3     9    19    1
     4     9     6   am
     5     7     6    2
     6     6     2    1
     7    10     2    1
     8     2     1    1
     9     2     3    1
    10    12     4    1
    11    14     4    1
    12     4     3    1
    13     4    13    1
    14     3    11    1
    15     3     5    1
    16    15     5    1
    17     5    16    1
    18     5    17    1
