@<TRIPOS>MOLECULE
1bm7_FLF_A_1.pdb
 20 21 0 0 0
SMALL
GASTEIGER

@<TRIPOS>ATOM
      1  C1        20.6990   41.8890    3.6790 C.ar  501  FLF501      0.0950
      2  O1        22.1040   42.6810    1.8300 O.co2 501  FLF501     -0.2405
      3  C2        19.9260   41.0650    2.8420 C.ar  501  FLF501      0.0079
      4  C3        18.8260   40.3700    3.3310 C.ar  501  FLF501      0.0003
      5  O2        22.4850   43.4790    3.7410 O.co2 501  FLF501     -0.2405
      6  C4        18.4910   40.4910    4.6800 C.ar  501  FLF501      0.0013
      7  C5        19.2550   41.3040    5.5150 C.ar  501  FLF501      0.0167
      8  C6        20.3730   42.0190    5.0170 C.ar  501  FLF501      0.0768
      9  C7        21.8500   42.6210    3.1450 C.2   501  FLF501      0.3890
     10  N         21.1820   42.8760    5.8280 N.pl3 501  FLF501     -0.2123
     11  C1'       21.3260   43.0600    7.2240 C.ar  501  FLF501      0.0704
     12  C2'       21.1170   41.9060    7.9620 C.ar  501  FLF501      0.0204
     13  C3'       21.2220   41.9380    9.3210 C.ar  501  FLF501      0.0727
     14  C4'       21.5400   43.1240   10.0140 C.ar  501  FLF501      0.0039
     15  C5'       21.7530   44.2990    9.2750 C.ar  501  FLF501      0.0013
     16  C6'       21.6480   44.2720    7.8830 C.ar  501  FLF501      0.0165
     17  C7'       20.9890   40.6720   10.0870 C.3   501  FLF501      0.4186
     18  F1        21.2360   39.5570    9.3790 F     501  FLF501     -0.1659
     19  F2        21.7360   40.5430   11.1880 F     501  FLF501     -0.1659
     20  F3        19.7230   40.5290   10.5020 F     501  FLF501     -0.1659
@<TRIPOS>BOND
     1     2     9   ar
     2     3     4   ar
     3     3     1   ar
     4     9     1    1
     5     9     5   ar
     6     4     6   ar
     7     1     8   ar
     8     6     7   ar
     9     8     7   ar
    10     8    10    1
    11    10    11    1
    12    11    16   ar
    13    11    12   ar
    14    16    15   ar
    15    12    13   ar
    16    15    14   ar
    17    13    14   ar
    18    13    17    1
    19    18    17    1
    20    17    20    1
    21    17    19    1
