@<TRIPOS>MOLECULE
1bma_0QH_A_1.pdb
 37 38 0 0 0
SMALL
GASTEIGER

@<TRIPOS>ATOM
      1  C1        41.1490   23.3540   37.6440 C.2   256  0QH256      0.3371
      2  C2        41.3470   24.6160   38.5620 C.3   256  0QH256      0.4711
      3  O         40.7380   23.4660   36.4830 O.2   256  0QH256     -0.2642
      4  F1        41.8710   24.3920   39.7540 F     256  0QH256     -0.1620
      5  F2        42.1300   25.5370   38.0580 F     256  0QH256     -0.1620
      6  F3        40.2100   25.2310   38.7870 F     256  0QH256     -0.1620
      7  N         41.4280   22.1360   38.1490 N.am  256  0QH256     -0.1908
      8  CA        40.8000   20.9190   37.7020 C.3   256  0QH256      0.1713
      9  C         39.3070   21.0480   37.4350 C.2   256  0QH256      0.2459
     10  O1        38.5140   21.5650   38.2110 O.2   256  0QH256     -0.2732
     11  CB        41.1000   19.8690   38.7470 C.3   256  0QH256      0.0310
     12  CG        41.2800   18.4430   38.2880 C.3   256  0QH256      0.0022
     13  CD1       42.2250   18.3330   37.0870 C.3   256  0QH256      0.0001
     14  CD2       41.8110   17.6760   39.4790 C.3   256  0QH256      0.0001
     15  N1        37.7730   20.6860   35.4060 N.4   256  0QH256      0.4213
     16  N2        39.1210   20.5680   36.1900 N.am  256  0QH256     -0.2670
     17  C3        37.7120   22.1170   34.9400 C.3   256  0QH256     -0.0146
     18  C11       36.5220   22.5540   34.0800 C.ar  256  0QH256     -0.0393
     19  C21       35.7530   23.6410   34.4900 C.ar  256  0QH256     -0.0062
     20  C31       34.7240   24.0770   33.6770 C.ar  256  0QH256     -0.0004
     21  C4        34.4260   23.4610   32.4590 C.ar  256  0QH256     -0.0000
     22  C5        35.1790   22.3730   32.0390 C.ar  256  0QH256     -0.0004
     23  C6        36.2250   21.9230   32.8500 C.ar  256  0QH256     -0.0062
     24  C1M       38.1600   19.7130   34.3160 C.3   256  0QH256     -0.0606
     25  CA2       36.5310   20.2380   36.1060 C.3   256  0QH256      0.0470
     26  CA1       36.5440   18.8920   36.8120 C.2   256  0QH256      0.2284
     27  O2        36.6680   17.7920   36.2510 O.2   256  0QH256     -0.2751
     28  C12       36.1950   18.3510   39.0700 C.ar  256  0QH256      0.0733
     29  N11       36.4320   19.2410   38.1030 N.am  256  0QH256     -0.1809
     30  C22       36.8200   17.0940   39.1380 C.ar  256  0QH256      0.0163
     31  C32       36.5290   16.2290   40.2070 C.ar  256  0QH256     -0.0029
     32  C41       35.6130   16.6130   41.2160 C.ar  256  0QH256     -0.0224
     33  C51       35.0070   17.8720   41.1250 C.ar  256  0QH256     -0.0029
     34  C61       35.2900   18.7230   40.0590 C.ar  256  0QH256      0.0163
     35  C1'       35.2730   15.6970   42.4140 C.3   256  0QH256      0.0224
     36  C2'       35.7420   14.2420   42.2510 C.3   256  0QH256      0.0047
     37  C3'       33.7770   15.6910   42.5010 C.3   256  0QH256      0.0047
@<TRIPOS>BOND
     1    22    21   ar
     2    22    23   ar
     3    21    20   ar
     4    23    18   ar
     5    20    19   ar
     6    18    19   ar
     7    18    17    1
     8    24    15    1
     9    17    15    1
    10    15    25    1
    11    15    16    1
    12    25    26    1
    13    16     9   am
    14    27    26    2
    15     3     1    2
    16    26    29   am
    17    13    12    1
    18     9     8    1
    19     9    10    2
    20     1     7   am
    21     1     2    1
    22     8     7    1
    23     8    11    1
    24     5     2    1
    25    29    28    1
    26    12    11    1
    27    12    14    1
    28     2     6    1
    29     2     4    1
    30    28    30   ar
    31    28    34   ar
    32    30    31   ar
    33    34    33   ar
    34    31    32   ar
    35    33    32   ar
    36    32    35    1
    37    36    35    1
    38    35    37    1
