@<TRIPOS>MOLECULE
1bmd_NAD_A_1.pdb
 44 48 0 0 0
SMALL
GASTEIGER

@<TRIPOS>ATOM
      1  PA        27.6110   24.5330   24.4860 P.3   334  NAD334      0.2189
      2  O1A       27.6950   24.3330   23.0340 O.2   334  NAD334     -0.5170
      3  O2A       28.8830   24.5380   25.2840 O.3   334  NAD334     -0.4371
      4  O5B       26.6670   23.4330   25.1350 O.3   334  NAD334     -0.3112
      5  C5B       25.3990   23.0430   24.6670 C.3   334  NAD334      0.1813
      6  C4B       25.2410   21.5480   24.7820 C.3   334  NAD334      0.1821
      7  O4B       23.9290   21.2010   24.2620 O.3   334  NAD334     -0.3135
      8  C3B       26.2530   20.7630   23.9310 C.3   334  NAD334      0.2184
      9  O3B       26.8260   19.7560   24.7380 O.3   334  NAD334     -0.2174
     10  C2B       25.3930   20.0710   22.8500 C.3   334  NAD334      0.2570
     11  O2B       25.7900   18.7700   22.4830 O.3   334  NAD334     -0.2130
     12  C1B       24.0920   19.9660   23.6010 C.3   334  NAD334      0.3186
     13  N9A       22.9680   19.7120   22.7490 N.pl3 334  NAD334     -0.1439
     14  C8A       22.6220   20.1960   21.4830 C.3   334  NAD334      0.3377
     15  N7A       21.4500   19.7510   21.0560 N.2   334  NAD334     -0.2095
     16  C5A       20.9880   18.9050   22.1170 C.2   334  NAD334      0.2526
     17  C6A       19.8340   18.1070   22.3160 C.2   334  NAD334      0.4393
     18  N6A       18.9500   17.8850   21.3410 N.pl3 334  NAD334      0.2180
     19  N1A       19.7290   17.3880   23.4780 N.2   334  NAD334      0.0021
     20  C2A       20.7200   17.4220   24.3880 C.3   334  NAD334      0.5254
     21  N3A       21.8380   18.1450   24.3130 N.2   334  NAD334     -0.0055
     22  C4A       21.9060   18.8140   23.1550 C.2   334  NAD334      0.3518
     23  O3        26.7490   25.8010   24.7640 O.3   334  NAD334     -0.2703
     24  PN        26.3670   26.5870   26.1450 P.3   334  NAD334      0.2189
     25  O1N       27.2810   27.7320   26.4890 O.2   334  NAD334     -0.5170
     26  O2N       26.3710   25.5490   27.2010 O.3   334  NAD334     -0.4371
     27  O5D       24.8490   27.1360   26.0340 O.3   334  NAD334     -0.3112
     28  C5D       23.6590   26.3760   25.7140 C.3   334  NAD334      0.1813
     29  C4D       22.5270   27.3550   25.4400 C.3   334  NAD334      0.1799
     30  O4D       22.5550   28.3970   26.4590 O.3   334  NAD334     -0.3327
     31  C3D       22.6500   28.2070   24.1420 C.3   334  NAD334      0.2158
     32  O3D       21.4480   28.1720   23.3940 O.3   334  NAD334     -0.2175
     33  C2D       22.7410   29.6690   24.5890 C.3   334  NAD334      0.2309
     34  O2D       22.1370   30.6010   23.6840 O.3   334  NAD334     -0.2158
     35  C1D       21.9210   29.5080   25.8580 C.3   334  NAD334      0.2263
     36  N1N       21.9750   30.6400   26.7410 N.pl3 334  NAD334     -0.2787
     37  C2N       20.8080   31.2080   27.2050 C.3   334  NAD334      0.1244
     38  C3N       20.9070   32.0800   28.2840 C.2   334  NAD334      0.0544
     39  C7N       19.6700   32.6890   28.9190 C.2   334  NAD334      0.2818
     40  O7N       19.9440   33.4880   29.8460 O.2   334  NAD334     -0.2670
     41  N7N       18.4610   32.1250   28.6460 N.am  334  NAD334     -0.0839
     42  C4N       22.1660   32.4060   28.7810 C.2   334  NAD334      0.0033
     43  C5N       23.3300   31.8310   28.2590 C.2   334  NAD334      0.0157
     44  C6N       23.2050   30.9710   27.2040 C.2   334  NAD334      0.0633
@<TRIPOS>BOND
     1    15    14    1
     2    15    16    2
     3    18    17    1
     4    14    13    1
     5    16    17    1
     6    16    22    1
     7    17    19    2
     8    11    10    1
     9    13    22    1
    10    13    12    1
    11    10    12    1
    12    10     8    1
    13     2     1    2
    14    22    21    2
    15    32    31    1
    16    19    20    1
    17    12     7    1
    18    34    33    1
    19     8     9    1
    20     8     6    1
    21    31    33    1
    22    31    29    1
    23     7     6    1
    24    21    20    1
    25     1    23    1
    26     1     4    1
    27     1     3    1
    28    33    35    1
    29     5     6    1
    30     5     4    1
    31    23    24    1
    32    29    28    1
    33    29    30    1
    34    28    27    1
    35    35    30    1
    36    35    36    1
    37    27    24    1
    38    24    25    2
    39    24    26    1
    40    36    44    1
    41    36    37    1
    42    44    43    2
    43    37    38    1
    44    43    42    1
    45    38    42    2
    46    38    39    1
    47    41    39   am
    48    39    40    2
