@<TRIPOS>MOLECULE
1bmf_ANP_A_1.pdb
 31 33 0 0 0
SMALL
GASTEIGER

@<TRIPOS>ATOM
      1  PG       104.1330   63.9560   50.8590 P.3   600  ANP600      0.4884
      2  O1G      104.2940   64.4240   52.2470 O.3   600  ANP600     -0.1240
      3  O2G      105.1380   64.6530   49.9710 O.2   600  ANP600     -0.2331
      4  O3G      104.3790   62.5110   50.7430 O.3   600  ANP600     -0.1240
      5  PB       102.1490   65.7680   49.7520 P.3   600  ANP600      0.4669
      6  O1B      101.8180   66.6850   50.8670 O.3   600  ANP600     -0.1253
      7  O2B      103.1450   66.3410   48.8040 O.2   600  ANP600     -0.2351
      8  N3B      102.6650   64.3090   50.3070 N.3   600  ANP600     -0.0163
      9  PA       100.3560   64.6380   47.7060 P.3   600  ANP600      0.2220
     10  O1A      100.5530   65.2060   46.3720 O.2   600  ANP600     -0.5170
     11  O2A      101.1070   63.3420   47.7540 O.3   600  ANP600     -0.4370
     12  O3A      100.7690   65.5180   48.9790 O.3   600  ANP600     -0.2360
     13  O5'       98.8290   64.3490   48.0300 O.3   600  ANP600     -0.3111
     14  C5'       98.4930   63.5630   49.2390 C.3   600  ANP600      0.1813
     15  C4'       97.3110   62.6850   48.8310 C.3   600  ANP600      0.1821
     16  O4'       96.1520   63.5320   48.5540 O.3   600  ANP600     -0.3135
     17  C3'       97.5910   61.9210   47.5270 C.3   600  ANP600      0.2184
     18  O3'       97.1610   60.5820   47.5520 O.3   600  ANP600     -0.2174
     19  C2'       96.8690   62.7520   46.4850 C.3   600  ANP600      0.2570
     20  O2'       96.4540   62.1330   45.2960 O.3   600  ANP600     -0.2130
     21  C1'       95.6460   63.2630   47.2720 C.3   600  ANP600      0.3186
     22  N9        95.2230   64.5060   46.6460 N.pl3 600  ANP600     -0.1439
     23  C8        96.0230   65.5070   46.1670 C.3   600  ANP600      0.3377
     24  N7        95.3420   66.5110   45.6030 N.2   600  ANP600     -0.2095
     25  C5        94.0210   66.1030   45.7420 C.2   600  ANP600      0.2526
     26  C6        92.7990   66.7110   45.3700 C.2   600  ANP600      0.4393
     27  N6        92.7040   67.9090   44.8010 N.pl3 600  ANP600      0.2180
     28  N1        91.6440   66.0400   45.6750 N.2   600  ANP600      0.0021
     29  C2        91.7400   64.8130   46.2950 C.3   600  ANP600      0.5254
     30  N3        92.8160   64.1610   46.6610 N.2   600  ANP600     -0.0055
     31  C4        93.9340   64.8680   46.3720 C.2   600  ANP600      0.3518
@<TRIPOS>BOND
     1    27    26    1
     2    20    19    1
     3    26    28    2
     4    26    25    1
     5    24    25    2
     6    24    23    1
     7    28    29    1
     8    25    31    1
     9    23    22    1
    10    29    30    1
    11    31    22    1
    12    31    30    2
    13    10     9    2
    14    19    21    1
    15    19    17    1
    16    22    21    1
    17    21    16    1
    18    17    18    1
    19    17    15    1
    20     9    11    1
    21     9    13    1
    22     9    12    1
    23    13    14    1
    24    16    15    1
    25     7     5    2
    26    15    14    1
    27    12     5    1
    28     5     8    1
    29     5     6    1
    30     3     1    2
    31     8     1    1
    32     4     1    1
    33     1     2    1
