@<TRIPOS>MOLECULE
1bmf_ADP_D_1.pdb
 27 29 0 0 0
SMALL
GASTEIGER

@<TRIPOS>ATOM
      1  PB       104.6910   47.7460   69.6620 P.3   600  ADP600      0.5373
      2  O1B      103.9860   48.7300   68.7970 O.2   600  ADP600     -0.2221
      3  O2B      105.4980   46.7850   68.8530 O.3   600  ADP600     -0.1143
      4  O3B      105.5240   48.4070   70.7250 O.3   600  ADP600     -0.1143
      5  PA       102.9760   45.4870   70.6330 P.3   600  ADP600      0.2231
      6  O1A      102.6610   45.0380   69.2630 O.2   600  ADP600     -0.5169
      7  O2A      103.7610   44.5440   71.4530 O.3   600  ADP600     -0.4370
      8  O3A      103.6470   46.9550   70.5850 O.3   600  ADP600     -0.2261
      9  O5'      101.6080   45.8210   71.4440 O.3   600  ADP600     -0.3111
     10  C5'      101.8030   45.9780   72.8930 C.3   600  ADP600      0.1813
     11  C4'      100.6580   45.2910   73.5710 C.3   600  ADP600      0.1821
     12  O4'       99.4700   45.9690   73.0900 O.3   600  ADP600     -0.3135
     13  C3'      100.3390   43.8330   73.1980 C.3   600  ADP600      0.2184
     14  O3'      101.0470   42.9270   74.0250 O.3   600  ADP600     -0.2174
     15  C2'       98.8770   43.7570   73.6830 C.3   600  ADP600      0.2570
     16  O2'       98.8500   43.6700   75.1110 O.3   600  ADP600     -0.2130
     17  C1'       98.3440   45.0830   73.1560 C.3   600  ADP600      0.3186
     18  N9        97.8490   45.0350   71.7780 N.pl3 600  ADP600     -0.1439
     19  C8        98.5760   45.4720   70.7010 C.3   600  ADP600      0.3377
     20  N7        97.9250   45.2890   69.5640 N.2   600  ADP600     -0.2095
     21  C5        96.7380   44.7080   69.9460 C.2   600  ADP600      0.2526
     22  C6        95.6390   44.3020   69.1650 C.2   600  ADP600      0.4393
     23  N6        95.6870   44.4780   67.8530 N.pl3 600  ADP600      0.2180
     24  N1        94.5860   43.7760   69.8190 N.2   600  ADP600      0.0021
     25  C2        94.6280   43.6680   71.1780 C.3   600  ADP600      0.5254
     26  N3        95.5950   44.0140   71.9840 N.2   600  ADP600     -0.0055
     27  C4        96.6520   44.5470   71.3070 C.2   600  ADP600      0.3518
@<TRIPOS>BOND
     1    23    22    1
     2     2     1    2
     3     3     1    1
     4    22    24    2
     5    22    21    1
     6     6     5    2
     7    20    21    2
     8    20    19    1
     9     1     8    1
    10     1     4    1
    11    24    25    1
    12    21    27    1
    13     8     5    1
    14     5     9    1
    15     5     7    1
    16    19    18    1
    17    25    26    1
    18    27    18    1
    19    27    26    2
    20     9    10    1
    21    18    17    1
    22    10    11    1
    23    12    17    1
    24    12    11    1
    25    17    15    1
    26    13    11    1
    27    13    15    1
    28    13    14    1
    29    15    16    1
