@<TRIPOS>MOLECULE
1bmk_SB5_A_1.pdb
 23 26 0 0 0
SMALL
GASTEIGER

@<TRIPOS>ATOM
      1  FA1        7.9730   10.8540   30.2870 F     800  SB5800     -0.2042
      2  CA1        6.1150   12.2490   30.9310 C.ar  800  SB5800      0.0297
      3  CA2        6.7560   11.3940   29.9950 C.ar  800  SB5800      0.1401
      4  CA3        6.1390   11.1000   28.7550 C.ar  800  SB5800      0.0297
      5  CA4        4.8850   11.6620   28.4500 C.ar  800  SB5800      0.0035
      6  CA5        4.2110   12.5330   29.3760 C.ar  800  SB5800      0.0151
      7  CA6        4.8530   12.8140   30.6230 C.ar  800  SB5800      0.0035
      8  CB1        1.3490    8.9140   30.2800 C.2   800  SB5800      0.1142
      9  NB2        0.4240    8.4160   29.4220 N.2   800  SB5800     -0.1673
     10  CB3       -0.0610    9.2200   28.4870 C.1   800  SB5800      0.1861
     11  NB4        0.2760   10.4940   28.3020 N.2   800  SB5800     -0.3379
     12  CB5        1.2100   11.0670   29.1360 C.2   800  SB5800      0.1435
     13  CB6        1.7970   10.2620   30.1980 C.2   800  SB5800      0.0518
     14  NB7       -0.9520    8.7080   27.6830 N.pl3 800  SB5800     -0.0345
     15  NC1        0.6660   13.4540   28.3860 N.3   800  SB5800     -0.2428
     16  CC2        1.5780   12.4660   28.9450 C.3   800  SB5800      0.1530
     17  CC3        2.9460   13.0940   29.0270 C.2   800  SB5800      0.0767
     18  NC4        2.8720   14.4160   28.5630 N.2   800  SB5800     -0.2549
     19  CC5        1.5560   14.5090   28.2300 C.3   800  SB5800      0.2011
     20  CD1       -0.7750   13.3790   27.8760 C.3   800  SB5800      0.0745
     21  CE1       -1.0900   14.3700   26.7220 C.3   800  SB5800      0.0161
     22  CE2       -2.0560   13.9220   25.6200 C.3   800  SB5800      0.0014
     23  CE3       -0.5680   14.0230   25.3210 C.3   800  SB5800      0.0014
@<TRIPOS>BOND
     1    23    22    1
     2    23    21    1
     3    22    21    1
     4    21    20    1
     5    14    10    1
     6    20    15    1
     7    19    15    1
     8    19    18    1
     9    11    10    2
    10    11    12    2
    11    15    16    1
    12     5     4   ar
    13     5     6   ar
    14    10     9    2
    15    18    17    2
    16     4     3   ar
    17    16    17    1
    18    16    12    1
    19    17     6    1
    20    12    13    1
    21     6     7   ar
    22     9     8    1
    23     3     1    1
    24     3     2   ar
    25    13     8    2
    26     7     2   ar
