@<TRIPOS>MOLECULE
1bmm_BM2_H_1.pdb
 35 37 0 0 0
SMALL
GASTEIGER

@<TRIPOS>ATOM
      1  C27       14.8680   43.5620   18.2060 C.2     1  BM21        0.2415
      2  O28       14.8240   42.2270   18.4340 O.2     1  BM21       -0.2733
      3  C29       14.6200   43.7730   16.9250 C.3     1  BM21        0.0905
      4  C30       13.1260   43.7070   16.8620 C.3     1  BM21        0.0565
      5  C31       12.7030   43.7500   15.5350 C.3     1  BM21        0.2209
      6  N32       11.4210   43.7390   15.3540 N.pl3   1  BM21       -0.0865
      7  C33       10.8980   44.0430   14.1690 C.cat   1  BM21        0.5346
      8  N35        9.6950   43.9820   14.1280 N.pl3   1  BM21        0.1354
      9  N34       11.7210   44.2910   13.2180 N.pl3   1  BM21        0.1354
     10  N26       15.1800   44.7030   19.0280 N.am    1  BM21       -0.2037
     11  C25       15.4120   44.9070   20.5350 C.3     1  BM21        0.1348
     12  C24       14.9560   45.9150   21.4080 C.3     1  BM21        0.0971
     13  N20       13.7350   45.6210   21.8180 N.am    1  BM21       -0.2782
     14  C21       13.7420   45.0740   23.2630 C.3     1  BM21        0.0935
     15  C22       15.0590   44.5900   23.3910 C.3     1  BM21        0.0233
     16  C23       15.6000   45.6250   22.6470 C.3     1  BM21        0.0234
     17  N14       10.6350   45.5750   20.9180 N.3     1  BM21       -0.0672
     18  C15       11.5470   44.8970   21.3590 C.3     1  BM21        0.2063
     19  C18       12.6480   45.7050   20.9680 C.2     1  BM21        0.2461
     20  O19       12.5100   46.1940   19.7730 O.2     1  BM21       -0.2732
     21  C16       11.8980   43.6900   20.5610 C.3     1  BM21        0.2106
     22  O17       10.6850   43.0680   20.4350 O.3     1  BM21       -0.2182
     23  S11        9.9810   46.5140   21.7150 S.O2    1  BM21        0.0773
     24  O13        9.5740   45.9630   22.9530 O.2     1  BM21       -0.1516
     25  O12        8.6800   46.8860   21.1350 O.2     1  BM21       -0.1516
     26  C2        11.3460   48.8200   21.1460 C.ar    1  BM21        0.0200
     27  C1        10.9130   47.9230   22.0170 C.ar    1  BM21        0.1236
     28  C8        11.3060   47.9150   23.1990 C.ar    1  BM21        0.0200
     29  C7        12.1090   48.6970   23.6530 C.ar    1  BM21        0.0014
     30  C6        13.6510   50.3150   23.6070 C.ar    1  BM21        0.0000
     31  C5        14.3090   51.1210   22.8050 C.ar    1  BM21        0.0000
     32  C4        13.9140   51.1740   21.4530 C.ar    1  BM21        0.0000
     33  C3        12.8900   50.4720   20.8230 C.ar    1  BM21        0.0000
     34  C9        12.2510   49.6820   21.6080 C.ar    1  BM21        0.0013
     35  C10       12.6360   49.6140   22.9540 C.ar    1  BM21        0.0001
@<TRIPOS>BOND
     1     9     7    1
     2     8     7    1
     3     7     6    2
     4     6     5    1
     5     5     4    1
     6     4     3    1
     7     3     1    1
     8     1     2    2
     9     1    10   am
    10    10    11    1
    11    20    19    2
    12    22    21    1
    13    11    12    1
    14    21    18    1
    15    33    32   ar
    16    33    34   ar
    17    17    18    1
    18    17    23    1
    19    19    18    1
    20    19    13   am
    21    25    23    2
    22    26    34   ar
    23    26    27   ar
    24    12    13    1
    25    12    16    1
    26    32    31   ar
    27    34    35   ar
    28    23    27    1
    29    23    24    2
    30    13    14    1
    31    27    28   ar
    32    16    15    1
    33    31    30   ar
    34    35    30   ar
    35    35    29   ar
    36    28    29   ar
    37    14    15    1
