@<TRIPOS>MOLECULE
1bmn_BM9_H_1.pdb
 37 40 0 0 0
SMALL
GASTEIGER

@<TRIPOS>ATOM
      1  C27       59.3950   21.6300   19.8090 C.2     1  BM91        0.2442
      2  O28       60.2050   21.7390   20.5730 O.2     1  BM91       -0.2732
      3  C29       59.4870   20.3580   18.9910 C.3     1  BM91        0.1155
      4  C30       60.6780   19.5970   19.3770 C.3     1  BM91        0.1768
      5  N31       60.6140   18.4390   18.6560 N.pl3   1  BM91       -0.1880
      6  C32       60.3960   18.5600   17.4550 C.3     1  BM91        0.1678
      7  C33       59.4920   19.1930   16.9900 C.3     1  BM91        0.0411
      8  C34       59.4690   20.4790   17.5640 C.3     1  BM91        0.0158
      9  C35       60.5970   17.1690   19.2200 C.cat   1  BM91        0.4954
     10  N37       60.6400   16.9040   20.5280 N.pl3   1  BM91        0.1298
     11  N36       60.6120   16.0540   18.3630 N.pl3   1  BM91        0.1298
     12  N26       58.5860   22.4530   20.0900 N.am    1  BM91       -0.2036
     13  C25       58.5680   23.5450   21.2600 C.3     1  BM91        0.1348
     14  C24       57.5030   22.9480   22.2540 C.3     1  BM91        0.0971
     15  N20       57.9520   21.8170   22.8970 N.am    1  BM91       -0.2782
     16  C21       58.2300   22.3280   24.1530 C.3     1  BM91        0.0935
     17  C22       57.9250   23.8430   24.1400 C.3     1  BM91        0.0233
     18  C23       57.0790   24.0950   23.2510 C.3     1  BM91        0.0234
     19  N14       57.8950   18.7220   23.7340 N.3     1  BM91       -0.0672
     20  C15       58.7780   19.5890   23.5690 C.3     1  BM91        0.2063
     21  C18       58.0230   20.7270   22.6610 C.2     1  BM91        0.2461
     22  O19       57.4400   20.2500   21.4730 O.2     1  BM91       -0.2732
     23  C16       59.9170   19.2350   22.7260 C.3     1  BM91        0.2106
     24  O17       60.7850   18.1220   23.4170 O.3     1  BM91       -0.2182
     25  S11       56.7000   18.2600   25.0930 S.O2    1  BM91        0.0773
     26  O13       57.1850   18.4850   26.5060 O.2     1  BM91       -0.1516
     27  O12       56.6300   16.8560   25.0360 O.2     1  BM91       -0.1516
     28  C2        55.4540   20.3230   25.1070 C.ar    1  BM91        0.0200
     29  C1        55.5370   19.1170   24.6810 C.ar    1  BM91        0.1236
     30  C8        54.5820   18.6260   23.7830 C.ar    1  BM91        0.0200
     31  C7        53.5880   19.3990   23.3410 C.ar    1  BM91        0.0014
     32  C6        52.5390   21.5670   23.4700 C.ar    1  BM91        0.0000
     33  C5        52.3570   22.7830   23.9360 C.ar    1  BM91        0.0000
     34  C4        53.1930   23.2790   24.8610 C.ar    1  BM91        0.0000
     35  C3        54.2620   22.5190   25.2530 C.ar    1  BM91        0.0000
     36  C9        54.4240   21.1480   24.7320 C.ar    1  BM91        0.0013
     37  C10       53.5240   20.7250   23.8120 C.ar    1  BM91        0.0001
@<TRIPOS>BOND
     1     7     6    1
     2     7     8    1
     3     6     5    1
     4     8     3    1
     5    11     9    2
     6     5     9    1
     7     5     4    1
     8     3     4    1
     9     3     1    1
    10     9    10    1
    11     1    12   am
    12     1     2    2
    13    12    13    1
    14    13    14    1
    15    22    21    2
    16    14    15    1
    17    14    18    1
    18    21    15   am
    19    21    20    1
    20    23    24    1
    21    23    20    1
    22    15    16    1
    23    18    17    1
    24    31    30   ar
    25    31    37   ar
    26    32    37   ar
    27    32    33   ar
    28    20    19    1
    29    19    25    1
    30    30    29   ar
    31    37    36   ar
    32    33    34   ar
    33    17    16    1
    34    29    25    1
    35    29    28   ar
    36    36    28   ar
    37    36    35   ar
    38    34    35   ar
    39    27    25    2
    40    25    26    2
