@<TRIPOS>MOLECULE
1bmq_MNO_A_1.pdb
 38 40 0 0 0
SMALL
GASTEIGER

@<TRIPOS>ATOM
      1  C1        34.2130   70.0440   11.3720 C.ar  601  MNO601      0.0046
      2  C2        34.5360   68.8900   10.5870 C.ar  601  MNO601      0.0551
      3  C3        35.7850   68.7480    9.8930 C.ar  601  MNO601      0.0046
      4  C4        36.7550   69.7900    9.9520 C.ar  601  MNO601      0.0001
      5  C5        36.4610   70.9540   10.7180 C.ar  601  MNO601      0.0000
      6  C6        35.1640   71.1030   11.4660 C.ar  601  MNO601      0.0001
      7  C7        34.9430   72.2750   12.2620 C.ar  601  MNO601      0.0000
      8  C8        35.9560   73.3010   12.3350 C.ar  601  MNO601      0.0000
      9  C9        37.1990   73.1710   11.6110 C.ar  601  MNO601      0.0000
     10  C10       37.4430   72.0010   10.8110 C.ar  601  MNO601      0.0000
     11  C11       33.5470   67.8210   10.4700 C.2   601  MNO601      0.2652
     12  O1        32.5810   67.6660   11.2140 O.2   601  MNO601     -0.2684
     13  N1        33.7680   66.9870    9.4460 N.am  601  MNO601     -0.1941
     14  C12       32.9160   65.8570    9.1460 C.3   601  MNO601      0.1715
     15  C13       33.8450   64.8570    8.4600 C.2   601  MNO601      0.2458
     16  O2        34.7280   65.2450    7.6940 O.2   601  MNO601     -0.2730
     17  C14       31.7930   66.2700    8.1690 C.3   601  MNO601      0.0289
     18  C16       30.7730   65.1480    8.0400 C.3   601  MNO601      0.0023
     19  C17       31.1220   67.5450    8.6510 C.3   601  MNO601      0.0023
     20  N2        33.6690   63.5550    8.7410 N.am  601  MNO601     -0.2716
     21  C18       34.5310   62.5540    8.1060 C.3   601  MNO601      0.1535
     22  C19       34.1510   62.3430    6.6380 C.2   601  MNO601      0.2595
     23  O3        32.9680   62.3310    6.2910 O.2   601  MNO601     -0.2716
     24  C20       34.3050   61.3000    8.9460 C.3   601  MNO601      0.0310
     25  C21       32.9250   61.4650    9.4930 C.3   601  MNO601      0.0237
     26  C22       32.6900   62.9450    9.6590 C.3   601  MNO601      0.0939
     27  N3        35.1990   62.1830    5.7990 N.am  601  MNO601     -0.2026
     28  C24       35.4540   62.6050    3.3400 C.3   601  MNO601      0.1128
     29  C25       34.3940   63.4640    2.6940 C.2   601  MNO601      0.2641
     30  N4        33.2020   62.8630    2.3380 N.am  601  MNO601     -0.0631
     31  O5        34.6210   64.6530    2.4930 O.2   601  MNO601     -0.2716
     32  C26       34.8940   61.7220    4.4500 C.3   601  MNO601      0.1374
     33  S1        31.9200   62.2980    3.3010 S.O2  601  MNO601      0.0776
     34  O4        31.4050   63.3940    4.0810 O.2   601  MNO601     -0.1527
     35  O7        32.3220   61.1080    4.0020 O.2   601  MNO601     -0.1527
     36  C15       30.5750   61.6910    2.2590 C.3   601  MNO601      0.2017
     37  O6        34.3580   59.4410    3.8250 O.3   601  MNO601     -0.2185
     38  C27       35.4060   60.2890    4.2820 C.3   601  MNO601      0.2041
@<TRIPOS>BOND
     1    36    33    1
     2    30    29   am
     3    30    33    1
     4    31    29    2
     5    29    28    1
     6    33    35    2
     7    33    34    2
     8    28    32    1
     9    37    38    1
    10    38    32    1
    11    32    27    1
    12    27    22   am
    13    23    22    2
    14    22    21    1
    15    16    15    2
    16    18    17    1
    17    21    20    1
    18    21    24    1
    19    17    19    1
    20    17    14    1
    21    15    20   am
    22    15    14    1
    23    20    26    1
    24    24    25    1
    25    14    13    1
    26    13    11   am
    27    25    26    1
    28     3     4   ar
    29     3     2   ar
    30     4     5   ar
    31    11     2    1
    32    11    12    2
    33     2     1   ar
    34     5    10   ar
    35     5     6   ar
    36    10     9   ar
    37     1     6   ar
    38     6     7   ar
    39     9     8   ar
    40     7     8   ar
