@<TRIPOS>MOLECULE
1bn1_AL5_A_1.pdb
 21 22 0 0 0
SMALL
GASTEIGER

@<TRIPOS>ATOM
      1  C3        -5.2620    1.9170   15.8680 C.ar  555  AL5555      0.1557
      2  C9        -2.5330    6.0160   13.9960 C.3   555  AL5555      0.1418
      3  C10       -2.0730    7.4580   14.0060 C.ar  555  AL5555     -0.0029
      4  C11       -2.0590    8.2370   12.8360 C.ar  555  AL5555     -0.0031
      5  C12       -1.6300    9.5640   12.8920 C.ar  555  AL5555     -0.0045
      6  C13       -1.2090   10.1180   14.1120 C.ar  555  AL5555     -0.0219
      7  C14       -1.2240    9.3400   15.2660 C.ar  555  AL5555     -0.0045
      8  C15       -1.6550    8.0180   15.2120 C.ar  555  AL5555     -0.0031
      9  C16       -0.7060   11.5750   14.2040 C.3   555  AL5555      0.0310
     10  O2A       -7.3420    0.8980   16.8160 O.2   555  AL5555     -0.1498
     11  O1A       -5.4520    0.8900   18.2090 O.2   555  AL5555     -0.1498
     12  N21       -5.4260   -0.6700   16.2410 N.3   555  AL5555      0.0397
     13  S1        -5.9230    0.6800   16.8870 S.O2  555  AL5555      0.0992
     14  C4        -3.9450    1.9180   15.4540 C.ar  555  AL5555      0.0286
     15  C5        -3.6630    3.0440   14.7110 C.ar  555  AL5555      0.0286
     16  C6        -4.7720    3.8640   14.5850 C.ar  555  AL5555      0.1542
     17  S2        -6.1860    3.2900   15.3520 S.2   555  AL5555     -0.0473
     18  S7        -4.9240    5.4130   13.8250 S.O2  555  AL5555      0.0829
     19  O3B       -6.0860    5.4170   12.9990 O.2   555  AL5555     -0.1511
     20  O4B       -5.2530    6.3320   14.8660 O.2   555  AL5555     -0.1511
     21  N8        -3.6740    5.7880   13.1100 N.3   555  AL5555     -0.0725
@<TRIPOS>BOND
     1     4     5   ar
     2     4     3   ar
     3     5     6   ar
     4    19    18    2
     5    21    18    1
     6    21     2    1
     7    18    16    1
     8    18    20    2
     9     2     3    1
    10     3     8   ar
    11     6     9    1
    12     6     7   ar
    13    16    15   ar
    14    16    17   ar
    15    15    14   ar
    16     8     7   ar
    17    17     1   ar
    18    14     1   ar
    19     1    13    1
    20    12    13    1
    21    10    13    2
    22    13    11    2
