@<TRIPOS>MOLECULE
1bn3_AL6_A_1.pdb
 23 25 0 0 0
SMALL
GASTEIGER

@<TRIPOS>ATOM
      1  C3        -5.2650    1.9590   15.9200 C.ar  555  AL6555      0.1557
      2  O5        -0.9340    9.4020   15.5110 O.3   555  AL6555     -0.4714
      3  C9        -2.4550    4.9840   13.7630 C.2   555  AL6555      0.0889
      4  C10       -2.5930    3.7050   14.2800 C.2   555  AL6555      0.0198
      5  C11       -2.9660    7.2090   13.5990 C.ar  555  AL6555      0.0767
      6  C12       -3.3770    8.0350   12.5370 C.ar  555  AL6555      0.0167
      7  C13       -2.9400    9.3550   12.4680 C.ar  555  AL6555      0.0044
      8  C14       -2.1020    9.8560   13.4610 C.ar  555  AL6555      0.0370
      9  C15       -1.7040    9.0120   14.5310 C.ar  555  AL6555      0.1400
     10  C16       -2.1320    7.6890   14.6040 C.ar  555  AL6555      0.0534
     11  O1A       -5.2880    0.7240   18.0410 O.2   555  AL6555     -0.1498
     12  O2A       -7.2870    0.7870   16.8540 O.2   555  AL6555     -0.1498
     13  N21       -5.4860   -0.7710   16.1350 N.3   555  AL6555      0.0397
     14  S1        -5.8870    0.6240   16.7890 S.O2  555  AL6555      0.0992
     15  C4        -3.9950    2.0400   15.3980 C.ar  555  AL6555      0.0286
     16  C5        -3.8050    3.2560   14.7890 C.ar  555  AL6555      0.0283
     17  C6        -4.9210    4.0680   14.7970 C.ar  555  AL6555      0.1564
     18  S2        -6.1980    3.3560   15.6260 S.2   555  AL6555     -0.0471
     19  S7        -4.8740    5.5810   14.0070 S.O2  555  AL6555      0.0859
     20  O3B       -5.4900    5.3090   12.7750 O.2   555  AL6555     -0.1489
     21  O4B       -5.7290    6.4750   14.7310 O.2   555  AL6555     -0.1489
     22  N8        -3.4630    5.9640   13.6250 N.pl3 555  AL6555     -0.1674
     23  C17       -0.4480   10.7670   15.4990 C.3   555  AL6555      0.2525
@<TRIPOS>BOND
     1     7     6   ar
     2     7     8   ar
     3     6     5   ar
     4    20    19    2
     5     8     9   ar
     6     5    22    1
     7     5    10   ar
     8    22     3    1
     9    22    19    1
    10     3     4    2
    11    19    21    2
    12    19    17    1
    13     4    16    1
    14     9    10   ar
    15     9     2    1
    16    16    17   ar
    17    16    15   ar
    18    17    18   ar
    19    15     1   ar
    20    23     2    1
    21    18     1   ar
    22     1    14    1
    23    13    14    1
    24    14    12    2
    25    14    11    2
