@<TRIPOS>MOLECULE
1bn4_AL9_A_1.pdb
 22 23 0 0 0
SMALL
GASTEIGER

@<TRIPOS>ATOM
      1  C3        -5.3340    1.9280   15.8380 C.ar  555  AL9555      0.1557
      2  C9        -2.6420    6.0360   14.1840 C.3   555  AL9555      0.1418
      3  C10       -2.0580    7.4270   14.2930 C.ar  555  AL9555     -0.0027
      4  C11       -1.5690    8.0980   13.1690 C.ar  555  AL9555      0.0003
      5  C12       -1.0250    9.3690   13.3220 C.ar  555  AL9555      0.0366
      6  C13       -0.9660    9.9790   14.5860 C.ar  555  AL9555      0.1387
      7  C14       -1.4620    9.2940   15.6900 C.ar  555  AL9555      0.0366
      8  C15       -2.0050    8.0260   15.5480 C.ar  555  AL9555      0.0003
      9  O2A       -7.3330    0.8630   16.8700 O.2   555  AL9555     -0.1498
     10  O1A       -5.4060    0.9380   18.1940 O.2   555  AL9555     -0.1498
     11  N21       -5.4190   -0.6910   16.2970 N.3   555  AL9555      0.0397
     12  S1        -5.9230    0.6810   16.8990 S.O2  555  AL9555      0.0992
     13  C4        -4.0780    1.8800   15.2730 C.ar  555  AL9555      0.0286
     14  C5        -3.8100    3.0110   14.5290 C.ar  555  AL9555      0.0286
     15  C6        -4.8720    3.8920   14.5410 C.ar  555  AL9555      0.1542
     16  S2        -6.2230    3.3680   15.4530 S.2   555  AL9555     -0.0473
     17  S7        -4.9970    5.4380   13.7870 S.O2  555  AL9555      0.0829
     18  O3B       -5.9560    5.3350   12.7320 O.2   555  AL9555     -0.1511
     19  O4B       -5.5240    6.3620   14.7360 O.2   555  AL9555     -0.1511
     20  N8        -3.7200    5.9420   13.2030 N.3   555  AL9555     -0.0725
     21  O16       -0.4480   11.1690   14.7670 O.3   555  AL9555     -0.4714
     22  C17        0.0540   11.7940   13.5620 C.3   555  AL9555      0.2525
@<TRIPOS>BOND
     1    18    17    2
     2     4     5   ar
     3     4     3   ar
     4    20    17    1
     5    20     2    1
     6     5     6   ar
     7    22    21    1
     8    17    15    1
     9    17    19    2
    10     2     3    1
    11     3     8   ar
    12    14    15   ar
    13    14    13   ar
    14    15    16   ar
    15     6    21    1
    16     6     7   ar
    17    13     1   ar
    18    16     1   ar
    19     8     7   ar
    20     1    12    1
    21    11    12    1
    22     9    12    2
    23    12    10    2
