@<TRIPOS>MOLECULE
1bnm_AL8_A_1.pdb
 25 27 0 0 0
SMALL
GASTEIGER

@<TRIPOS>ATOM
      1  C3        -5.4000    1.9440   15.9240 C.ar  555  AL8555      0.1554
      2  C9        -2.4630    4.8670   13.9500 C.3   555  AL8555      0.1376
      3  C10       -2.8930    3.4230   13.6810 C.3   555  AL8555      0.1184
      4  C16       -1.7410    2.8760   12.0540 C.3   555  AL8555      0.1079
      5  C19       -2.7850    9.0350   12.1510 C.ar  555  AL8555      0.0044
      6  C20       -2.0570    9.6170   13.1770 C.ar  555  AL8555      0.0370
      7  C21       -1.8380    8.8910   14.3630 C.ar  555  AL8555      0.1400
      8  C22       -2.3290    7.6200   14.5370 C.ar  555  AL8555      0.0530
      9  C24       -0.6130   10.6880   15.2670 C.3   555  AL8555      0.2525
     10  N21       -5.5380   -0.6170   16.2430 N.3   555  AL8555      0.0397
     11  S1        -5.9500    0.6570   16.8730 S.O2  555  AL8555      0.0992
     12  O1A       -5.3910    0.7990   18.1650 O.2   555  AL8555     -0.1498
     13  O2A       -7.3510    0.9550   16.9350 O.2   555  AL8555     -0.1498
     14  S2        -6.2800    3.4070   15.8760 S.2   555  AL8555     -0.0474
     15  C6        -5.0780    4.0110   14.8260 C.ar  555  AL8555      0.1534
     16  C5        -4.0830    3.0570   14.5530 C.ar  555  AL8555      0.0222
     17  C4        -4.2700    1.8750   15.1870 C.ar  555  AL8555      0.0257
     18  N8        -3.5320    5.8130   13.6450 N.pl3 555  AL8555     -0.1883
     19  S7        -4.9100    5.6420   14.3140 S.O2  555  AL8555      0.0821
     20  O3B       -6.1270    6.0410   13.5250 O.2   555  AL8555     -0.1492
     21  O4B       -4.9680    6.5100   15.5190 O.2   555  AL8555     -0.1492
     22  N15       -3.1500    3.2010   12.2660 N.3   555  AL8555     -0.2117
     23  C17       -3.0530    7.0560   13.5040 C.ar  555  AL8555      0.0719
     24  C18       -3.2870    7.7480   12.3110 C.ar  555  AL8555      0.0163
     25  O23       -1.1630    9.3500   15.3770 O.3   555  AL8555     -0.4714
@<TRIPOS>BOND
     1     4    22    1
     2     5    24   ar
     3     5     6   ar
     4    22     3    1
     5    24    23   ar
     6     6     7   ar
     7    23    18    1
     8    23     8   ar
     9    20    19    2
    10    18     2    1
    11    18    19    1
    12     3     2    1
    13     3    16    1
    14    19    15    1
    15    19    21    2
    16     7     8   ar
    17     7    25    1
    18    16    15   ar
    19    16    17   ar
    20    15    14   ar
    21    17     1   ar
    22     9    25    1
    23    14     1   ar
    24     1    11    1
    25    10    11    1
    26    11    13    2
    27    11    12    2
