@<TRIPOS>MOLECULE
1bnn_AL1_A_1.pdb
 23 25 0 0 0
SMALL
GASTEIGER

@<TRIPOS>ATOM
      1  C3        -5.1960    2.0290   15.9090 C.ar  555  AL1555      0.1554
      2  C9        -2.6490    4.8220   13.0050 C.3   555  AL1555      0.1206
      3  C10       -2.3760    3.7780   14.0760 C.3   555  AL1555      0.0517
      4  C19       -2.4870    9.1280   12.4120 C.ar  555  AL1555      0.0044
      5  C20       -1.8940    9.6180   13.5640 C.ar  555  AL1555      0.0370
      6  C21       -1.8870    8.8140   14.7220 C.ar  555  AL1555      0.1400
      7  C22       -2.4470    7.5520   14.7580 C.ar  555  AL1555      0.0530
      8  C24       -0.7180   10.5010   15.8270 C.3   555  AL1555      0.2525
      9  N21       -5.5050   -0.6380   16.3660 N.3   555  AL1555      0.0397
     10  S1        -5.8570    0.7240   16.8220 S.O2  555  AL1555      0.0992
     11  O1A       -5.2790    0.8820   18.1040 O.2   555  AL1555     -0.1498
     12  O2A       -7.2380    0.9340   16.6990 O.2   555  AL1555     -0.1498
     13  S2        -6.1660    3.3910   15.5220 S.2   555  AL1555     -0.0474
     14  C6        -4.8230    4.0290   14.7000 C.ar  555  AL1555      0.1521
     15  C5        -3.6450    3.2420   14.7300 C.ar  555  AL1555      0.0065
     16  C4        -3.8970    2.0820   15.4310 C.ar  555  AL1555      0.0243
     17  N8        -3.4920    5.8510   13.5870 N.pl3 555  AL1555     -0.1898
     18  S7        -4.9490    5.5190   13.8560 S.O2  555  AL1555      0.0820
     19  O3B       -5.7560    5.1940   12.6450 O.2   555  AL1555     -0.1492
     20  O4B       -5.7520    6.5720   14.5300 O.2   555  AL1555     -0.1492
     21  C17       -3.0190    7.1020   13.5910 C.ar  555  AL1555      0.0718
     22  C18       -3.0580    7.8580   12.4180 C.ar  555  AL1555      0.0163
     23  O23       -1.3400    9.1940   15.8370 O.3   555  AL1555     -0.4714
@<TRIPOS>BOND
     1     4    22   ar
     2     4     5   ar
     3    22    21   ar
     4    19    18    2
     5     2    17    1
     6     2     3    1
     7     5     6   ar
     8    17    21    1
     9    17    18    1
    10    21     7   ar
    11    18    20    2
    12    18    14    1
    13     3    15    1
    14    14    15   ar
    15    14    13   ar
    16     6     7   ar
    17     6    23    1
    18    15    16   ar
    19    16     1   ar
    20    13     1   ar
    21     8    23    1
    22     1    10    1
    23     9    10    1
    24    12    10    2
    25    10    11    2
