@<TRIPOS>MOLECULE
1bnq_AL4_A_1.pdb
 22 23 0 0 0
SMALL
GASTEIGER

@<TRIPOS>ATOM
      1  C3        -5.4110    2.1300   15.9940 C.ar  555  AL4555      0.1554
      2  C9        -3.4750    5.2100   12.8070 C.3   555  AL4555      0.1177
      3  C10       -3.0900    3.9100   13.5610 C.3   555  AL4555      0.1144
      4  C11       -3.3570    7.4280   13.8130 C.3   555  AL4555      0.1279
      5  C12       -2.1140    7.2940   14.6710 C.3   555  AL4555      0.1614
      6  C14       -1.8980    9.6140   15.1440 C.3   555  AL4555      0.1742
      7  C16       -1.4990    2.9730   11.8820 C.3   555  AL4555      0.0891
      8  O1A       -5.3690    0.9060   18.2470 O.2   555  AL4555     -0.1498
      9  O2A       -7.3410    1.0020   17.0140 O.2   555  AL4555     -0.1498
     10  N21       -5.5150   -0.4740   16.3480 N.3   555  AL4555      0.0397
     11  S1        -5.9400    0.8170   16.9460 S.O2  555  AL4555      0.0992
     12  C4        -4.2770    2.2090   15.2360 C.ar  555  AL4555      0.0257
     13  C5        -4.1380    3.3910   14.5620 C.ar  555  AL4555      0.0216
     14  C6        -5.2030    4.2360   14.8560 C.ar  555  AL4555      0.1502
     15  S2        -6.3670    3.5540   15.9020 S.2   555  AL4555     -0.0477
     16  S7        -5.3460    5.8670   14.3380 S.O2  555  AL4555      0.0689
     17  O3B       -6.3440    5.9330   13.3320 O.2   555  AL4555     -0.1523
     18  O4B       -5.7570    6.7250   15.3850 O.2   555  AL4555     -0.1523
     19  N8        -3.9590    6.1200   13.8370 N.3   555  AL4555     -0.1507
     20  N15       -2.8090    2.9050   12.5390 N.3   555  AL4555     -0.2135
     21  O13       -1.3150    8.4560   14.5440 O.3   555  AL4555     -0.3496
     22  C17       -1.2660    1.8440   10.8680 C.3   555  AL4555      0.0203
@<TRIPOS>BOND
     1    22     7    1
     2     7    20    1
     3    20     3    1
     4     2     3    1
     5     2    19    1
     6    17    16    2
     7     3    13    1
     8     4    19    1
     9     4     5    1
    10    19    16    1
    11    16    14    1
    12    16    18    2
    13    21     5    1
    14    21     6    1
    15    13    14   ar
    16    13    12   ar
    17    14    15   ar
    18    12     1   ar
    19    15     1   ar
    20     1    11    1
    21    10    11    1
    22    11     9    2
    23    11     8    2
