@<TRIPOS>MOLECULE
1bnt_AL2_A_1.pdb
 24 26 0 0 0
SMALL
GASTEIGER

@<TRIPOS>ATOM
      1  C3        -5.2980    2.0710   15.9760 C.ar  555  AL2555      0.1555
      2  O5        -2.3840    2.8150   12.7910 O.3   555  AL2555     -0.2163
      3  C9        -3.1400    5.0670   12.8350 C.3   555  AL2555      0.1532
      4  C10       -2.7570    3.8410   13.6970 C.3   555  AL2555      0.1976
      5  C11       -3.0180    7.2900   13.8320 C.ar  555  AL2555      0.0691
      6  C12       -2.9630    8.0310   12.6430 C.ar  555  AL2555      0.0192
      7  C13       -2.4250    9.3160   12.6570 C.ar  555  AL2555      0.0382
      8  C14       -1.9250    9.8350   13.8530 C.ar  555  AL2555      0.1388
      9  C15       -1.9510    9.0880   15.0400 C.ar  555  AL2555      0.0382
     10  C16       -2.5070    7.8110   15.0280 C.ar  555  AL2555      0.0192
     11  O1A       -5.4860    0.8180   18.2380 O.2   555  AL2555     -0.1498
     12  O2A       -7.3100    0.9230   16.8750 O.2   555  AL2555     -0.1498
     13  N21       -5.5200   -0.5310   16.2930 N.3   555  AL2555      0.0397
     14  S1        -5.9080    0.7570   16.8950 S.O2  555  AL2555      0.0992
     15  C4        -4.1150    2.1470   15.2890 C.ar  555  AL2555      0.0268
     16  C5        -3.8850    3.3250   14.6260 C.ar  555  AL2555      0.0364
     17  C6        -4.9450    4.1890   14.8420 C.ar  555  AL2555      0.1545
     18  S2        -6.1910    3.5260   15.8110 S.2   555  AL2555     -0.0474
     19  S7        -4.9630    5.7960   14.2370 S.O2  555  AL2555      0.0822
     20  O3B       -5.8730    5.8450   13.1410 O.2   555  AL2555     -0.1492
     21  O4B       -5.4530    6.6170   15.3010 O.2   555  AL2555     -0.1492
     22  N8        -3.5200    6.0470   13.8370 N.pl3 555  AL2555     -0.1872
     23  O6        -1.4580   11.1370   13.8280 O.3   555  AL2555     -0.4714
     24  C17       -0.0750   11.2720   13.4630 C.3   555  AL2555      0.2525
@<TRIPOS>BOND
     1     6     7   ar
     2     6     5   ar
     3     7     8   ar
     4     2     4    1
     5     3     4    1
     6     3    22    1
     7    20    19    2
     8    24    23    1
     9     4    16    1
    10    23     8    1
    11     5    22    1
    12     5    10   ar
    13    22    19    1
    14     8     9   ar
    15    19    17    1
    16    19    21    2
    17    16    17   ar
    18    16    15   ar
    19    17    18   ar
    20    10     9   ar
    21    15     1   ar
    22    18     1   ar
    23     1    14    1
    24    13    14    1
    25    12    14    2
    26    14    11    2
