@<TRIPOS>MOLECULE
1bnu_AL3_A_1.pdb
 22 24 0 0 0
SMALL
GASTEIGER

@<TRIPOS>ATOM
      1  C3        -5.3870    2.1330   15.8720 C.ar  555  AL3555      0.1555
      2  O5        -2.3100    3.0260   12.8700 O.3   555  AL3555     -0.2167
      3  C9        -3.3960    5.1670   12.7360 C.3   555  AL3555      0.1336
      4  C10       -2.9520    4.0030   13.6750 C.3   555  AL3555      0.1937
      5  C11       -3.0250    6.6200   14.5750 C.3   555  AL3555      0.1286
      6  C12       -2.4260    7.8850   14.2360 C.ar  555  AL3555      0.0251
      7  C13       -2.4300    8.5120   13.0050 C.ar  555  AL3555      0.0041
      8  C14       -1.7940    9.7230   13.0680 C.ar  555  AL3555      0.0072
      9  C15       -1.2980   10.0360   14.3240 C.ar  555  AL3555      0.0352
     10  O1A       -5.4610    0.9870   18.1890 O.2   555  AL3555     -0.1498
     11  O2A       -7.3040    0.8500   16.8940 O.2   555  AL3555     -0.1498
     12  N21       -5.3540   -0.3940   16.2360 N.3   555  AL3555      0.0397
     13  S1        -5.8810    0.8350   16.8560 S.O2  555  AL3555      0.0992
     14  C4        -4.2640    2.2050   15.1130 C.ar  555  AL3555      0.0268
     15  C5        -4.1360    3.3590   14.4010 C.ar  555  AL3555      0.0358
     16  C6        -5.2000    4.1940   14.6360 C.ar  555  AL3555      0.1513
     17  S2        -6.3430    3.5400   15.7230 S.2   555  AL3555     -0.0476
     18  S7        -5.3150    5.8180   14.0610 S.O2  555  AL3555      0.0692
     19  O3B       -6.2970    5.8260   13.0500 O.2   555  AL3555     -0.1523
     20  O4B       -5.8480    6.6350   15.1020 O.2   555  AL3555     -0.1523
     21  N8        -3.9840    6.2390   13.5360 N.3   555  AL3555     -0.1471
     22  S16       -1.6320    8.7810   15.4670 S.2   555  AL3555     -0.0893
@<TRIPOS>BOND
     1     3    21    1
     2     3     4    1
     3     2     4    1
     4     7     8   ar
     5     7     6   ar
     6    19    18    2
     7     8     9   ar
     8    21    18    1
     9    21     5    1
    10     4    15    1
    11    18    16    1
    12    18    20    2
    13     6     5    1
    14     6    22   ar
    15     9    22   ar
    16    15    16   ar
    17    15    14   ar
    18    16    17   ar
    19    14     1   ar
    20    17     1   ar
    21     1    13    1
    22    12    13    1
    23    13    11    2
    24    13    10    2
