@<TRIPOS>MOLECULE
1bnv_AL7_A_1.pdb
 25 27 0 0 0
SMALL
GASTEIGER

@<TRIPOS>ATOM
      1  C3        -5.4570    1.8790   15.8760 C.ar  555  AL7555      0.1554
      2  C9        -4.1420    4.6350   12.2540 C.3   555  AL7555      0.1376
      3  C10       -3.4840    3.4720   13.0120 C.3   555  AL7555      0.1184
      4  C16       -1.5470    3.0460   12.4460 C.3   555  AL7555      0.1079
      5  C19       -2.6170    8.7210   11.8780 C.ar  555  AL7555      0.0044
      6  C20       -1.8960    9.1920   12.9630 C.ar  555  AL7555      0.0370
      7  C21       -1.9140    8.4830   14.1610 C.ar  555  AL7555      0.1400
      8  C22       -2.6460    7.2920   14.2810 C.ar  555  AL7555      0.0530
      9  C24       -0.6030   10.1410   15.2420 C.3   555  AL7555      0.2525
     10  N21       -5.6080   -0.7560   16.4350 N.3   555  AL7555      0.0397
     11  S1        -5.9320    0.5970   16.9390 S.O2  555  AL7555      0.0992
     12  O1A       -5.3140    0.8520   18.1880 O.2   555  AL7555     -0.1498
     13  O2A       -7.3140    0.7730   16.9140 O.2   555  AL7555     -0.1498
     14  S2        -6.1480    3.4410   16.0360 S.2   555  AL7555     -0.0474
     15  C6        -5.2150    3.9570   14.7200 C.ar  555  AL7555      0.1534
     16  C5        -4.3770    2.9900   14.1530 C.ar  555  AL7555      0.0222
     17  C4        -4.5440    1.8080   14.8390 C.ar  555  AL7555      0.0257
     18  N8        -4.1910    5.7360   13.2140 N.pl3 555  AL7555     -0.1883
     19  S7        -5.3450    5.5640   14.1550 S.O2  555  AL7555      0.0821
     20  O3B       -6.6280    5.7420   13.4100 O.2   555  AL7555     -0.1492
     21  O4B       -5.2660    6.4310   15.3640 O.2   555  AL7555     -0.1492
     22  N15       -2.1620    3.8540   13.4980 N.3   555  AL7555     -0.2117
     23  C17       -3.3910    6.8190   13.1810 C.ar  555  AL7555      0.0719
     24  C18       -3.3590    7.5480   11.9850 C.ar  555  AL7555      0.0163
     25  O23       -1.3110    8.8950   15.2380 O.3   555  AL7555     -0.4714
@<TRIPOS>BOND
     1     5    24   ar
     2     5     6   ar
     3    24    23   ar
     4     2     3    1
     5     2    18    1
     6     4    22    1
     7     6     7   ar
     8     3    22    1
     9     3    16    1
    10    23    18    1
    11    23     8   ar
    12    18    19    1
    13    20    19    2
    14    16    15   ar
    15    16    17   ar
    16    19    15    1
    17    19    21    2
    18     7     8   ar
    19     7    25    1
    20    15    14   ar
    21    17     1   ar
    22    25     9    1
    23     1    14   ar
    24     1    11    1
    25    10    11    1
    26    13    11    2
    27    11    12    2
