@<TRIPOS>MOLECULE
1bnw_TPD_A_1.pdb
 19 20 0 0 0
SMALL
GASTEIGER

@<TRIPOS>ATOM
      1  C3        -5.2720    2.0930   15.8300 C.ar  555  TPD555      0.1557
      2  C9        -2.5880    6.3460   13.9900 C.3   555  TPD555      0.1482
      3  C10       -2.0720    7.6960   13.8940 C.ar  555  TPD555      0.0267
      4  C11       -2.1060    8.4440   12.7330 C.ar  555  TPD555      0.0042
      5  C12       -1.6140    9.7130   12.9390 C.ar  555  TPD555      0.0072
      6  C13       -1.1930    9.9560   14.2360 C.ar  555  TPD555      0.0352
      7  O1A       -5.4750    1.0740   18.1580 O.2   555  TPD555     -0.1498
      8  O2A       -7.3150    0.9750   16.7440 O.2   555  TPD555     -0.1498
      9  N21       -5.3990   -0.4720   16.2890 N.3   555  TPD555      0.0397
     10  S1        -5.8990    0.8280   16.8150 S.O2  555  TPD555      0.0992
     11  C4        -4.0400    2.1040   15.2520 C.ar  555  TPD555      0.0286
     12  C5        -3.8220    3.2650   14.5570 C.ar  555  TPD555      0.0286
     13  C6        -4.8860    4.1360   14.6030 C.ar  555  TPD555      0.1542
     14  S2        -6.1780    3.5170   15.5160 S.2   555  TPD555     -0.0473
     15  S7        -5.0220    5.6980   13.8580 S.O2  555  TPD555      0.0829
     16  O3B       -4.9270    5.4990   12.4420 O.2   555  TPD555     -0.1511
     17  O4B       -6.3080    6.2440   14.1910 O.2   555  TPD555     -0.1511
     18  N8        -3.9630    6.5960   14.4120 N.3   555  TPD555     -0.0719
     19  S14       -1.4130    8.5610   15.2460 S.2   555  TPD555     -0.0893
@<TRIPOS>BOND
     1    16    15    2
     2     4     5   ar
     3     4     3   ar
     4     5     6   ar
     5    15    17    2
     6    15    18    1
     7    15    13    1
     8     3     2    1
     9     3    19   ar
    10     2    18    1
    11     6    19   ar
    12    12    13   ar
    13    12    11   ar
    14    13    14   ar
    15    11     1   ar
    16    14     1   ar
    17     1    10    1
    18     9    10    1
    19     8    10    2
    20    10     7    2
