@<TRIPOS>MOLECULE
1bo4_COA_A_1.pdb
 48 50 0 0 0
SMALL
GASTEIGER

@<TRIPOS>ATOM
      1  N1A       21.1850   90.6680   26.6960 N.2   300  COA300      0.0021
      2  C2A       21.0110   89.8250   25.6780 C.3   300  COA300      0.5254
      3  N3A       20.4790   88.6040   25.7040 N.2   300  COA300     -0.0055
      4  C4A       20.0860   88.2280   26.9980 C.2   300  COA300      0.3518
      5  C5A       20.2170   89.0020   28.1390 C.2   300  COA300      0.2526
      6  C6A       20.8040   90.3020   27.9590 C.2   300  COA300      0.4393
      7  N6A       20.9940   91.1700   28.9620 N.pl3 300  COA300      0.2180
      8  N7A       19.7360   88.3420   29.2390 N.2   300  COA300     -0.2095
      9  C8A       19.3210   87.1820   28.7650 C.3   300  COA300      0.3377
     10  N9A       19.5040   87.0410   27.3960 N.pl3 300  COA300     -0.1439
     11  C1B       19.0910   85.9340   26.4780 C.3   300  COA300      0.3185
     12  C2B       19.2470   84.5680   27.1970 C.3   300  COA300      0.2543
     13  O2B       20.5610   84.0310   26.9880 O.3   300  COA300     -0.2131
     14  C3B       18.1980   83.6660   26.5090 C.3   300  COA300      0.1928
     15  O3B       18.7200   83.1390   25.2710 O.3   300  COA300     -0.2673
     16  P3B       18.4540   81.6610   24.9400 P.3   300  COA300      0.5327
     17  O7A       19.4000   80.7700   25.7720 O.3   300  COA300     -0.1145
     18  O8A       16.9880   81.2970   25.2700 O.3   300  COA300     -0.1145
     19  O9A       18.7170   81.4350   23.4350 O.2   300  COA300     -0.2224
     20  C4B       17.1080   84.7020   26.1850 C.3   300  COA300      0.1795
     21  O4B       17.6860   86.0190   26.1480 O.3   300  COA300     -0.3136
     22  C5B       16.0070   84.6320   27.2390 C.3   300  COA300      0.1812
     23  O5B       16.4710   84.9740   28.5400 O.3   300  COA300     -0.3112
     24  P1A       15.4900   85.3570   29.6310 P.3   300  COA300      0.2189
     25  O1A       16.2140   85.3470   30.9890 O.3   300  COA300     -0.4371
     26  O2A       14.9310   86.7680   29.3440 O.2   300  COA300     -0.5170
     27  O3A       14.3540   84.3320   29.6430 O.3   300  COA300     -0.2703
     28  P2A       12.8950   84.5110   30.0760 P.3   300  COA300      0.2188
     29  O4A       12.8370   85.3070   31.3910 O.3   300  COA300     -0.4371
     30  O5A       12.1080   85.2360   28.9740 O.2   300  COA300     -0.5170
     31  O6A       12.2830   83.1240   30.2970 O.3   300  COA300     -0.3138
     32  CBP       11.5880   80.9010   29.4800 C.3   300  COA300      0.0645
     33  CCP       12.5830   82.0580   29.3930 C.3   300  COA300      0.1519
     34  CDP       11.6760   80.3080   30.9020 C.3   300  COA300      0.0056
     35  CEP       11.9740   79.8090   28.4560 C.3   300  COA300      0.0056
     36  CAP       10.1570   81.4630   29.1820 C.3   300  COA300      0.2312
     37  OAP        9.9660   81.6790   27.7690 O.3   300  COA300     -0.2131
     38  C9P        8.9890   80.5560   29.6400 C.2   300  COA300      0.2719
     39  O9P        8.5590   80.6310   30.8060 O.2   300  COA300     -0.2706
     40  N8P        8.4830   79.6070   28.6910 N.am  300  COA300     -0.2028
     41  C7P        7.4720   78.6470   29.0010 C.3   300  COA300      0.1248
     42  C6P        8.0100   77.5290   29.9000 C.3   300  COA300      0.1102
     43  C5P        9.1660   76.7340   29.3100 C.2   300  COA300      0.2432
     44  O5P        9.1770   76.3400   28.1360 O.2   300  COA300     -0.2733
     45  N4P       10.1980   76.4700   30.2640 N.am  300  COA300     -0.2044
     46  C3P       11.3580   75.6980   29.9600 C.3   300  COA300      0.1276
     47  C2P       12.6200   76.4040   30.4110 C.3   300  COA300      0.0920
     48  S1P       14.1480   75.4600   30.1120 S.3   300  COA300     -0.0802
@<TRIPOS>BOND
     1    19    16    2
     2    16    18    1
     3    16    15    1
     4    16    17    1
     5    15    14    1
     6     2     3    1
     7     2     1    1
     8     3     4    2
     9    21    20    1
    10    21    11    1
    11    20    14    1
    12    20    22    1
    13    11    12    1
    14    11    10    1
    15    14    12    1
    16     1     6    2
    17    13    12    1
    18     4    10    1
    19     4     5    1
    20    22    23    1
    21    10     9    1
    22    37    36    1
    23     6     5    1
    24     6     7    1
    25    44    43    2
    26     5     8    2
    27    35    32    1
    28    23    24    1
    29    40    41    1
    30    40    38   am
    31     9     8    1
    32    30    28    2
    33    41    42    1
    34    36    32    1
    35    36    38    1
    36    43    42    1
    37    43    45   am
    38    26    24    2
    39    33    32    1
    40    33    31    1
    41    32    34    1
    42    24    27    1
    43    24    25    1
    44    38    39    2
    45    27    28    1
    46    46    45    1
    47    46    47    1
    48    28    31    1
    49    28    29    1
    50    48    47    1
