@<TRIPOS>MOLECULE
1bo5_FBP_O_1.pdb
 20 20 0 0 0
SMALL
GASTEIGER

@<TRIPOS>ATOM
      1  P1         7.8280   71.7600   73.8110 P.3   502  FBP502      0.5328
      2  O1P        9.0160   71.3110   74.5710 O.3   502  FBP502     -0.1145
      3  O2P        6.7770   71.9780   74.8430 O.3   502  FBP502     -0.1145
      4  O3P        7.7190   70.8740   72.6140 O.2   502  FBP502     -0.2224
      5  O1         8.1310   73.2240   73.2520 O.3   502  FBP502     -0.2648
      6  C1         7.9910   74.3280   74.1540 C.3   502  FBP502      0.2152
      7  C2         8.4180   75.6110   73.4320 C.3   502  FBP502      0.2780
      8  O2         7.6740   76.7710   73.8030 O.3   502  FBP502     -0.1897
      9  C3         7.9370   75.7350   72.0140 C.3   502  FBP502      0.2408
     10  O3         6.7780   76.5410   71.9580 O.3   502  FBP502     -0.2149
     11  C4         9.0980   76.4240   71.3060 C.3   502  FBP502      0.2167
     12  O4         9.2950   75.8900   70.0120 O.3   502  FBP502     -0.2175
     13  C5        10.2590   75.9920   72.1240 C.3   502  FBP502      0.1808
     14  O5         9.8270   75.9590   73.4780 O.3   502  FBP502     -0.3255
     15  C6        11.4600   76.9110   71.9800 C.3   502  FBP502      0.1859
     16  O6        12.5040   76.1410   71.4010 O.3   502  FBP502     -0.2675
     17  P2        13.7820   75.9730   72.3240 P.3   502  FBP502      0.5327
     18  O4P       14.7490   77.0230   71.9650 O.3   502  FBP502     -0.1145
     19  O5P       13.3530   76.1950   73.7230 O.3   502  FBP502     -0.1145
     20  O6P       14.4160   74.6970   71.9530 O.2   502  FBP502     -0.2224
@<TRIPOS>BOND
     1    12    11    1
     2    11     9    1
     3    11    13    1
     4    16    15    1
     5    16    17    1
     6    20    17    2
     7    10     9    1
     8    18    17    1
     9    15    13    1
    10     9     7    1
    11    13    14    1
    12    17    19    1
    13     4     1    2
    14     5     1    1
    15     5     6    1
    16     7    14    1
    17     7     8    1
    18     7     6    1
    19     1     2    1
    20     1     3    1
