@<TRIPOS>MOLECULE
1bo6_A3P_A_1.pdb
 27 29 0 0 0
SMALL
GASTEIGER

@<TRIPOS>ATOM
      1  P1        12.6390   29.5180   65.5000 P.3   301  A3P301      0.5327
      2  O1P       11.5980   29.6700   64.4680 O.2   301  A3P301     -0.2224
      3  O2P       13.7310   30.4630   65.2570 O.3   301  A3P301     -0.1145
      4  O3P       12.0770   29.7270   66.8190 O.3   301  A3P301     -0.1145
      5  P2        13.0680   22.5740   62.6430 P.3   301  A3P301      0.5327
      6  O4P       14.4940   22.4180   62.3880 O.3   301  A3P301     -0.1145
      7  O5P       12.5530   21.4610   63.4300 O.3   301  A3P301     -0.1145
      8  O6P       12.2740   22.7130   61.3790 O.2   301  A3P301     -0.2224
      9  O5'       12.8750   23.8700   63.4950 O.3   301  A3P301     -0.2675
     10  C5'       13.4710   25.1090   63.2010 C.3   301  A3P301      0.1859
     11  C4'       13.6070   25.8690   64.5310 C.3   301  A3P301      0.1796
     12  O4'       14.8040   25.3640   65.2270 O.3   301  A3P301     -0.3136
     13  C3'       13.8630   27.3580   64.3710 C.3   301  A3P301      0.1928
     14  O3'       13.2110   28.0150   65.4760 O.3   301  A3P301     -0.2673
     15  C2'       15.3840   27.4340   64.3690 C.3   301  A3P301      0.2543
     16  O2'       15.9640   28.7160   64.4920 O.3   301  A3P301     -0.2131
     17  C1'       15.7240   26.4400   65.4560 C.3   301  A3P301      0.3185
     18  N9        17.1470   26.0240   65.3510 N.pl3 301  A3P301     -0.1439
     19  C8        17.7990   25.3340   64.3500 C.3   301  A3P301      0.3377
     20  N7        19.0680   25.1300   64.5550 N.2   301  A3P301     -0.2095
     21  C5        19.3120   25.7160   65.7770 C.2   301  A3P301      0.2526
     22  C6        20.4910   25.8640   66.5890 C.2   301  A3P301      0.4393
     23  N6        21.6690   25.4000   66.2360 N.pl3 301  A3P301      0.2180
     24  N1        20.3700   26.5240   67.7930 N.2   301  A3P301      0.0021
     25  C2        19.1700   27.0220   68.1950 C.3   301  A3P301      0.5254
     26  N3        17.9860   26.9520   67.5180 N.2   301  A3P301     -0.0055
     27  C4        18.1250   26.2800   66.3030 C.2   301  A3P301      0.3518
@<TRIPOS>BOND
     1     8     5    2
     2     6     5    1
     3     5     7    1
     4     5     9    1
     5    10     9    1
     6    10    11    1
     7    19    20    1
     8    19    18    1
     9    15    13    1
    10    15    16    1
    11    15    17    1
    12    13    11    1
    13    13    14    1
    14     2     1    2
    15    11    12    1
    16    20    21    2
    17    12    17    1
    18     3     1    1
    19    18    17    1
    20    18    27    1
    21    14     1    1
    22     1     4    1
    23    21    27    1
    24    21    22    1
    25    23    22    1
    26    27    26    2
    27    22    24    2
    28    26    25    1
    29    24    25    1
