@<TRIPOS>MOLECULE
1bo7_U_A_1.pdb
 20 21 0 0 0
SMALL
GASTEIGER

@<TRIPOS>ATOM
      1  OP3       15.4070   52.7660  -59.3050 O.3   317  U317       -0.1145
      2  P         15.8550   51.4100  -59.5100 P.3   317  U317        0.5327
      3  OP1       16.5840   51.3530  -60.8250 O.2   317  U317       -0.2224
      4  OP2       14.6790   50.5150  -59.5290 O.3   317  U317       -0.1145
      5  O5'       16.6660   50.7340  -58.3870 O.3   317  U317       -0.2675
      6  C5'       16.2390   50.7020  -56.9960 C.3   317  U317        0.1858
      7  C4'       16.9150   49.4590  -56.4060 C.3   317  U317        0.1774
      8  O4'       16.4780   49.2890  -54.9510 O.3   317  U317       -0.3339
      9  C3'       16.3020   48.1820  -56.9960 C.3   317  U317        0.1857
     10  O3'       17.2000   47.1000  -56.7610 O.3   317  U317       -0.2203
     11  C2'       15.0210   47.9410  -56.2060 C.3   317  U317        0.0874
     12  C1'       15.4710   48.1900  -54.7700 C.3   317  U317        0.2090
     13  N1        14.4490   48.5000  -53.8000 N.am  317  U317       -0.1790
     14  C2        13.7520   47.5090  -53.1460 C.1   317  U317        0.2844
     15  O2        13.8400   46.3560  -53.4980 O.2   317  U317       -0.1918
     16  N3        12.9400   47.8300  -52.0630 N.2   317  U317       -0.2452
     17  C4        12.7750   49.1480  -51.5810 C.1   317  U317        0.2182
     18  O4        12.0370   49.3960  -50.6320 O.2   317  U317       -0.2085
     19  C5        13.5300   50.1610  -52.3240 C.2   317  U317        0.1242
     20  C6        14.3500   49.7800  -53.4280 C.2   317  U317        0.0928
@<TRIPOS>BOND
     1     3     2    2
     2     4     2    1
     3     2     1    1
     4     2     5    1
     5     5     6    1
     6     6     7    1
     7     9    10    1
     8     9     7    1
     9     9    11    1
    10     7     8    1
    11    11    12    1
    12     8    12    1
    13    12    13    1
    14    13    20    1
    15    13    14   am
    16    15    14    2
    17    20    19    2
    18    14    16    2
    19    19    17    1
    20    16    17    2
    21    17    18    2
