@<TRIPOS>MOLECULE
1bo8_U_A_1.pdb
 20 21 0 0 0
SMALL
GASTEIGER

@<TRIPOS>ATOM
      1  OP3       15.9630   52.4710  -60.5350 O.2   318  U318       -0.2224
      2  P         15.8460   51.3800  -59.5740 P.3   318  U318        0.5327
      3  OP1       16.3560   50.1100  -60.1940 O.3   318  U318       -0.1145
      4  OP2       14.4390   51.2900  -59.1750 O.3   318  U318       -0.1145
      5  O5'       16.5960   51.6430  -58.1480 O.3   318  U318       -0.2675
      6  C5'       16.1850   51.2310  -56.7550 C.3   318  U318        0.1858
      7  C4'       16.8020   49.9230  -56.2550 C.3   318  U318        0.1774
      8  O4'       16.3560   49.7520  -54.8430 O.3   318  U318       -0.3339
      9  C3'       16.0990   48.7030  -56.8710 C.3   318  U318        0.1857
     10  O3'       16.9560   47.5100  -56.7610 O.3   318  U318       -0.2203
     11  C2'       14.8360   48.4950  -56.0440 C.3   318  U318        0.0874
     12  C1'       15.4280   48.5800  -54.6430 C.3   318  U318        0.2090
     13  N1        14.5230   48.5960  -53.5020 N.am  318  U318       -0.1790
     14  C2        13.8270   47.4860  -52.9840 C.1   318  U318        0.2844
     15  O2        13.7080   46.3530  -53.4370 O.2   318  U318       -0.1918
     16  N3        13.2040   47.7190  -51.7690 N.2   318  U318       -0.2452
     17  C4        13.2290   48.9160  -51.0440 C.1   318  U318        0.2182
     18  O4        12.7270   48.9850  -49.9260 O.2   318  U318       -0.2085
     19  C5        13.9490   50.0020  -51.6660 C.2   318  U318        0.1242
     20  C6        14.5660   49.7630  -52.8930 C.2   318  U318        0.0928
@<TRIPOS>BOND
     1     1     2    2
     2     3     2    1
     3     2     4    1
     4     2     5    1
     5     5     6    1
     6     9    10    1
     7     9     7    1
     8     9    11    1
     9     6     7    1
    10     7     8    1
    11    11    12    1
    12     8    12    1
    13    12    13    1
    14    13    14   am
    15    13    20    1
    16    15    14    2
    17    14    16    2
    18    20    19    2
    19    16    17    2
    20    19    17    1
    21    17    18    2
