@<TRIPOS>MOLECULE
1boa_FUG_A_1.pdb
 33 34 0 0 0
SMALL
GASTEIGER

@<TRIPOS>ATOM
      1  C5        18.0420   27.7710   21.0340 C.3   480  FUG480      0.0487
      2  C4        16.5910   28.2450   20.9790 C.3   480  FUG480      0.1959
      3  C3        16.1910   28.7650   19.5920 C.3   480  FUG480      0.1598
      4  C2        17.1750   29.8670   19.0930 C.3   480  FUG480      0.0860
      5  C1        18.6090   29.3460   19.0550 C.3   480  FUG480      0.1314
      6  C6        18.9690   28.8370   20.4570 C.3   480  FUG480      0.0344
      7  O11       18.6300   28.2880   18.1990 O.3   480  FUG480     -0.2255
      8  C11       19.6680   30.3500   18.6030 C.3   480  FUG480      0.0331
      9  C21       16.6320   30.5880   17.8210 C.3   480  FUG480      0.1225
     10  C22       16.7410   32.0170   17.4500 C.3   480  FUG480      0.1442
     11  C23       16.9890   32.4970   16.0460 C.3   480  FUG480      0.0573
     12  C24       18.4050   32.2370   15.5890 C.2   480  FUG480     -0.0320
     13  C25       19.5630   32.8950   15.6280 C.2   480  FUG480     -0.0478
     14  C2A       16.3920   29.5270   16.7480 C.3   480  FUG480      0.0323
     15  O2A       15.5060   31.4840   17.9480 O.3   480  FUG480     -0.3557
     16  C2B       20.9040   32.3000   15.2600 C.3   480  FUG480      0.0260
     17  C2C       19.7550   34.2450   16.3110 C.3   480  FUG480      0.0260
     18  O31       14.8460   29.2470   19.5550 O.3   480  FUG480     -0.3497
     19  C31       13.8180   28.2350   19.6560 C.3   480  FUG480      0.1742
     20  O41       16.4160   29.3730   21.8810 O.3   480  FUG480     -0.4497
     21  C41       15.4130   29.5900   22.7570 C.2   480  FUG480      0.3173
     22  O4A       14.7180   28.6410   22.9820 O.2   480  FUG480     -0.2501
     23  C42       15.2340   30.8760   23.4720 C.3   480  FUG480      0.1142
     24  C43       14.8600   31.0220   24.7600 C.3   480  FUG480      0.0377
     25  C44       15.2270   32.2480   25.4990 C.2   480  FUG480     -0.0256
     26  C45       14.9220   32.4770   26.7830 C.2   480  FUG480     -0.0046
     27  C46       15.3000   33.6990   27.4900 C.2   480  FUG480     -0.0003
     28  C47       14.9990   33.9510   28.7740 C.2   480  FUG480      0.0002
     29  C48       15.3940   35.1930   29.4470 C.2   480  FUG480      0.0068
     30  C49       15.0910   35.4730   30.7380 C.2   480  FUG480      0.0861
     31  C4A       15.7640   36.6560   31.3440 C.2   480  FUG480      0.3880
     32  O4B       15.2960   37.0200   32.4200 O.co2 480  FUG480     -0.2405
     33  O4C       16.6590   37.2610   30.7410 O.co2 480  FUG480     -0.2405
@<TRIPOS>BOND
     1    16    13    1
     2    12    13    2
     3    12    11    1
     4    13    17    1
     5    11    10    1
     6    14     9    1
     7    10     9    1
     8    10    15    1
     9     9    15    1
    10     9     4    1
    11     7     5    1
    12     8     5    1
    13     5     4    1
    14     5     6    1
    15     4     3    1
    16    18     3    1
    17    18    19    1
    18     3     2    1
    19     6     1    1
    20     2     1    1
    21     2    20    1
    22    20    21    1
    23    21    22    2
    24    21    23    1
    25    23    24    1
    26    24    25    1
    27    25    26    2
    28    26    27    1
    29    27    28    2
    30    28    29    1
    31    29    30    2
    32    30    31    1
    33    33    31   ar
    34    31    32   ar
