@<TRIPOS>MOLECULE
1bof_GDP_A_1.pdb
 28 30 0 0 0
SMALL
GASTEIGER

@<TRIPOS>ATOM
      1  PB        38.4430   22.1210   36.1520 P.3   355  GDP355      0.5373
      2  O1B       38.8300   21.6740   37.5120 O.3   355  GDP355     -0.1143
      3  O2B       37.6180   21.1660   35.3910 O.2   355  GDP355     -0.2221
      4  O3B       37.9520   23.4810   36.0370 O.3   355  GDP355     -0.1143
      5  O3A       39.8450   22.1140   35.2600 O.3   355  GDP355     -0.2261
      6  PA        40.8650   23.2650   34.6050 P.3   355  GDP355      0.2231
      7  O1A       41.3740   24.0070   35.7420 O.3   355  GDP355     -0.4370
      8  O2A       40.2150   24.0120   33.5250 O.2   355  GDP355     -0.5169
      9  O5'       42.0210   22.4140   34.0130 O.3   355  GDP355     -0.3111
     10  C5'       42.9610   21.9060   34.9290 C.3   355  GDP355      0.1813
     11  C4'       44.3940   21.9930   34.4140 C.3   355  GDP355      0.1799
     12  O4'       44.5600   21.1490   33.2500 O.3   355  GDP355     -0.3326
     13  C3'       44.8560   23.4260   34.0430 C.3   355  GDP355      0.2158
     14  O3'       46.2090   23.5430   34.4180 O.3   355  GDP355     -0.2175
     15  C2'       44.7260   23.3780   32.5440 C.3   355  GDP355      0.2310
     16  O2'       45.6010   24.2960   31.9890 O.3   355  GDP355     -0.2158
     17  C1'       45.0480   21.9480   32.1320 C.3   355  GDP355      0.2293
     18  N9        44.3340   21.5270   30.8920 N.pl3 355  GDP355     -0.2354
     19  C8        42.9710   21.5410   30.6010 C.3   355  GDP355      0.2246
     20  N7        42.5900   21.0110   29.4570 N.2   355  GDP355     -0.2322
     21  C5        43.8370   20.5650   28.9490 C.2   355  GDP355      0.2182
     22  C6        44.1390   19.8870   27.7090 C.1   355  GDP355      0.2372
     23  O6        43.3760   19.5030   26.8080 O.2   355  GDP355     -0.2069
     24  N1        45.5140   19.6650   27.5730 N.2   355  GDP355     -0.2485
     25  C2        46.4750   20.0170   28.4920 C.1   355  GDP355      0.2531
     26  N2        47.7360   19.7310   28.2070 N.pl3 355  GDP355     -0.0226
     27  N3        46.1880   20.6170   29.6580 N.2   355  GDP355     -0.3074
     28  C4        44.8690   20.8830   29.8170 C.2   355  GDP355      0.2300
@<TRIPOS>BOND
     1    23    22    2
     2    24    22    2
     3    24    25    2
     4    22    21    1
     5    26    25    1
     6    25    27    2
     7    21    20    2
     8    21    28    1
     9    20    19    1
    10    27    28    2
    11    28    18    1
    12    19    18    1
    13    18    17    1
    14    16    15    1
    15    17    15    1
    16    17    12    1
    17    15    13    1
    18    12    11    1
    19     8     6    2
    20     9     6    1
    21     9    10    1
    22    13    11    1
    23    13    14    1
    24    11    10    1
    25     6     5    1
    26     6     7    1
    27     5     1    1
    28     3     1    2
    29     4     1    1
    30     1     2    1
