@<TRIPOS>MOLECULE
1boo_SAH_A_1.pdb
 26 28 0 0 0
SMALL
GASTEIGER

@<TRIPOS>ATOM
      1  N         -7.0780   40.7260   46.6270 N.3   401  SAH401     -0.1208
      2  CA        -7.5040   39.3970   46.3670 C.3   401  SAH401      0.1952
      3  CB        -7.9290   39.1960   44.9080 C.3   401  SAH401      0.0422
      4  CG        -9.4280   39.3810   44.6830 C.3   401  SAH401      0.0597
      5  SD        -9.8250   39.4170   42.9000 S.3   401  SAH401     -0.1375
      6  C         -6.4590   38.3660   46.7370 C.2   401  SAH401      0.3819
      7  O         -5.2100   38.7010   46.7670 O.co2 401  SAH401     -0.2441
      8  OXT       -6.7340   37.1890   46.2750 O.co2 401  SAH401     -0.2441
      9  C5'      -11.6150   39.8320   42.9730 C.3   401  SAH401      0.0899
     10  C4'      -12.3190   38.8070   43.6550 C.3   401  SAH401      0.1630
     11  O4'      -13.7190   39.2130   43.7530 O.3   401  SAH401     -0.3153
     12  C3'      -12.4890   37.5660   42.7810 C.3   401  SAH401      0.2168
     13  O3'      -12.0530   36.3200   43.4490 O.3   401  SAH401     -0.2175
     14  C2'      -14.1070   37.4550   42.6120 C.3   401  SAH401      0.2569
     15  O2'      -14.5450   36.0770   42.5080 O.3   401  SAH401     -0.2130
     16  C1'      -14.6380   38.0690   43.8670 C.3   401  SAH401      0.3185
     17  N9       -16.0240   38.5560   43.6550 N.pl3 401  SAH401     -0.1439
     18  C8       -16.6290   39.0950   42.4980 C.3   401  SAH401      0.3377
     19  N7       -17.8560   39.6300   42.7300 N.2   401  SAH401     -0.2095
     20  C5       -18.0540   39.4220   44.0460 C.2   401  SAH401      0.2526
     21  C6       -19.0800   39.7680   44.7750 C.2   401  SAH401      0.4393
     22  N6       -20.1050   40.4550   44.2810 N.pl3 401  SAH401      0.2180
     23  N1       -19.0270   39.4710   46.0660 N.2   401  SAH401      0.0021
     24  C2       -17.9260   38.8330   46.5710 C.3   401  SAH401      0.5254
     25  N3       -16.8130   38.4200   45.9620 N.2   401  SAH401     -0.0055
     26  C4       -16.9890   38.7790   44.6500 C.2   401  SAH401      0.3518
@<TRIPOS>BOND
     1    18    19    1
     2    18    17    1
     3    15    14    1
     4    14    12    1
     5    14    16    1
     6    19    20    2
     7    12    13    1
     8    12    10    1
     9     5     9    1
    10     5     4    1
    11     9    10    1
    12    17    16    1
    13    17    26    1
    14    10    11    1
    15    11    16    1
    16    20    26    1
    17    20    21    1
    18    22    21    1
    19    26    25    2
    20     4     3    1
    21    21    23    2
    22     3     2    1
    23    25    24    1
    24    23    24    1
    25     8     6   ar
    26     2     1    1
    27     2     6    1
    28     6     7   ar
