@<TRIPOS>MOLECULE
1bos_GAL_A_1.pdb
 11 11 0 0 0
SMALL
GASTEIGER

@<TRIPOS>ATOM
      1  C1        26.7150   69.4730    1.8750 C.3   1191  GAL1191     0.1777
      2  C2        28.2000   69.4820    2.2170 C.3   1191  GAL1191     0.2141
      3  C3        28.8880   68.3880    1.4190 C.3   1191  GAL1191     0.2173
      4  C4        28.2530   67.0340    1.7630 C.3   1191  GAL1191     0.2142
      5  C5        26.7730   67.1220    1.4050 C.3   1191  GAL1191     0.1810
      6  C6        25.9910   65.8660    1.7150 C.3   1191  GAL1191     0.2141
      7  O2        28.7670   70.7420    1.8900 O.3   1191  GAL1191    -0.2176
      8  O3        30.2830   68.3840    1.6870 O.3   1191  GAL1191    -0.2175
      9  O4        28.4120   66.7350    3.1770 O.3   1191  GAL1191    -0.2176
     10  O5        26.1480   68.1840    2.1460 O.3   1191  GAL1191    -0.3481
     11  O6        24.6300   66.0110    1.3310 O.3   1191  GAL1191    -0.2176
@<TRIPOS>BOND
     1    11     6    1
     2     5     6    1
     3     5     4    1
     4     5    10    1
     5     3     8    1
     6     3     4    1
     7     3     2    1
     8     4     9    1
     9     1    10    1
    10     1     2    1
    11     7     2    1
