@<TRIPOS>MOLECULE
1bos_GLA_A_1.pdb
 11 11 0 0 0
SMALL
GASTEIGER

@<TRIPOS>ATOM
      1  C1        28.9050   65.4610    3.5180 C.3   1190  GLA1190     0.1777
      2  C2        28.6760   65.1990    5.0000 C.3   1190  GLA1190     0.2141
      3  C3        29.5960   66.0510    5.8770 C.3   1190  GLA1190     0.2173
      4  C4        31.0490   65.8840    5.4470 C.3   1190  GLA1190     0.2142
      5  C5        31.1620   66.1630    3.9410 C.3   1190  GLA1190     0.1810
      6  C6        32.5520   66.0350    3.3450 C.3   1190  GLA1190     0.2141
      7  O2        27.3310   65.4940    5.3110 O.3   1190  GLA1190    -0.2176
      8  O3        29.4550   65.6900    7.2550 O.3   1190  GLA1190    -0.2175
      9  O4        31.4960   64.5790    5.7590 O.3   1190  GLA1190    -0.2176
     10  O5        30.2840   65.2980    3.2000 O.3   1190  GLA1190    -0.3481
     11  O6        33.0850   64.7370    3.5230 O.3   1190  GLA1190    -0.2176
@<TRIPOS>BOND
     1    10     1    1
     2    10     5    1
     3     6    11    1
     4     6     5    1
     5     1     2    1
     6     5     4    1
     7     2     7    1
     8     2     3    1
     9     4     9    1
    10     4     3    1
    11     3     8    1
