@<TRIPOS>MOLECULE
1boz_PRD_A_1.pdb
 25 27 0 0 0
SMALL
GASTEIGER

@<TRIPOS>ATOM
      1  C4A       28.3280   13.3580   -2.0900 C.2   400  PRD400      0.1240
      2  C8A       29.1900   13.5050   -3.2020 C.1   400  PRD400      0.1050
      3  N1'       28.6640   13.1210   -4.5110 N.2   400  PRD400     -0.2706
      4  N8'       30.4870   13.9860   -3.0940 N.2   400  PRD400     -0.1802
      5  C7B       30.9190   14.3190   -1.8360 C.2   400  PRD400      0.1250
      6  C6B       30.0730   14.1920   -0.6790 C.2   400  PRD400      0.0692
      7  N6'       30.3190   14.4890    0.7310 N.pl3 400  PRD400     -0.3005
      8  C61       29.1460   14.9440    1.4940 C.3   400  PRD400      0.1125
      9  C5B       28.7660   13.7230   -0.8520 C.2   400  PRD400      0.0312
     10  C4B       27.0560   12.8690   -2.3090 C.2   400  PRD400      0.2431
     11  N4'       26.0980   12.6930   -1.3650 N.pl3 400  PRD400     -0.0914
     12  N3'       26.6950   12.5860   -3.5880 N.2   400  PRD400     -0.3061
     13  C2B       27.4450   12.6870   -4.7130 C.1   400  PRD400      0.2517
     14  N2'       27.0400   12.3360   -5.9750 N.pl3 400  PRD400     -0.0226
     15  C7'       31.4960   14.8430    1.2620 C.3   400  PRD400      0.1209
     16  C1'       32.3980   15.9680    0.6960 C.ar  400  PRD400      0.0346
     17  C2'       33.7060   15.6330    0.5400 C.ar  400  PRD400      0.1365
     18  C3'       34.6810   16.5220    0.0410 C.ar  400  PRD400      0.0397
     19  C4'       34.2450   17.8200   -0.2830 C.ar  400  PRD400      0.0400
     20  C5'       32.8800   18.1550   -0.1100 C.ar  400  PRD400      0.1387
     21  C6'       31.9530   17.2990    0.3730 C.ar  400  PRD400      0.0373
     22  O2'       34.1330   14.3060    0.8610 O.3   400  PRD400     -0.4717
     23  C21       35.2990   14.4890    1.7790 C.3   400  PRD400      0.2525
     24  O5'       32.7280   19.5120   -0.4770 O.3   400  PRD400     -0.4714
     25  C51       31.5040   20.0350    0.1270 C.3   400  PRD400      0.2525
@<TRIPOS>BOND
     1    14    13    1
     2    13     3    2
     3    13    12    2
     4     3     2    2
     5    12    10    2
     6     2     4    2
     7     2     1    1
     8     4     5    1
     9    10     1    1
    10    10    11    1
    11     1     9    2
    12     5     6    2
    13     9     6    1
    14     6     7    1
    15    24    20    1
    16    24    25    1
    17    19    20   ar
    18    19    18   ar
    19    20    21   ar
    20    18    17   ar
    21    21    16   ar
    22    17    16   ar
    23    17    22    1
    24    16    15    1
    25     7    15    1
    26     7     8    1
    27    22    23    1
