@<TRIPOS>MOLECULE
1boz_NDP_A_1.pdb
 48 52 0 0 0
SMALL
GASTEIGER

@<TRIPOS>ATOM
      1  PA        26.3220    8.5500    8.9780 P.3   187  NDP187      0.2189
      2  O1A       26.8570    9.5640    8.1730 O.2   187  NDP187     -0.5170
      3  O2A       25.0100    8.2240    8.2990 O.3   187  NDP187     -0.4371
      4  O5B       26.5280    8.6260   10.4070 O.3   187  NDP187     -0.3112
      5  C5B       26.1390    7.5820   11.4490 C.3   187  NDP187      0.1813
      6  C4B       25.5400    8.2940   12.7060 C.3   187  NDP187      0.1820
      7  O4B       24.7190    9.2010   12.2450 O.3   187  NDP187     -0.3136
      8  C3B       24.6570    7.3790   13.5880 C.3   187  NDP187      0.2157
      9  O3B       25.7640    6.6650   14.3810 O.3   187  NDP187     -0.2175
     10  C2B       24.0040    8.5210   14.4050 C.3   187  NDP187      0.2314
     11  O2B       24.6610    9.2180   15.3390 O.3   187  NDP187     -0.2630
     12  C1B       23.5040    9.3570   13.1310 C.3   187  NDP187      0.3158
     13  N9A       22.4660    8.8210   12.3740 N.pl3 187  NDP187     -0.1439
     14  C8A       22.7130    8.1850   11.1800 C.3   187  NDP187      0.3377
     15  N7A       21.5310    7.7500   10.6550 N.2   187  NDP187     -0.2095
     16  C5A       20.5830    8.2090   11.6140 C.2   187  NDP187      0.2526
     17  C6A       19.0600    8.1250   11.7300 C.2   187  NDP187      0.4393
     18  N6A       18.4410    7.4870   10.6630 N.pl3 187  NDP187      0.2180
     19  N1A       18.4630    8.6720   12.8180 N.2   187  NDP187      0.0021
     20  C2A       19.2560    9.2450   13.7180 C.3   187  NDP187      0.5254
     21  N3A       20.5740    9.3720   13.7320 N.2   187  NDP187     -0.0055
     22  C4A       21.1740    8.8160   12.6290 C.2   187  NDP187      0.3518
     23  O3        27.4010    7.3320    8.6600 O.3   187  NDP187     -0.2703
     24  PN        28.0100    6.4120    7.4450 P.3   187  NDP187      0.2189
     25  O1N       28.8050    5.4790    8.2540 O.3   187  NDP187     -0.4371
     26  O2N       27.0210    5.6200    6.7510 O.2   187  NDP187     -0.5170
     27  O5D       29.0800    7.1230    6.5950 O.3   187  NDP187     -0.3112
     28  C5D       29.9510    8.2570    6.3050 C.3   187  NDP187      0.1813
     29  C4D       30.9210    7.5000    5.3270 C.3   187  NDP187      0.1799
     30  O4D       30.3700    7.5080    3.9190 O.3   187  NDP187     -0.3327
     31  C3D       32.2820    8.3380    5.2050 C.3   187  NDP187      0.2158
     32  O3D       32.9500    7.2220    4.6020 O.3   187  NDP187     -0.2175
     33  C2D       31.8170    9.4210    4.2180 C.3   187  NDP187      0.2309
     34  O2D       32.9750    9.9110    3.6070 O.3   187  NDP187     -0.2158
     35  C1D       31.1300    8.5870    3.1630 C.3   187  NDP187      0.2263
     36  N1N       29.9940    9.2280    2.3530 N.pl3 187  NDP187     -0.2787
     37  C2N       29.9750    9.0310    0.9040 C.3   187  NDP187      0.1244
     38  C3N       28.8590    9.6350    0.2560 C.2   187  NDP187      0.0544
     39  C7N       28.8290    9.3950   -1.2690 C.2   187  NDP187      0.2818
     40  O7N       28.1170    9.6970   -2.0160 O.2   187  NDP187     -0.2670
     41  N7N       29.9660    8.5600   -1.9040 N.am  187  NDP187     -0.0839
     42  C4N       27.7340   10.4010    0.9250 C.2   187  NDP187      0.0033
     43  C5N       27.9360   10.4620    2.4140 C.2   187  NDP187      0.0157
     44  C6N       28.9940    9.9170    3.0750 C.2   187  NDP187      0.0633
     45  P2B       24.4730    8.7210   16.9230 P.3   187  NDP187      0.5328
     46  O1X       25.3270    7.6030   17.1620 O.3   187  NDP187     -0.1145
     47  O2X       25.2940    9.8720   17.0240 O.2   187  NDP187     -0.2224
     48  O3X       23.1870    8.7720   17.2940 O.3   187  NDP187     -0.1145
@<TRIPOS>BOND
     1    40    39    2
     2    41    39   am
     3    39    38    1
     4    38    37    1
     5    38    42    2
     6    37    36    1
     7    42    43    1
     8    36    44    1
     9    36    35    1
    10    43    44    2
    11    35    30    1
    12    35    33    1
    13    34    33    1
    14    30    29    1
    15    33    31    1
    16    32    31    1
    17    31    29    1
    18    29    28    1
    19    28    27    1
    20    27    24    1
    21    26    24    2
    22    24    25    1
    23    24    23    1
    24     2     1    2
    25     3     1    1
    26    23     1    1
    27     1     4    1
    28     4     5    1
    29    15    14    1
    30    15    16    2
    31    18    17    1
    32    14    13    1
    33     5     6    1
    34    16    17    1
    35    16    22    1
    36    17    19    2
    37     7     6    1
    38     7    12    1
    39    13    22    1
    40    13    12    1
    41    22    21    2
    42     6     8    1
    43    19    20    1
    44    12    10    1
    45     8     9    1
    46     8    10    1
    47    20    21    1
    48    10    11    1
    49    11    45    1
    50    45    47    2
    51    45    46    1
    52    45    48    1
