@<TRIPOS>MOLECULE
1bp0_UMP_A_1.pdb
 20 21 0 0 0
SMALL
GASTEIGER

@<TRIPOS>ATOM
      1  N1        14.6320   49.3690  -54.0670 N.am  317  UMP317     -0.1790
      2  C2        13.7590   48.3600  -53.6130 C.1   317  UMP317      0.2844
      3  N3        12.9080   48.7720  -52.6010 N.2   317  UMP317     -0.2452
      4  C4        12.8720   50.0530  -52.0340 C.1   317  UMP317      0.2182
      5  C5        13.8180   51.0080  -52.5780 C.2   317  UMP317      0.1242
      6  C6        14.6710   50.5960  -53.5940 C.2   317  UMP317      0.0928
      7  O2        13.6830   47.1930  -54.0040 O.2   317  UMP317     -0.1918
      8  O4        12.0820   50.3120  -51.1310 O.2   317  UMP317     -0.2085
      9  C1'       15.5860   49.1780  -55.1500 C.3   317  UMP317      0.2090
     10  C2'       14.9980   48.8780  -56.5280 C.3   317  UMP317      0.0874
     11  C3'       16.2310   49.0110  -57.4080 C.3   317  UMP317      0.1857
     12  C4'       16.9300   50.3020  -56.9630 C.3   317  UMP317      0.1774
     13  O3'       17.0860   47.8970  -57.0730 O.3   317  UMP317     -0.2203
     14  O4'       16.5220   50.3020  -55.5030 O.3   317  UMP317     -0.3339
     15  C5'       16.3330   51.5210  -57.6790 C.3   317  UMP317      0.1858
     16  O5'       16.7830   51.5820  -59.0900 O.3   317  UMP317     -0.2675
     17  P         15.8340   52.2120  -60.1670 P.3   317  UMP317      0.5327
     18  OP1       14.7850   51.2090  -60.2900 O.3   317  UMP317     -0.1145
     19  OP2       15.2740   53.4900  -59.6740 O.3   317  UMP317     -0.1145
     20  OP3       16.3700   52.4670  -61.5100 O.2   317  UMP317     -0.2224
@<TRIPOS>BOND
     1    20    17    2
     2    18    17    1
     3    17    19    1
     4    17    16    1
     5    16    15    1
     6    15    12    1
     7    11    13    1
     8    11    12    1
     9    11    10    1
    10    12    14    1
    11    10     9    1
    12    14     9    1
    13     9     1    1
    14     1     2   am
    15     1     6    1
    16     7     2    2
    17     2     3    2
    18     6     5    2
    19     3     4    2
    20     5     4    1
    21     4     8    2
