@<TRIPOS>MOLECULE
1bp1_PC1_A_2.pdb
 48 47 0 0 0
SMALL
GASTEIGER

@<TRIPOS>ATOM
      1  O12       89.4010   31.8230   36.9600 O.3   778  PC1778     -0.1145
      2  P         88.6280   32.7390   36.0080 P.3   778  PC1778      0.5327
      3  O14       89.5630   33.8530   35.5110 O.2   778  PC1778     -0.2224
      4  O13       87.4240   33.3420   36.7570 O.3   778  PC1778     -0.1145
      5  O11       88.1250   31.9170   34.8090 O.3   778  PC1778     -0.2662
      6  C1        87.7970   32.7910   33.6860 C.3   778  PC1778      0.2010
      7  C2        86.2740   32.8680   33.5020 C.3   778  PC1778      0.2422
      8  O21       85.6520   33.0650   34.8230 O.3   778  PC1778     -0.4457
      9  C21       84.2820   33.6190   34.7870 C.2   778  PC1778      0.3171
     10  O22       83.6190   33.8570   35.8330 O.2   778  PC1778     -0.2501
     11  C22       83.7040   33.8590   33.3910 C.3   778  PC1778      0.1096
     12  C23       82.3440   33.2150   33.1780 C.3   778  PC1778      0.0116
     13  C24       81.3110   34.2500   32.8030 C.3   778  PC1778      0.0006
     14  C25       80.2310   34.3640   33.8540 C.3   778  PC1778      0.0000
     15  C26       79.0880   33.4000   33.5930 C.3   778  PC1778      0.0000
     16  C27       78.6110   33.4530   32.1550 C.3   778  PC1778      0.0000
     17  C28       77.5930   32.3520   31.8680 C.3   778  PC1778      0.0000
     18  C29       78.2310   31.1530   31.1710 C.3   778  PC1778      0.0000
     19  C2A       78.1540   31.2610   29.6540 C.3   778  PC1778      0.0000
     20  C2B       79.3810   31.9570   29.0990 C.3   778  PC1778      0.0000
     21  C2C       79.3240   32.0820   27.5890 C.3   778  PC1778      0.0000
     22  C2D       78.0640   32.8030   27.1300 C.3   778  PC1778      0.0000
     23  C2E       77.9710   34.2230   27.6840 C.3   778  PC1778      0.0000
     24  C2F       76.5630   34.5460   28.1710 C.3   778  PC1778      0.0000
     25  C2G       75.5230   34.3350   27.0770 C.3   778  PC1778      0.0000
     26  C2H       74.1210   34.1850   27.6620 C.3   778  PC1778      0.0000
     27  C2I       73.1310   33.5040   26.7270 C.3   778  PC1778      0.0000
     28  C3        85.7390   31.5900   32.8300 C.3   778  PC1778      0.2543
     29  O31       86.6150   31.1540   31.7360 O.3   778  PC1778     -0.4444
     30  C31       86.1010   31.5420   30.4120 C.2   778  PC1778      0.3171
     31  O32       86.6920   31.2530   29.3430 O.2   778  PC1778     -0.2501
     32  C32       84.8040   32.3590   30.4410 C.3   778  PC1778      0.1096
     33  C33       83.7000   31.8450   29.5480 C.3   778  PC1778      0.0116
     34  C34       83.8360   32.3800   28.1410 C.3   778  PC1778      0.0006
     35  C35       82.8960   31.6710   27.1840 C.3   778  PC1778      0.0000
     36  C36       82.6130   30.2480   27.6330 C.3   778  PC1778      0.0000
     37  C37       83.5620   29.2500   26.9900 C.3   778  PC1778      0.0000
     38  C38       84.9900   29.4150   27.4800 C.3   778  PC1778      0.0000
     39  C39       85.8600   30.0460   26.4080 C.3   778  PC1778      0.0000
     40  C3A       86.3590   29.0110   25.4110 C.3   778  PC1778      0.0000
     41  C3B       85.2710   28.5980   24.4390 C.3   778  PC1778      0.0000
     42  C3C       85.5740   29.0640   23.0380 C.3   778  PC1778      0.0000
     43  C3D       86.1670   30.4530   23.0440 C.3   778  PC1778      0.0000
     44  C3E       87.6700   30.4110   22.8530 C.3   778  PC1778      0.0000
     45  C3F       88.0680   31.1610   21.5990 C.3   778  PC1778      0.0000
     46  C3G       87.7330   32.6420   21.6930 C.3   778  PC1778      0.0000
     47  C3H       88.8520   33.4920   21.1190 C.3   778  PC1778      0.0000
     48  C3I       90.0940   33.5030   21.9690 C.3   778  PC1778      0.0000
@<TRIPOS>BOND
     1    47    46    1
     2    47    48    1
     3    45    46    1
     4    45    44    1
     5    44    43    1
     6    42    43    1
     7    42    41    1
     8    41    40    1
     9    40    39    1
    10    39    38    1
    11    27    26    1
    12    37    38    1
    13    37    36    1
    14    25    26    1
    15    25    24    1
    16    22    21    1
    17    22    23    1
    18    35    36    1
    19    35    34    1
    20    21    20    1
    21    23    24    1
    22    34    33    1
    23    20    19    1
    24    31    30    2
    25    33    32    1
    26    19    18    1
    27    30    32    1
    28    30    29    1
    29    18    17    1
    30    29    28    1
    31    17    16    1
    32    16    15    1
    33    13    12    1
    34    13    14    1
    35    28     7    1
    36    12    11    1
    37    11     9    1
    38     7     6    1
    39     7     8    1
    40    15    14    1
    41     6     5    1
    42     9     8    1
    43     9    10    2
    44     5     2    1
    45     3     2    2
    46     2     4    1
    47     2     1    1
