@<TRIPOS>MOLECULE
1bp4_ALD_A_1.pdb
 34 34 0 0 0
SMALL
GASTEIGER

@<TRIPOS>ATOM
      1  C9        -6.7070   25.3640  -21.9530 C.2   213  ALD213      0.4218
      2  O31       -7.6460   24.9160  -22.6110 O.2   213  ALD213     -0.2245
      3  O8        -5.4380   25.5410  -22.5380 O.3   213  ALD213     -0.4285
      4  C7        -5.2880   26.2960  -23.7550 C.3   213  ALD213      0.2368
      5  C3        -5.4320   25.7850  -25.1700 C.ar  213  ALD213      0.0213
      6  C4        -4.4580   26.0700  -26.1270 C.ar  213  ALD213     -0.0007
      7  C5        -4.5790   25.6030  -27.4360 C.ar  213  ALD213     -0.0002
      8  C6        -5.6870   24.8440  -27.8000 C.ar  213  ALD213     -0.0000
      9  C1        -6.6710   24.5520  -26.8530 C.ar  213  ALD213     -0.0002
     10  C2        -6.5390   25.0240  -25.5480 C.ar  213  ALD213     -0.0007
     11  N10       -6.8140   25.7100  -20.6680 N.am  213  ALD213     -0.1611
     12  C11       -8.0690   25.5830  -19.9170 C.3   213  ALD213      0.1761
     13  C12       -7.8070   25.9690  -18.4560 C.2   213  ALD213      0.2617
     14  O32       -7.5690   25.1080  -17.6070 O.2   213  ALD213     -0.2715
     15  C30       -8.6030   24.1390  -20.0250 C.3   213  ALD213      0.0312
     16  C31       -9.7290   23.5410  -19.1710 C.3   213  ALD213      0.0022
     17  C32      -10.8580   24.5260  -18.9030 C.3   213  ALD213      0.0001
     18  C33      -10.2630   22.2700  -19.8270 C.3   213  ALD213      0.0001
     19  N13       -7.8200   27.2690  -18.1760 N.am  213  ALD213     -0.1963
     20  C14       -7.5610   27.7620  -16.8220 C.3   213  ALD213      0.1728
     21  C15       -8.1020   29.1750  -16.6290 C.2   213  ALD213      0.2612
     22  O34       -8.5770   29.8050  -17.5810 O.2   213  ALD213     -0.2715
     23  C24       -6.0510   27.7790  -16.5510 C.3   213  ALD213      0.0311
     24  C25       -5.4060   26.6860  -15.6960 C.3   213  ALD213      0.0022
     25  C26       -4.7040   25.6760  -16.5820 C.3   213  ALD213      0.0001
     26  C27       -6.4040   26.0080  -14.7640 C.3   213  ALD213      0.0001
     27  N16       -7.9880   29.6800  -15.4020 N.am  213  ALD213     -0.2031
     28  C17       -8.4260   31.0370  -15.0860 C.3   213  ALD213      0.1282
     29  C22       -7.4600   32.0400  -15.7560 C.3   213  ALD213      0.2036
     30  C18       -8.5280   31.2120  -13.5630 C.3   213  ALD213      0.0244
     31  C19       -9.3710   30.1850  -12.7960 C.3   213  ALD213      0.0018
     32  C20      -10.1350   30.8470  -11.6610 C.3   213  ALD213      0.0001
     33  C21       -8.5120   29.0360  -12.2720 C.3   213  ALD213      0.0001
     34  O33       -6.1150   31.6090  -15.5580 O.3   213  ALD213     -0.2185
@<TRIPOS>BOND
     1     8     7   ar
     2     8     9   ar
     3     7     6   ar
     4     9    10   ar
     5     6     5   ar
     6    10     5   ar
     7     5     4    1
     8     4     3    1
     9     2     1    2
    10     3     1    1
    11     1    11   am
    12    11    12    1
    13    15    12    1
    14    15    16    1
    15    12    13    1
    16    18    16    1
    17    16    17    1
    18    13    19   am
    19    13    14    2
    20    19    20    1
    21    22    21    2
    22    20    21    1
    23    20    23    1
    24    21    27   am
    25    25    24    1
    26    23    24    1
    27    29    34    1
    28    29    28    1
    29    24    26    1
    30    27    28    1
    31    28    30    1
    32    30    31    1
    33    31    33    1
    34    31    32    1
