@<TRIPOS>MOLECULE
1bp6_UMP_A_1.pdb
 20 21 0 0 0
SMALL
GASTEIGER

@<TRIPOS>ATOM
      1  N1        14.2450   49.0350  -53.9160 N.am  318  UMP318     -0.1790
      2  C2        13.5740   47.9490  -53.3020 C.1   318  UMP318      0.2844
      3  N3        12.9030   48.2110  -52.1150 N.2   318  UMP318     -0.2452
      4  C4        12.8460   49.4590  -51.5040 C.1   318  UMP318      0.2182
      5  C5        13.5320   50.5300  -52.2180 C.2   318  UMP318      0.1242
      6  C6        14.2090   50.2650  -53.4160 C.2   318  UMP318      0.0928
      7  O2        13.4800   46.8110  -53.7420 O.2   318  UMP318     -0.1918
      8  O4        12.2940   49.6110  -50.4160 O.2   318  UMP318     -0.2085
      9  C1'       15.2780   48.8690  -54.9730 C.3   318  UMP318      0.2090
     10  C2'       14.8230   48.5730  -56.4020 C.3   318  UMP318      0.0874
     11  C3'       16.1190   48.7520  -57.1820 C.3   318  UMP318      0.1857
     12  C4'       16.7260   50.0700  -56.6980 C.3   318  UMP318      0.1774
     13  O3'       17.0380   47.7010  -56.7970 O.3   318  UMP318     -0.2203
     14  O4'       16.2410   50.0150  -55.2640 O.3   318  UMP318     -0.3339
     15  C5'       16.0980   51.2580  -57.4360 C.3   318  UMP318      0.1858
     16  O5'       16.5540   51.3060  -58.8450 O.3   318  UMP318     -0.2675
     17  P         15.7530   52.1430  -59.9590 P.3   318  UMP318      0.5327
     18  OP1       14.5200   51.4000  -60.1820 O.3   318  UMP318     -0.1145
     19  OP2       15.4290   53.4890  -59.4640 O.3   318  UMP318     -0.1145
     20  OP3       16.4530   52.2900  -61.2770 O.2   318  UMP318     -0.2224
@<TRIPOS>BOND
     1    20    17    2
     2    18    17    1
     3    17    19    1
     4    17    16    1
     5    16    15    1
     6    15    12    1
     7    11    13    1
     8    11    12    1
     9    11    10    1
    10    12    14    1
    11    10     9    1
    12    14     9    1
    13     9     1    1
    14     1     6    1
    15     1     2   am
    16     7     2    2
    17     6     5    2
    18     2     3    2
    19     5     4    1
    20     3     4    2
    21     4     8    2
