@<TRIPOS>MOLECULE
1bpe_DTP_A_1.pdb
 30 32 0 0 0
SMALL
GASTEIGER

@<TRIPOS>ATOM
      1  PG        18.5490   11.8760   35.5070 P.3   338  DTP338      0.5373
      2  O1G       17.2790   11.6750   35.3820 O.3   338  DTP338     -0.1143
      3  O2G       19.0490   12.3780   34.5070 O.2   338  DTP338     -0.2221
      4  O3G       18.9720   10.7850   36.0400 O.3   338  DTP338     -0.1143
      5  PB        19.5830   14.2760   36.5890 P.3   338  DTP338      0.2277
      6  O1B       20.4970   14.5610   38.0040 O.3   338  DTP338     -0.4368
      7  O2B       20.6240   13.9050   35.5930 O.2   338  DTP338     -0.5168
      8  O3B       18.9640   12.9100   36.6150 O.3   338  DTP338     -0.2258
      9  PA        19.0300   15.5340   34.7270 P.3   338  DTP338      0.2189
     10  O1A       19.7410   15.0130   34.0710 O.2   338  DTP338     -0.5170
     11  O2A       19.0370   17.1340   34.4090 O.3   338  DTP338     -0.4371
     12  O3A       18.9000   15.2030   36.2140 O.3   338  DTP338     -0.2700
     13  O5'       17.6920   15.0330   34.4660 O.3   338  DTP338     -0.3112
     14  C5'       17.3670   13.6960   34.8020 C.3   338  DTP338      0.1813
     15  C4'       15.8610   13.5060   34.5350 C.3   338  DTP338      0.1795
     16  O4'       15.2000   14.8090   34.5370 O.3   338  DTP338     -0.3155
     17  C3'       15.3770   12.7980   33.1380 C.3   338  DTP338      0.1883
     18  O3'       15.3650   11.3040   33.1160 O.3   338  DTP338     -0.2202
     19  C2'       13.9720   13.4270   32.9280 C.3   338  DTP338      0.1151
     20  C1'       14.1700   14.8620   33.5200 C.3   338  DTP338      0.2873
     21  N9        14.6060   15.7890   32.5150 N.pl3 338  DTP338     -0.1460
     22  C8        15.8810   16.2250   32.2970 C.3   338  DTP338      0.3377
     23  N7        15.9700   17.0590   31.2960 N.2   338  DTP338     -0.2095
     24  C5        14.6640   17.1750   30.8280 C.2   338  DTP338      0.2526
     25  C6        14.1010   17.9200   29.7790 C.2   338  DTP338      0.4393
     26  N6        14.8210   18.7250   28.9800 N.pl3 338  DTP338      0.2180
     27  N1        12.7680   17.8110   29.5820 N.2   338  DTP338      0.0021
     28  C2        12.0590   17.0090   30.3860 C.3   338  DTP338      0.5254
     29  N3        12.4820   16.2640   31.4010 N.2   338  DTP338     -0.0055
     30  C4        13.8070   16.3950   31.5700 C.2   338  DTP338      0.3518
@<TRIPOS>BOND
     1    26    25    1
     2    27    25    2
     3    27    28    1
     4    25    24    1
     5    28    29    1
     6    24    23    2
     7    24    30    1
     8    23    22    1
     9    29    30    2
    10    30    21    1
    11    22    21    1
    12    21    20    1
    13    19    17    1
    14    19    20    1
    15    18    17    1
    16    17    15    1
    17    20    16    1
    18    10     9    2
    19    11     9    1
    20    13     9    1
    21    13    14    1
    22     3     1    2
    23    15    16    1
    24    15    14    1
    25     9    12    1
    26     2     1    1
    27     1     4    1
    28     1     8    1
    29     7     5    2
    30    12     5    1
    31     5     8    1
    32     5     6    1
