@<TRIPOS>MOLECULE
1bpj_UMP_A_1.pdb
 20 21 0 0 0
SMALL
GASTEIGER

@<TRIPOS>ATOM
      1  N1        14.7270   48.8390  -53.9090 N.am  318  UMP318     -0.1790
      2  C2        13.6910   47.8980  -53.7020 C.1   318  UMP318      0.2844
      3  N3        13.0440   48.0090  -52.4700 N.2   318  UMP318     -0.2452
      4  C4        13.3490   48.9560  -51.4780 C.1   318  UMP318      0.2182
      5  C5        14.4280   49.8550  -51.8050 C.2   318  UMP318      0.1242
      6  C6        15.0700   49.7440  -53.0290 C.2   318  UMP318      0.0928
      7  O2        13.3490   47.0180  -54.4910 O.2   318  UMP318     -0.1918
      8  O4        12.7390   49.0420  -50.4110 O.2   318  UMP318     -0.2085
      9  C1'       15.6350   48.8930  -55.0700 C.3   318  UMP318      0.2090
     10  C2'       15.0800   48.7560  -56.4880 C.3   318  UMP318      0.0874
     11  C3'       16.3580   48.9420  -57.2870 C.3   318  UMP318      0.1857
     12  C4'       17.0590   50.1670  -56.6950 C.3   318  UMP318      0.1774
     13  O3'       17.1820   47.8030  -56.9970 O.3   318  UMP318     -0.2203
     14  O4'       16.5110   50.0980  -55.2990 O.3   318  UMP318     -0.3339
     15  C5'       16.5700   51.4560  -57.3560 C.3   318  UMP318      0.1858
     16  O5'       16.9870   51.5140  -58.7650 O.3   318  UMP318     -0.2675
     17  P         16.0320   50.9290  -59.9550 P.3   318  UMP318      0.5327
     18  OP1       16.0890   51.8450  -61.1160 O.2   318  UMP318     -0.2224
     19  OP2       16.4620   49.5660  -60.4120 O.3   318  UMP318     -0.1145
     20  OP3       14.6310   50.8890  -59.4770 O.3   318  UMP318     -0.1145
@<TRIPOS>BOND
     1    18    17    2
     2    19    17    1
     3    17    20    1
     4    17    16    1
     5    16    15    1
     6    15    12    1
     7    11    13    1
     8    11    12    1
     9    11    10    1
    10    12    14    1
    11    10     9    1
    12    14     9    1
    13     9     1    1
    14     7     2    2
    15     1     2   am
    16     1     6    1
    17     2     3    2
    18     6     5    2
    19     3     4    2
    20     5     4    1
    21     4     8    2
