@<TRIPOS>MOLECULE
1bpw_NAD_A_1.pdb
 44 48 0 0 0
SMALL
GASTEIGER

@<TRIPOS>ATOM
      1  PA       -35.2530   -8.0990   -0.7340 P.3   504  NAD504      0.2189
      2  O1A      -35.3760   -6.7540   -1.4350 O.2   504  NAD504     -0.5170
      3  O2A      -36.5280   -8.8050   -0.2040 O.3   504  NAD504     -0.4371
      4  O5B      -34.1130   -7.9360    0.5240 O.3   504  NAD504     -0.3112
      5  C5B      -33.6800   -9.0900    1.2720 C.3   504  NAD504      0.1813
      6  C4B      -33.2470   -8.6790    2.7050 C.3   504  NAD504      0.1821
      7  O4B      -33.4830   -7.2160    2.9590 O.3   504  NAD504     -0.3135
      8  C3B      -34.0500   -9.3970    3.6710 C.3   504  NAD504      0.2184
      9  O3B      -33.2780   -9.7390    4.8730 O.3   504  NAD504     -0.2174
     10  C2B      -35.1830   -8.4360    3.9900 C.3   504  NAD504      0.2570
     11  O2B      -35.8150   -8.7430    5.1980 O.3   504  NAD504     -0.2130
     12  C1B      -34.5370   -7.1450    4.0020 C.3   504  NAD504      0.3186
     13  N9A      -35.4690   -6.0580    3.7490 N.pl3 504  NAD504     -0.1439
     14  C8A      -36.5890   -6.0670    2.8920 C.3   504  NAD504      0.3377
     15  N7A      -37.1770   -4.7980    2.9500 N.2   504  NAD504     -0.2095
     16  C5A      -36.4170   -4.1270    3.7990 C.2   504  NAD504      0.2526
     17  C6A      -36.6950   -2.8040    4.1100 C.2   504  NAD504      0.4393
     18  N6A      -37.7350   -2.1540    3.5630 N.pl3 504  NAD504      0.2180
     19  N1A      -35.8440   -2.1780    5.0080 N.2   504  NAD504      0.0021
     20  C2A      -34.7620   -2.8960    5.5490 C.3   504  NAD504      0.5254
     21  N3A      -34.5410   -4.2300    5.1900 N.2   504  NAD504     -0.0055
     22  C4A      -35.3930   -4.8360    4.2970 C.2   504  NAD504      0.3518
     23  O3       -34.5050   -9.1310   -1.7170 O.3   504  NAD504     -0.2703
     24  PN       -34.5500  -10.7840   -1.7920 P.3   504  NAD504      0.2189
     25  O1N      -36.0420  -11.1930   -1.5110 O.2   504  NAD504     -0.5170
     26  O2N      -33.3810  -11.3860   -0.8780 O.3   504  NAD504     -0.4371
     27  O5D      -34.1280  -11.0970   -3.5000 O.3   504  NAD504     -0.3112
     28  C5D      -32.7350  -11.6010   -3.8560 C.3   504  NAD504      0.1813
     29  C4D      -31.8420  -10.4160   -4.2540 C.3   504  NAD504      0.1799
     30  O4D      -30.4900  -10.4470   -3.4990 O.3   504  NAD504     -0.3327
     31  C3D      -31.5060  -10.4470   -5.7480 C.3   504  NAD504      0.2158
     32  O3D      -31.8970   -9.1620   -6.4340 O.3   504  NAD504     -0.2175
     33  C2D      -29.9180  -10.6910   -5.8020 C.3   504  NAD504      0.2309
     34  O2D      -29.2350  -10.1390   -7.0090 O.3   504  NAD504     -0.2158
     35  C1D      -29.4140  -10.0740   -4.5280 C.3   504  NAD504      0.2263
     36  N1N      -27.9930  -10.5420   -4.1330 N.pl3 504  NAD504     -0.2787
     37  C2N      -26.8240   -9.6110   -4.2670 C.3   504  NAD504      0.1244
     38  C3N      -25.4960  -10.0470   -3.8620 C.2   504  NAD504      0.0544
     39  C7N      -24.2160   -9.0640   -3.9870 C.2   504  NAD504      0.2818
     40  O7N      -23.1710   -9.2850   -3.3030 O.2   504  NAD504     -0.2670
     41  N7N      -24.3440   -7.9850   -4.8730 N.am  504  NAD504     -0.0839
     42  C4N      -25.3160  -11.3970   -3.3260 C.2   504  NAD504      0.0033
     43  C5N      -26.4720  -12.3160   -3.1950 C.2   504  NAD504      0.0157
     44  C6N      -27.7960  -11.8880   -3.5980 C.2   504  NAD504      0.0633
@<TRIPOS>BOND
     1    34    33    1
     2    32    31    1
     3    33    31    1
     4    33    35    1
     5    31    29    1
     6    41    39   am
     7    35    36    1
     8    35    30    1
     9    37    36    1
    10    37    38    1
    11    29    28    1
    12    29    30    1
    13    36    44    1
    14    39    38    1
    15    39    40    2
    16    38    42    2
    17    28    27    1
    18    44    43    2
    19    27    24    1
    20    42    43    1
    21    24    23    1
    22    24    25    2
    23    24    26    1
    24    23     1    1
    25     2     1    2
    26     1     3    1
    27     1     4    1
    28     4     5    1
    29     5     6    1
    30     6     7    1
    31     6     8    1
    32    14    15    1
    33    14    13    1
    34    15    16    2
    35     7    12    1
    36    18    17    1
    37     8    10    1
    38     8     9    1
    39    13    12    1
    40    13    22    1
    41    16    17    1
    42    16    22    1
    43    10    12    1
    44    10    11    1
    45    17    19    2
    46    22    21    2
    47    19    20    1
    48    21    20    1
