@<TRIPOS>MOLECULE
1bpy_DCT_A_1.pdb
 27 28 0 0 0
SMALL
GASTEIGER

@<TRIPOS>ATOM
      1  N1         7.1620    7.7040   10.2340 N.am  338  DCT338     -0.1803
      2  C2         7.9820    8.1320    9.2730 C.1   338  DCT338      0.2756
      3  N3         9.2940    8.1400    9.4240 N.2   338  DCT338     -0.3024
      4  C4         9.8250    7.6800   10.5440 C.2   338  DCT338      0.2346
      5  C5         9.0170    7.1570   11.5710 C.2   338  DCT338      0.0687
      6  C6         7.7000    7.1660   11.3560 C.2   338  DCT338      0.0835
      7  O2         7.4980    8.5620    8.2100 O.2   338  DCT338     -0.1925
      8  N4        11.1500    7.6970   10.6510 N.pl3 338  DCT338     -0.0921
      9  C1'        5.8150    7.5590    9.9880 C.3   338  DCT338      0.2063
     10  C2'        5.4420    6.0980    9.7550 C.3   338  DCT338      0.0545
     11  C3'        3.9830    6.0750   10.0910 C.3   338  DCT338      0.0366
     12  C4'        3.8530    7.1490   11.2020 C.3   338  DCT338      0.1472
     13  O4'        5.0530    7.9760   11.0220 O.3   338  DCT338     -0.3366
     14  C5'        3.7470    6.5840   12.6170 C.3   338  DCT338      0.1785
     15  O5'        5.0640    6.2920   13.1410 O.3   338  DCT338     -0.3113
     16  PA         5.3340    5.2760   14.3920 P.3   338  DCT338      0.2189
     17  O1A        4.1830    5.3280   15.4120 O.3   338  DCT338     -0.4371
     18  O2A        6.6880    5.4400   14.7990 O.2   338  DCT338     -0.5170
     19  O3A        5.3600    3.8410   13.6660 O.3   338  DCT338     -0.2700
     20  PB         4.2720    2.7420   13.4180 P.3   338  DCT338      0.2277
     21  O1B        4.4150    2.1800   11.9670 O.2   338  DCT338     -0.5168
     22  O2B        2.9370    3.2900   13.8290 O.3   338  DCT338     -0.4368
     23  O3B        4.8070    1.6930   14.4100 O.3   338  DCT338     -0.2258
     24  PG         4.4770    1.4880   15.9550 P.3   338  DCT338      0.5373
     25  O1G        3.9540    2.7770   16.4340 O.3   338  DCT338     -0.1143
     26  O2G        3.6020    0.3010   16.0840 O.2   338  DCT338     -0.2221
     27  O3G        5.9650    1.2420   16.3830 O.3   338  DCT338     -0.1143
@<TRIPOS>BOND
     1     7     2    2
     2     2     3    2
     3     2     1   am
     4     3     4    2
     5    10     9    1
     6    10    11    1
     7     9     1    1
     8     9    13    1
     9    11    12    1
    10     1     6    1
    11     4     8    1
    12     4     5    1
    13    13    12    1
    14    12    14    1
    15     6     5    2
    16    21    20    2
    17    14    15    1
    18    15    16    1
    19    20    19    1
    20    20    22    1
    21    20    23    1
    22    19    16    1
    23    16    18    2
    24    16    17    1
    25    23    24    1
    26    24    26    2
    27    24    27    1
    28    24    25    1
