@<TRIPOS>MOLECULE
1bq1_CB3_A_1.pdb
 39 41 0 0 0
SMALL
GASTEIGER

@<TRIPOS>ATOM
      1  N1        13.1210   19.0400   30.8660 N.2   566  CB3566     -0.3313
      2  C2        12.7760   19.7260   31.9770 C.1   566  CB3566      0.2065
      3  NA2       11.8210   20.6510   31.9300 N.pl3 566  CB3566     -0.2829
      4  N3        13.3880   19.4720   33.1510 N.2   566  CB3566     -0.2531
      5  C4        14.3130   18.4900   33.2770 C.1   566  CB3566      0.2178
      6  O4        14.9730   18.2730   34.4820 O.2   566  CB3566     -0.2085
      7  C4A       14.6160   17.7000   32.1550 C.2   566  CB3566      0.1217
      8  C5        15.4820   16.6050   32.2470 C.2   566  CB3566      0.0121
      9  C6        15.7930   15.8490   31.1050 C.2   566  CB3566     -0.0054
     10  C7        15.2480   16.2180   29.8670 C.2   566  CB3566     -0.0212
     11  C8        14.3650   17.3050   29.7680 C.3   566  CB3566      0.0865
     12  C8A       14.0260   18.0380   30.9190 C.2   566  CB3566      0.1388
     13  C9        16.5270   14.5610   31.1640 C.3   566  CB3566      0.1182
     14  N10       16.8470   14.0120   32.5120 N.pl3 566  CB3566     -0.2925
     15  C11       14.0000   13.3820   35.5100 C.ar  566  CB3566      0.0535
     16  C12       13.7020   13.1230   34.1610 C.ar  566  CB3566      0.0058
     17  C13       14.6610   13.3070   33.1670 C.ar  566  CB3566      0.0147
     18  C14       15.9420   13.7640   33.5020 C.ar  566  CB3566      0.0488
     19  C15       16.2520   13.9950   34.8520 C.ar  566  CB3566      0.0147
     20  C16       15.2930   13.8080   35.8500 C.ar  566  CB3566      0.0058
     21  C         12.9390   13.2010   36.5120 C.2   566  CB3566      0.2464
     22  O         11.7850   12.8880   36.1870 O.2   566  CB3566     -0.2701
     23  N         13.2230   13.3000   37.8270 N.am  566  CB3566     -0.2897
     24  CA        12.8610   12.2490   38.8120 C.3   566  CB3566      0.1990
     25  CB        13.7210   11.0120   38.4710 C.2   566  CB3566      0.0113
     26  CG        13.2960    9.6120   38.9670 C.2   566  CB3566      0.0838
     27  CD        14.2230    8.4560   38.5610 C.2   566  CB3566      0.3877
     28  OE1       13.8270    7.2870   38.6350 O.co2 566  CB3566     -0.2406
     29  OE2       15.3810    8.6750   38.1950 O.co2 566  CB3566     -0.2406
     30  CT        13.1220   12.7670   40.2410 C.2   566  CB3566      0.3865
     31  O1        13.5970   13.8890   40.4100 O.co2 566  CB3566     -0.2434
     32  O2        12.8440   12.0700   41.2100 O.co2 566  CB3566     -0.2434
     33  CP1       18.2860   13.7520   32.6760 C.3   566  CB3566      0.1684
     34  CP2       18.9440   14.9150   33.2550 C.1   566  CB3566     -0.0728
     35  CP3       19.3410   15.9150   33.7800 C.1   566  CB3566     -0.1168
     36 HN21       12.0110   21.2710   31.1130 H     566  CB3566      0.1556
     37 HN22       10.8950   20.1910   31.8350 H     566  CB3566      0.1556
     38  HN        13.5150   14.1540   38.2200 H     566  CB3566      0.1505
     39  HP3       19.6160   16.7860   34.2870 H     566  CB3566      0.1229
@<TRIPOS>BOND
     1    11    10    1
     2    11    12    1
     3    10     9    2
     4     1    12    2
     5     1     2    2
     6    12     7    1
     7     9    13    1
     8     9     8    1
     9    36     3    1
    10    13    14    1
    11    37     3    1
    12     3     2    1
    13     2     4    2
    14     7     8    2
    15     7     5    1
    16    14    33    1
    17    14    18    1
    18    33    34    1
    19     4     5    2
    20    17    18   ar
    21    17    16   ar
    22    34    35    3
    23     5     6    2
    24    18    19   ar
    25    35    39    1
    26    16    15   ar
    27    19    20   ar
    28    15    20   ar
    29    15    21    1
    30    22    21    2
    31    21    23   am
    32    23    38    1
    33    23    24    1
    34    29    27   ar
    35    25    24    1
    36    25    26    2
    37    27    28   ar
    38    27    26    1
    39    24    30    1
    40    30    31   ar
    41    30    32   ar
