@<TRIPOS>MOLECULE
1bq1_UMP_A_1.pdb
 21 22 0 0 0
SMALL
GASTEIGER

@<TRIPOS>ATOM
      1  N1        17.3340   20.7560   31.0190 N.am  565  UMP565     -0.2411
      2  C2        18.0670   20.5390   32.1970 C.2   565  UMP565      0.3113
      3  N3        18.9090   19.4400   32.2140 N.am  565  UMP565     -0.2394
      4  C4        19.1060   18.5560   31.1620 C.2   565  UMP565      0.2310
      5  C5        18.3460   18.8070   29.8700 C.3   565  UMP565      0.1071
      6  C6        17.7420   20.2250   29.6820 C.3   565  UMP565      0.1067
      7  O2        18.0670   21.3210   33.1590 O.2   565  UMP565     -0.2521
      8  O4        19.9230   17.6280   31.2410 O.2   565  UMP565     -0.2746
      9  C1'       16.0510   21.5010   31.0620 C.3   565  UMP565      0.1980
     10  C2'       16.2600   22.9320   30.6110 C.3   565  UMP565      0.0865
     11  C3'       14.8790   23.4330   30.2360 C.3   565  UMP565      0.1857
     12  C4'       14.4540   22.2080   29.4100 C.3   565  UMP565      0.1774
     13  O3'       14.0980   23.5810   31.4420 O.3   565  UMP565     -0.2203
     14  O4'       14.9650   21.0690   30.1780 O.3   565  UMP565     -0.3347
     15  C5'       15.0930   22.1070   27.9930 C.3   565  UMP565      0.1858
     16  O5'       14.4340   22.9770   27.0040 O.3   565  UMP565     -0.2675
     17  P         15.0190   24.3320   26.3830 P.3   565  UMP565      0.5327
     18  OP1       13.9340   25.2780   26.0200 O.3   565  UMP565     -0.1145
     19  OP2       15.9130   24.9790   27.3610 O.3   565  UMP565     -0.1145
     20  OP3       15.7630   24.0690   25.1450 O.2   565  UMP565     -0.2224
     21  HN3       19.3230   19.2170   33.0780 H     565  UMP565      0.1591
@<TRIPOS>BOND
     1    20    17    2
     2    18    17    1
     3    17    16    1
     4    17    19    1
     5    16    15    1
     6    15    12    1
     7    12    14    1
     8    12    11    1
     9     6     5    1
    10     6     1    1
    11     5     4    1
    12    14     9    1
    13    11    10    1
    14    11    13    1
    15    10     9    1
    16     1     9    1
    17     1     2   am
    18     4     8    2
    19     4     3   am
    20     2     3   am
    21     2     7    2
    22     3    21    1
