@<TRIPOS>MOLECULE
1bq3_IHP_A_1.pdb
 36 36 0 0 0
SMALL
GASTEIGER

@<TRIPOS>ATOM
      1  C1         3.1040   -7.7600   35.5130 C.3   360  IHP360      0.1863
      2  C2         2.3770   -9.0290   36.0690 C.3   360  IHP360      0.1863
      3  C3         2.7370  -10.3700   35.3130 C.3   360  IHP360      0.1863
      4  C4         4.2000  -10.4360   34.7930 C.3   360  IHP360      0.1863
      5  C5         4.6900   -9.1890   34.1280 C.3   360  IHP360      0.1863
      6  C6         4.5690   -7.9990   35.0960 C.3   360  IHP360      0.1863
      7  O11        3.1200   -6.7690   36.5380 O.3   360  IHP360     -0.2675
      8  P1         2.3960   -5.3460   36.3450 P.3   360  IHP360      0.5327
      9  O21        3.0130   -4.7900   35.1170 O.2   360  IHP360     -0.2224
     10  O31        0.9700   -5.6950   36.1910 O.3   360  IHP360     -0.1145
     11  O41        2.7240   -4.6170   37.5970 O.3   360  IHP360     -0.1145
     12  O12        2.5140   -9.1300   37.4910 O.3   360  IHP360     -0.2675
     13  P2         1.2770   -8.8470   38.5040 P.3   360  IHP360      0.5327
     14  O22        0.3560   -9.9810   38.2730 O.3   360  IHP360     -0.1145
     15  O32        0.7380   -7.5340   38.0870 O.2   360  IHP360     -0.2224
     16  O42        1.9160   -8.8390   39.8440 O.3   360  IHP360     -0.1145
     17  O13        2.4730  -11.4870   36.1620 O.3   360  IHP360     -0.2675
     18  P3         1.2760  -12.5100   35.8220 P.3   360  IHP360      0.5327
     19  O23        1.7340  -13.7820   36.4270 O.3   360  IHP360     -0.1145
     20  O33        1.2090  -12.5140   34.3370 O.2   360  IHP360     -0.2224
     21  O43        0.0960  -11.9110   36.4850 O.3   360  IHP360     -0.1145
     22  O14        5.1370  -11.0880   35.6570 O.3   360  IHP360     -0.2675
     23  P4         5.8470  -12.5000   35.2780 P.3   360  IHP360      0.5327
     24  O24        5.0110  -13.5250   35.9470 O.3   360  IHP360     -0.1145
     25  O34        5.8070  -12.5660   33.8000 O.2   360  IHP360     -0.2224
     26  O44        7.2060  -12.3670   35.8480 O.3   360  IHP360     -0.1145
     27  O15        6.0630   -9.3830   33.7740 O.3   360  IHP360     -0.2675
     28  P5         6.5170   -9.5570   32.2300 P.3   360  IHP360      0.5327
     29  O25        7.9940   -9.6760   32.3120 O.3   360  IHP360     -0.1145
     30  O35        5.8220  -10.7830   31.7720 O.3   360  IHP360     -0.1145
     31  O45        6.0320   -8.3180   31.5790 O.2   360  IHP360     -0.2224
     32  O16        4.9250   -6.8220   34.3740 O.3   360  IHP360     -0.2675
     33  P6         6.2860   -6.0020   34.6320 P.3   360  IHP360      0.5327
     34  O26        7.2500   -6.5930   33.6690 O.2   360  IHP360     -0.2224
     35  O36        6.6150   -6.2620   36.0530 O.3   360  IHP360     -0.1145
     36  O46        5.9000   -4.6020   34.3400 O.3   360  IHP360     -0.1145
@<TRIPOS>BOND
     1    31    28    2
     2    30    28    1
     3    28    29    1
     4    28    27    1
     5    34    33    2
     6    27     5    1
     7    25    23    2
     8     5     4    1
     9     5     6    1
    10    20    18    2
    11    36    33    1
    12    32    33    1
    13    32     6    1
    14    33    35    1
    15     4     3    1
    16     4    22    1
    17     6     1    1
    18     9     8    2
    19    23    22    1
    20    23    26    1
    21    23    24    1
    22     3     2    1
    23     3    17    1
    24     1     2    1
    25     1     7    1
    26    18    17    1
    27    18    19    1
    28    18    21    1
    29     2    12    1
    30    10     8    1
    31     8     7    1
    32     8    11    1
    33    12    13    1
    34    15    13    2
    35    14    13    1
    36    13    16    1
