@<TRIPOS>MOLECULE
1bq4_BHC_A_1.pdb
 24 24 0 0 0
SMALL
GASTEIGER

@<TRIPOS>ATOM
      1  C1         7.4980   -8.7070   35.1560 C.ar  302  BHC302      0.0929
      2  CO1        8.3880   -7.4520   35.1630 C.2   302  BHC302      0.3882
      3  O11        9.4010   -7.3650   36.0210 O.co2 302  BHC302     -0.2405
      4  O12        8.0940   -6.5670   34.3240 O.co2 302  BHC302     -0.2405
      5  C2         6.1150   -8.6400   35.4940 C.ar  302  BHC302      0.0929
      6  CO2        5.4950   -7.3190   36.0410 C.2   302  BHC302      0.3882
      7  O21        5.2800   -7.2060   37.2810 O.co2 302  BHC302     -0.2405
      8  O22        5.2170   -6.4340   35.2020 O.co2 302  BHC302     -0.2405
      9  C3         5.3040   -9.7700   35.3410 C.ar  302  BHC302      0.0929
     10  CO3        3.8120   -9.6980   35.6980 C.2   302  BHC302      0.3882
     11  O31        3.4460   -9.8780   36.9620 O.co2 302  BHC302     -0.2405
     12  O32        3.0170   -9.4470   34.7510 O.co2 302  BHC302     -0.2405
     13  C4         5.8550  -10.9840   34.8810 C.ar  302  BHC302      0.0929
     14  CO4        4.9580  -12.1930   34.6050 C.2   302  BHC302      0.3882
     15  O41        4.4710  -12.8520   35.5740 O.co2 302  BHC302     -0.2405
     16  O42        4.7660  -12.4710   33.3940 O.co2 302  BHC302     -0.2405
     17  C5         7.2230  -11.0660   34.5680 C.ar  302  BHC302      0.0929
     18  CO5        7.8160  -12.4220   34.1270 C.2   302  BHC302      0.3882
     19  O51        7.6280  -13.4640   34.9040 O.co2 302  BHC302     -0.2405
     20  O52        8.4600  -12.4840   33.0510 O.co2 302  BHC302     -0.2405
     21  C6         8.0440   -9.9170   34.7060 C.ar  302  BHC302      0.0929
     22  CO6        9.5640   -9.9800   34.4050 C.2   302  BHC302      0.3882
     23  O61       10.3440   -9.9660   35.3890 O.co2 302  BHC302     -0.2405
     24  O62        9.9280   -9.4510   33.3390 O.co2 302  BHC302     -0.2405
@<TRIPOS>BOND
     1    20    18   ar
     2    24    22   ar
     3    16    14   ar
     4    18    17    1
     5    18    19   ar
     6     4     2   ar
     7    22    21    1
     8    22    23   ar
     9    17    21   ar
    10    17    13   ar
    11    14    13    1
    12    14    15   ar
    13    21     1   ar
    14    12    10   ar
    15    13     9   ar
    16     1     2    1
    17     1     5   ar
    18     2     3   ar
    19     8     6   ar
    20     9     5   ar
    21     9    10    1
    22     5     6    1
    23    10    11   ar
    24     6     7   ar
