@<TRIPOS>MOLECULE
1bq6_COA_A_1.pdb
 48 50 0 0 0
SMALL
GASTEIGER

@<TRIPOS>ATOM
      1  N1A        4.9850   51.7160   52.9630 N.2   390  COA390      0.0021
      2  C2A        4.2120   51.0380   52.0620 C.3   390  COA390      0.5254
      3  N3A        4.3150   50.9920   50.7670 N.2   390  COA390     -0.0055
      4  C4A        5.3340   51.8240   50.3680 C.2   390  COA390      0.3518
      5  C5A        6.1880   52.5870   51.1490 C.2   390  COA390      0.2526
      6  C6A        5.9730   52.5780   52.5470 C.2   390  COA390      0.4393
      7  N6A        6.3160   53.6340   53.3310 N.pl3 390  COA390      0.2180
      8  N7A        6.9310   53.4840   50.3730 N.2   390  COA390     -0.2095
      9  C8A        6.5040   53.2090   49.1180 C.3   390  COA390      0.3377
     10  N9A        5.5500   52.2180   49.0460 N.pl3 390  COA390     -0.1439
     11  C1B        4.8880   51.6570   47.9090 C.3   390  COA390      0.3185
     12  C2B        3.4920   51.3320   47.7020 C.3   390  COA390      0.2543
     13  O2B        2.9910   51.9020   48.8490 O.3   390  COA390     -0.2131
     14  C3B        3.3270   51.6790   46.2040 C.3   390  COA390      0.1928
     15  O3B        2.6150   50.5310   45.5180 O.3   390  COA390     -0.2673
     16  P3B        1.0650   50.8360   45.1880 P.3   390  COA390      0.5327
     17  O7A        0.6970   52.2380   45.5150 O.3   390  COA390     -0.1145
     18  O8A        0.8130   50.6020   43.7520 O.2   390  COA390     -0.2224
     19  O9A        0.4140   49.7350   46.1590 O.3   390  COA390     -0.1145
     20  C4B        4.7670   51.7110   45.5000 C.3   390  COA390      0.1795
     21  O4B        5.4660   52.2920   46.7170 O.3   390  COA390     -0.3136
     22  C5B        4.8410   52.7860   44.3810 C.3   390  COA390      0.1812
     23  O5B        3.6570   53.6690   44.3970 O.3   390  COA390     -0.3112
     24  P1A        3.5050   55.0280   43.5790 P.3   390  COA390      0.2189
     25  O1A        2.7850   56.0610   44.3900 O.3   390  COA390     -0.4371
     26  O2A        2.7510   54.7660   42.3090 O.2   390  COA390     -0.5170
     27  O3A        4.9960   55.4940   43.2800 O.3   390  COA390     -0.2703
     28  P2A        6.2120   56.3540   43.8400 P.3   390  COA390      0.2188
     29  O4A        6.0420   56.8320   45.2000 O.3   390  COA390     -0.4371
     30  O5A        6.2920   57.5610   42.9620 O.2   390  COA390     -0.5170
     31  O6A        7.4960   55.6080   43.6670 O.3   390  COA390     -0.3138
     32  CBP        8.9450   54.6490   45.3540 C.3   390  COA390      0.0645
     33  CCP        7.6550   54.4730   44.5070 C.3   390  COA390      0.1519
     34  CDP       10.1400   54.6090   44.3800 C.3   390  COA390      0.0056
     35  CEP        9.1140   53.5470   46.4190 C.3   390  COA390      0.0056
     36  CAP        8.8340   55.9970   46.1040 C.3   390  COA390      0.2312
     37  OAP        7.7730   55.8730   47.0820 O.3   390  COA390     -0.2131
     38  C9P       10.0710   56.2910   46.9890 C.2   390  COA390      0.2719
     39  O9P       11.1140   56.7670   46.4750 O.2   390  COA390     -0.2706
     40  N8P        9.8520   56.1170   48.2960 N.am  390  COA390     -0.2028
     41  C7P       11.1600   56.2660   49.0990 C.3   390  COA390      0.1248
     42  C6P       10.8510   56.6830   50.5180 C.3   390  COA390      0.1102
     43  C5P       11.9700   56.3310   51.4590 C.2   390  COA390      0.2432
     44  O5P       11.5600   56.1470   52.5960 O.2   390  COA390     -0.2733
     45  N4P       13.2220   56.0210   51.1450 N.am  390  COA390     -0.2044
     46  C3P       14.0600   55.8550   52.4280 C.3   390  COA390      0.1276
     47  C2P       14.9190   54.5710   52.4330 C.3   390  COA390      0.0920
     48  S1P       15.7060   54.4530   54.0240 S.3   390  COA390     -0.0802
@<TRIPOS>BOND
     1    26    24    2
     2    30    28    2
     3    27    24    1
     4    27    28    1
     5    24    25    1
     6    24    23    1
     7    31    28    1
     8    31    33    1
     9    18    16    2
    10    28    29    1
    11    34    32    1
    12    22    23    1
    13    22    20    1
    14    33    32    1
    15    16    17    1
    16    16    15    1
    17    16    19    1
    18    32    36    1
    19    32    35    1
    20    20    14    1
    21    20    21    1
    22    15    14    1
    23    36    38    1
    24    36    37    1
    25    14    12    1
    26    39    38    2
    27    21    11    1
    28    38    40   am
    29    12    11    1
    30    12    13    1
    31    11    10    1
    32    40    41    1
    33    10     9    1
    34    10     4    1
    35    41    42    1
    36     9     8    1
    37     4     3    2
    38     4     5    1
    39     8     5    2
    40    42    43    1
    41     3     2    1
    42    45    43   am
    43    45    46    1
    44     5     6    1
    45    43    44    2
    46     2     1    1
    47    46    47    1
    48    47    48    1
    49     6     1    2
    50     6     7    1
