@<TRIPOS>MOLECULE
1bqi_SBA_A_1.pdb
 29 29 0 0 0
SMALL
GASTEIGER

@<TRIPOS>ATOM
      1  C5        -3.9870   24.8120  -29.7590 C.ar  300  SBA300     -0.0002
      2  C6        -4.2120   25.5550  -28.6020 C.ar  300  SBA300     -0.0007
      3  C1        -5.0640   25.0870  -27.6010 C.ar  300  SBA300      0.0213
      4  C2        -5.6930   23.8550  -27.7760 C.ar  300  SBA300     -0.0007
      5  C3        -5.4750   23.0980  -28.9330 C.ar  300  SBA300     -0.0002
      6  C4        -4.6160   23.5820  -29.9310 C.ar  300  SBA300     -0.0000
      7  C7        -5.2930   25.8950  -26.3540 C.3   300  SBA300      0.2368
      8  O8        -6.5470   25.7730  -25.6940 O.3   300  SBA300     -0.4285
      9  C9        -6.6710   24.8030  -24.7000 C.2   300  SBA300      0.4218
     10  O27       -6.7290   23.5840  -24.9110 O.2   300  SBA300     -0.2245
     11  N10       -6.7100   25.3450  -23.4830 N.am  300  SBA300     -0.1611
     12  C11       -6.8330   24.5370  -22.2720 C.3   300  SBA300      0.1761
     13  C12       -7.9120   25.1120  -21.3510 C.2   300  SBA300      0.2617
     14  N13       -7.9830   24.6230  -20.1120 N.am  300  SBA300     -0.1981
     15  C14       -8.9760   25.0560  -19.1150 C.3   300  SBA300      0.1549
     16  C15      -10.2770   24.2260  -19.1770 C.2   300  SBA300      0.1999
     17  C23       -9.3030   26.5540  -19.2530 C.3   300  SBA300      0.0293
     18  C24       -9.1360   27.4840  -18.0510 C.3   300  SBA300      0.0021
     19  C25      -10.4560   28.2320  -17.7850 C.3   300  SBA300      0.0001
     20  C26       -7.9960   28.4660  -18.2980 C.3   300  SBA300      0.0001
     21  C19       -5.4840   24.4330  -21.5420 C.3   300  SBA300      0.0312
     22  C20       -4.5390   25.6300  -21.3330 C.3   300  SBA300      0.0022
     23  C21       -5.1170   26.7420  -20.4490 C.3   300  SBA300      0.0001
     24  C22       -3.9270   26.1700  -22.6320 C.3   300  SBA300      0.0001
     25  O28       -8.6700   25.9790  -21.7730 O.2   300  SBA300     -0.2715
     26  O29      -11.2720   24.5750  -18.5340 O.2   300  SBA300     -0.2916
     27  C16      -10.1270   22.7580  -19.5650 C.3   300  SBA300      0.2079
     28  O17       -9.3040   22.4140  -20.6910 O.3   300  SBA300     -0.3432
     29  C18       -8.6100   21.1350  -20.7000 C.3   300  SBA300      0.1747
@<TRIPOS>BOND
     1     6     1   ar
     2     6     5   ar
     3     1     2   ar
     4     5     4   ar
     5     2     3   ar
     6     4     3   ar
     7     3     7    1
     8     7     8    1
     9     8     9    1
    10    10     9    2
    11     9    11   am
    12    11    12    1
    13    24    22    1
    14    12    21    1
    15    12    13    1
    16    25    13    2
    17    21    22    1
    18    13    14   am
    19    22    23    1
    20    29    28    1
    21    28    27    1
    22    14    15    1
    23    27    16    1
    24    17    15    1
    25    17    18    1
    26    16    15    1
    27    16    26    2
    28    20    18    1
    29    18    19    1
