@<TRIPOS>MOLECULE
1bqm_HBY_A_1.pdb
 22 23 0 0 0
SMALL
GASTEIGER

@<TRIPOS>ATOM
      1  C1       143.3080  -26.7940   71.7780 C.3   557  HBY557      0.1759
      2  C2       142.2270  -27.6930   70.8790 C.1   557  HBY557      0.0354
      3  C3       141.9390  -29.2540   72.8390 C.2   557  HBY557      0.1414
      4  C4       143.0130  -28.5030   73.6420 C.3   557  HBY557      0.1578
      5  C5       143.6540  -29.1090   74.7660 C.2   557  HBY557      0.0375
      6  C6       143.3430  -30.4270   75.1680 C.2   557  HBY557      0.1366
      7  C7       142.1390  -31.1500   74.5210 C.2   557  HBY557      0.0390
      8  C8       141.3980  -30.4820   73.3910 C.2   557  HBY557      0.0336
      9  C9       144.0780  -26.0980   74.2440 C.2   557  HBY557      0.4060
     10  C10      144.0830  -25.6040   76.7710 C.3   557  HBY557      0.1707
     11  C12      145.2930  -24.8540   77.3910 C.3   557  HBY557      0.0474
     12  C11      142.9760  -24.6160   76.2600 C.3   557  HBY557      0.0474
     13  C13      144.7870  -26.7570   71.1570 C.3   557  HBY557      0.0929
     14  C14      147.3120  -27.9380   70.9790 C.3   557  HBY557      0.0693
     15  C15      143.8060  -32.2590   77.0390 C.3   557  HBY557      0.2525
     16  N1       143.3390  -27.1230   73.3180 N.am  557  HBY557     -0.2252
     17  N2       141.4890  -28.7400   71.5500 N.2   557  HBY557     -0.3664
     18  O1       144.3020  -24.8810   73.8050 O.2   557  HBY557     -0.2262
     19  O2       144.4690  -26.5310   75.5540 O.3   557  HBY557     -0.4383
     20  O3       144.2650  -31.0640   76.2330 O.2   557  HBY557     -0.4717
     21  S1       141.9050  -27.1290   69.1770 S.2   557  HBY557      0.0209
     22  S2       145.9590  -27.7730   72.2290 S.3   557  HBY557     -0.1364
@<TRIPOS>BOND
     1    21     2    2
     2     2    17    2
     3     2     1    1
     4    14    22    1
     5    13     1    1
     6    13    22    1
     7    17     3    2
     8     1    16    1
     9     3     8    1
    10     3     4    1
    11    16     4    1
    12    16     9   am
    13     8     7    2
    14     4     5    1
    15    18     9    2
    16     9    19    1
    17     7     6    1
    18     5     6    2
    19     6    20    1
    20    19    10    1
    21    20    15    1
    22    12    10    1
    23    10    11    1
