@<TRIPOS>MOLECULE
1bqn_HBY_A_1.pdb
 22 23 0 0 0
SMALL
GASTEIGER

@<TRIPOS>ATOM
      1  C1       143.9560  -27.3820   72.1070 C.3   559  HBY559      0.1795
      2  C2       142.5410  -27.8860   71.4070 C.1   559  HBY559      0.0361
      3  C3       142.3180  -29.5460   73.2470 C.2   559  HBY559      0.1545
      4  C4       143.4460  -28.9490   74.0060 C.2   559  HBY559      0.0866
      5  C5       143.9620  -29.6270   75.1350 C.2   559  HBY559      0.0250
      6  C6       143.3740  -30.8700   75.5670 C.3   559  HBY559      0.1608
      7  C7       142.2430  -31.4130   74.8510 C.2   559  HBY559      0.0101
      8  C8       141.7250  -30.7420   73.6910 C.2   559  HBY559      0.0324
      9  C9       145.0120  -26.8940   74.4610 C.2   559  HBY559      0.4094
     10  C10      144.6230  -25.9730   76.8710 C.3   559  HBY559      0.1707
     11  C12      145.6770  -24.8610   76.8150 C.3   559  HBY559      0.0474
     12  C11      143.2270  -25.4470   76.5330 C.3   559  HBY559      0.0474
     13  C13      145.2460  -27.9690   71.4050 C.3   559  HBY559      0.0932
     14  C14      147.8000  -29.1520   71.6900 C.3   559  HBY559      0.0693
     15  C15      143.3650  -32.9040   77.1590 C.3   559  HBY559      0.1749
     16  N1       144.0030  -27.6550   73.6310 N.am  559  HBY559     -0.2104
     17  N2       141.8150  -28.9190   72.0630 N.2   559  HBY559     -0.3628
     18  O1       145.8580  -26.1200   73.8770 O.2   559  HBY559     -0.2258
     19  O2       144.9670  -27.1170   75.8890 O.3   559  HBY559     -0.4381
     20  O3       143.9250  -31.5960   76.7300 O.3   559  HBY559     -0.3447
     21  S1       142.0210  -27.1610   69.8910 S.2   559  HBY559      0.0210
     22  S2       146.5300  -28.4160   72.7410 S.3   559  HBY559     -0.1364
@<TRIPOS>BOND
     1    21     2    2
     2    13     1    1
     3    13    22    1
     4     2    17    2
     5     2     1    1
     6    14    22    1
     7    17     3    2
     8     1    16    1
     9     3     8    1
    10     3     4    1
    11    16     4    1
    12    16     9   am
    13     8     7    2
    14    18     9    2
    15     4     5    2
    16     9    19    1
    17     7     6    1
    18     5     6    1
    19     6    20    1
    20    19    10    1
    21    12    10    1
    22    20    15    1
    23    11    10    1
