@<TRIPOS>MOLECULE
1bqo_N25_B_1.pdb
 34 36 0 0 0
SMALL
GASTEIGER

@<TRIPOS>ATOM
      1  C1         3.3340   48.5830   54.3740 C.ar  401  N25401      0.1225
      2  C2         3.7130   49.4900   55.4530 C.ar  401  N25401      0.0230
      3  C3         3.2370   49.1770   56.7950 C.ar  401  N25401      0.0383
      4  C4         2.4180   47.9900   57.0030 C.ar  401  N25401      0.1388
      5  C5         2.0140   47.1210   55.9120 C.ar  401  N25401      0.0383
      6  C6         2.4780   47.4190   54.5640 C.ar  401  N25401      0.0230
      7  O7         2.0120   47.5280   58.1940 O.3   401  N25401     -0.4714
      8  C8         2.5440   48.0860   59.2890 C.3   401  N25401      0.2525
      9  N9         3.5020   50.0930   51.9530 N.3   401  N25401     -0.1345
     10  S10        4.0650   48.6710   52.7060 S.O2  401  N25401      0.0648
     11  O11        5.5090   48.7260   52.7520 O.2   401  N25401     -0.1527
     12  O12        3.7150   47.6060   51.8130 O.2   401  N25401     -0.1527
     13  C13        2.1570   50.3200   51.4250 C.3   401  N25401      0.2031
     14  N14        2.1750   50.9270   50.0930 N.3   401  N25401     -0.1345
     15  C15        2.6570   52.3080   50.2790 C.3   401  N25401      0.0991
     16  C16        3.9350   52.3800   51.0890 C.3   401  N25401      0.0330
     17  C17        3.9910   51.4430   52.2790 C.3   401  N25401      0.0991
     18  C18        3.9490   53.8060   51.5880 C.3   401  N25401      0.0029
     19  C19        5.1420   52.0030   50.2370 C.3   401  N25401      0.0029
     20  S20        0.8660   50.6730   49.0300 S.O2  401  N25401      0.0648
     21  O21        0.6910   49.2620   48.7570 O.2   401  N25401     -0.1527
     22  O22        1.1610   51.4860   47.8860 O.2   401  N25401     -0.1527
     23  C23        0.8890   50.1660   52.2680 C.2   401  N25401      0.1204
     24  N25        0.2950   48.9820   52.3440 N.am  401  N25401     -0.2001
     25  C27       -0.7000   51.3100   49.6620 C.ar  401  N25401      0.1225
     26  C28       -1.6180   50.2390   50.0370 C.ar  401  N25401      0.0230
     27  C29       -2.9690   50.6320   50.3930 C.ar  401  N25401      0.0383
     28  C30       -3.2890   52.0490   50.3410 C.ar  401  N25401      0.1388
     29  C31       -2.3560   53.1080   49.9980 C.ar  401  N25401      0.0383
     30  C32       -0.9980   52.7370   49.6400 C.ar  401  N25401      0.0230
     31  O33       -4.5680   52.3730   50.5330 O.3   401  N25401     -0.4714
     32  C34       -5.2220   52.1800   49.3750 C.3   401  N25401      0.2525
     33  O24        0.3980   51.1110   52.8920 O.2   401  N25401     -0.5372
     34  O26       -0.9690   49.1610   52.9340 O.3   401  N25401     -0.4026
@<TRIPOS>BOND
     1    22    20    2
     2    21    20    2
     3    20    25    1
     4    20    14    1
     5    32    31    1
     6    30    25   ar
     7    30    29   ar
     8    25    26   ar
     9    29    28   ar
    10    26    27   ar
    11    14    15    1
    12    14    13    1
    13    19    16    1
    14    15    16    1
    15    28    27   ar
    16    28    31    1
    17    16    18    1
    18    16    17    1
    19    13     9    1
    20    13    23    1
    21    12    10    2
    22     9    17    1
    23     9    10    1
    24    23    24   am
    25    23    33    2
    26    24    34    1
    27    10    11    2
    28    10     1    1
    29     1     6   ar
    30     1     2   ar
    31     6     5   ar
    32     2     3   ar
    33     5     4   ar
    34     3     4   ar
    35     4     7    1
    36     7     8    1
