@<TRIPOS>MOLECULE
1bqp_MAN_B_1.pdb
 12 12 0 0 0
SMALL
GASTEIGER

@<TRIPOS>ATOM
      1  C1        27.9200    2.9400   34.8740 C.3   401  MAN401      0.3024
      2  C2        27.6520    4.1910   34.0440 C.3   401  MAN401      0.2434
      3  C3        26.6920    5.1250   34.7750 C.3   401  MAN401      0.2199
      4  C4        25.4390    4.3680   35.2100 C.3   401  MAN401      0.2144
      5  C5        25.8000    3.0840   35.9610 C.3   401  MAN401      0.1836
      6  C6        24.5790    2.2300   36.2510 C.3   401  MAN401      0.2142
      7  O1        28.6900    2.0680   34.1280 O.3   401  MAN401     -0.1869
      8  O2        27.0940    3.8180   32.7920 O.3   401  MAN401     -0.2148
      9  O3        26.3150    6.1820   33.9030 O.3   401  MAN401     -0.2174
     10  O4        24.6550    5.2050   36.0450 O.3   401  MAN401     -0.2176
     11  O5        26.6880    2.2770   35.1660 O.3   401  MAN401     -0.3236
     12  O6        24.0890    1.6170   35.0650 O.3   401  MAN401     -0.2176
@<TRIPOS>BOND
     1     8     2    1
     2     9     3    1
     3     2     3    1
     4     2     1    1
     5     7     1    1
     6     3     4    1
     7     1    11    1
     8    12     6    1
     9    11     5    1
    10     4     5    1
    11     4    10    1
    12     5     6    1
