@<TRIPOS>MOLECULE
1bqy_0GJ_A_1.pdb
 25 24 0 0 0
SMALL
GASTEIGER

@<TRIPOS>ATOM
      1  N         23.8050   45.4950   51.8440 N.3     1  0GJ1       -0.1230
      2  CA        22.9360   45.6240   53.0490 C.3     1  0GJ1        0.1702
      3  C         23.2490   44.4690   53.9890 C.2     1  0GJ1        0.2632
      4  O         24.0640   43.6110   53.6500 O.2     1  0GJ1       -0.2714
      5  CB        21.4610   45.5770   52.6460 C.3     1  0GJ1        0.0402
      6  CG        20.5280   46.1960   53.6750 C.3     1  0GJ1        0.1161
      7  CD        19.5340   45.2200   54.2800 C.2     1  0GJ1        0.3649
      8  OE1       19.9260   44.0860   54.6150 O.co2   1  0GJ1       -0.2457
      9  OE2       18.3530   45.5960   54.4320 O.co2   1  0GJ1       -0.2457
     10  N1        22.6040   44.4390   55.1520 N.am    1  0GJ1       -0.1718
     11  CA1       22.8510   43.3570   56.1000 C.2     1  0GJ1        0.1480
     12  C1        21.8750   43.2270   57.2720 C.2     1  0GJ1        0.2817
     13  O1        21.9600   44.0050   58.2250 O.2     1  0GJ1       -0.2669
     14  N2        20.9900   42.2250   57.2420 N.am    1  0GJ1       -0.1997
     15  CA2       19.9940   41.9970   58.3160 C.3     1  0GJ1        0.1260
     16  C2        20.1850   40.8980   59.6370 C.3     1  0GJ1        0.1719
     17  O2        19.5500   41.3330   60.9000 O.3     1  0GJ1       -0.2213
     18  CB1       18.6210   41.6550   57.7030 C.3     1  0GJ1        0.0280
     19  CG1       18.0420   42.7580   56.8520 C.3     1  0GJ1        0.0488
     20  CD1       16.9070   42.2630   55.9870 C.3     1  0GJ1        0.2205
     21  NE        16.3450   43.3460   55.1820 N.pl3   1  0GJ1       -0.0865
     22  CZ        15.3410   43.1920   54.3170 C.cat   1  0GJ1        0.5346
     23  NH1       14.7860   41.9920   54.1410 N.pl3   1  0GJ1        0.1354
     24  NH2       14.8830   44.2400   53.6290 N.pl3   1  0GJ1        0.1354
     25  C3        21.6350   40.6420   60.1160 C.3     1  0GJ1        0.0373
@<TRIPOS>BOND
     1     1     2    1
     2     5     2    1
     3     5     6    1
     4     2     3    1
     5    24    22    1
     6     4     3    2
     7     6     7    1
     8     3    10    1
     9    23    22    1
    10     7     9   ar
    11     7     8   ar
    12    22    21    2
    13    10    11    2
    14    21    20    1
    15    20    19    1
    16    11    12    1
    17    19    18    1
    18    14    12   am
    19    14    15    1
    20    12    13    2
    21    18    15    1
    22    15    16    1
    23    16    25    1
    24    16    17    1
