@<TRIPOS>MOLECULE
1br1_ADP_A_1.pdb
 27 29 0 0 0
SMALL
GASTEIGER

@<TRIPOS>ATOM
      1  PB        -0.4960   -4.8970    5.2110 P.3   998  ADP998      0.5373
      2  O1B        0.6290   -3.8990    5.2600 O.3   998  ADP998     -0.1143
      3  O2B       -1.5760   -4.3880    4.3070 O.2   998  ADP998     -0.2221
      4  O3B       -0.0340   -6.2460    4.7390 O.3   998  ADP998     -0.1143
      5  PA        -2.3890   -5.4700    7.3920 P.3   998  ADP998      0.2231
      6  O1A       -3.3890   -4.3580    7.2390 O.3   998  ADP998     -0.4370
      7  O2A       -2.9070   -6.7220    6.7520 O.2   998  ADP998     -0.5169
      8  O3A       -0.9990   -5.0640    6.7180 O.3   998  ADP998     -0.2261
      9  O5'       -2.1880   -5.7800    8.9350 O.3   998  ADP998     -0.3111
     10  C5'       -2.2360   -7.1910    9.2160 C.3   998  ADP998      0.1813
     11  C4'       -2.7880   -7.5660   10.5810 C.3   998  ADP998      0.1821
     12  O4'       -2.4650   -6.5720   11.6010 O.3   998  ADP998     -0.3135
     13  C3'       -4.2760   -7.8280   10.6180 C.3   998  ADP998      0.2184
     14  O3'       -4.5470   -9.1840   10.2080 O.3   998  ADP998     -0.2174
     15  C2'       -4.6480   -7.3670   12.0540 C.3   998  ADP998      0.2570
     16  O2'       -4.7350   -8.4250   13.0320 O.3   998  ADP998     -0.2130
     17  C1'       -3.5620   -6.3460   12.4060 C.3   998  ADP998      0.3186
     18  N9        -3.9730   -4.9410   12.2770 N.pl3 998  ADP998     -0.1439
     19  C8        -3.2880   -3.9100   11.7270 C.3   998  ADP998      0.3377
     20  N7        -3.6650   -2.7050   12.1960 N.2   998  ADP998     -0.2095
     21  C5        -4.7590   -2.9950   13.0010 C.2   998  ADP998      0.2526
     22  C6        -5.6420   -2.1510   13.7280 C.2   998  ADP998      0.4393
     23  N6        -5.5580   -0.8160   13.7670 N.pl3 998  ADP998      0.2180
     24  N1        -6.6240   -2.7790   14.4330 N.2   998  ADP998      0.0021
     25  C2        -6.6960   -4.1460   14.3950 C.3   998  ADP998      0.5254
     26  N3        -5.9340   -4.9980   13.7680 N.2   998  ADP998     -0.0055
     27  C4        -5.0020   -4.3580   13.0150 C.2   998  ADP998      0.3518
@<TRIPOS>BOND
     1     3     1    2
     2     4     1    1
     3     1     2    1
     4     1     8    1
     5     8     5    1
     6     7     5    2
     7     6     5    1
     8     5     9    1
     9     9    10    1
    10    10    11    1
    11    14    13    1
    12    11    13    1
    13    11    12    1
    14    13    15    1
    15    12    17    1
    16    19    20    1
    17    19    18    1
    18    15    17    1
    19    15    16    1
    20    20    21    2
    21    18    17    1
    22    18    27    1
    23    21    27    1
    24    21    22    1
    25    27    26    2
    26    22    23    1
    27    22    24    2
    28    26    25    1
    29    25    24    1
