@<TRIPOS>MOLECULE
1br2_ADP_A_1.pdb
 27 29 0 0 0
SMALL
GASTEIGER

@<TRIPOS>ATOM
      1  PB        37.4790   52.8120    2.3240 P.3   998  ADP998      0.5373
      2  O1B       37.1620   53.0110    3.7820 O.3   998  ADP998     -0.1143
      3  O2B       38.1770   51.5000    2.1380 O.3   998  ADP998     -0.1143
      4  O3B       36.2450   52.8550    1.4660 O.2   998  ADP998     -0.2221
      5  PA        39.5150   54.2800    0.7820 P.3   998  ADP998      0.2231
      6  O1A       40.7730   53.5370    1.1400 O.3   998  ADP998     -0.4370
      7  O2A       38.9980   53.8090   -0.5450 O.2   998  ADP998     -0.5169
      8  O3A       38.3970   54.0480    1.9010 O.3   998  ADP998     -0.2261
      9  O5'       39.8440   55.8230    0.6360 O.3   998  ADP998     -0.3111
     10  C5'       39.2750   56.3900   -0.5580 C.3   998  ADP998      0.1813
     11  C4'       40.0640   57.5290   -1.1800 C.3   998  ADP998      0.1821
     12  O4'       40.7530   58.3380   -0.1780 O.3   998  ADP998     -0.3135
     13  C3'       41.0670   57.1130   -2.2320 C.3   998  ADP998      0.2184
     14  O3'       40.4050   56.9610   -3.5080 O.3   998  ADP998     -0.2174
     15  C2'       42.1770   58.1840   -2.0640 C.3   998  ADP998      0.2570
     16  O2'       42.1080   59.2880   -2.9890 O.3   998  ADP998     -0.2130
     17  C1'       42.0300   58.6410   -0.6100 C.3   998  ADP998      0.3186
     18  N9        43.0050   58.0550    0.3210 N.pl3 998  ADP998     -0.1439
     19  C8        42.7870   57.5510    1.5610 C.3   998  ADP998      0.3377
     20  N7        43.8840   57.5710    2.3460 N.2   998  ADP998     -0.2095
     21  C5        44.8910   57.9930    1.4910 C.2   998  ADP998      0.2526
     22  C6        46.2890   58.1540    1.6910 C.2   998  ADP998      0.4393
     23  N6        46.9260   57.9090    2.8410 N.pl3 998  ADP998      0.2180
     24  N1        46.9990   58.6030    0.6180 N.2   998  ADP998      0.0021
     25  C2        46.3380   58.8620   -0.5530 C.3   998  ADP998      0.5254
     26  N3        45.0670   58.7510   -0.8290 N.2   998  ADP998     -0.0055
     27  C4        44.3830   58.2370    0.2250 C.2   998  ADP998      0.3518
@<TRIPOS>BOND
     1    14    13    1
     2    16    15    1
     3    13    15    1
     4    13    11    1
     5    15    17    1
     6    11    10    1
     7    11    12    1
     8    26    25    1
     9    26    27    2
    10    17    12    1
    11    17    18    1
    12    10     9    1
    13    25    24    1
    14     7     5    2
    15    27    18    1
    16    27    21    1
    17    18    19    1
    18    24    22    2
    19     9     5    1
    20     5     6    1
    21     5     8    1
    22     4     1    2
    23    21    22    1
    24    21    20    2
    25    19    20    1
    26    22    23    1
    27     8     1    1
    28     3     1    1
    29     1     2    1
