@<TRIPOS>MOLECULE
1br4_ADP_A_1.pdb
 27 29 0 0 0
SMALL
GASTEIGER

@<TRIPOS>ATOM
      1  PB        -0.5390   -4.1390    5.6660 P.3   998  ADP998      0.5373
      2  O1B        0.2660   -2.9260    5.9590 O.3   998  ADP998     -0.1143
      3  O2B       -1.6850   -3.8740    4.7110 O.2   998  ADP998     -0.2221
      4  O3B        0.3550   -5.2640    5.0980 O.3   998  ADP998     -0.1143
      5  PA        -2.6610   -4.9510    7.5570 P.3   998  ADP998      0.2231
      6  O1A       -3.5390   -3.7620    7.4550 O.3   998  ADP998     -0.4370
      7  O2A       -3.2400   -6.0690    6.7570 O.2   998  ADP998     -0.5169
      8  O3A       -1.1880   -4.6600    7.1160 O.3   998  ADP998     -0.2261
      9  O5'       -2.4480   -5.4270    9.1270 O.3   998  ADP998     -0.3111
     10  C5'       -1.8350   -6.7040    9.4450 C.3   998  ADP998      0.1813
     11  C4'       -2.6370   -7.2650   10.5840 C.3   998  ADP998      0.1821
     12  O4'       -2.3580   -6.4240   11.7390 O.3   998  ADP998     -0.3135
     13  C3'       -4.1280   -7.0810   10.3830 C.3   998  ADP998      0.2184
     14  O3'       -4.7730   -8.1760    9.7080 O.3   998  ADP998     -0.2174
     15  C2'       -4.6250   -6.8660   11.7810 C.3   998  ADP998      0.2570
     16  O2'       -4.5960   -8.0850   12.5280 O.3   998  ADP998     -0.2130
     17  C1'       -3.5410   -6.0100   12.3150 C.3   998  ADP998      0.3186
     18  N9        -3.7450   -4.5770   12.3430 N.pl3 998  ADP998     -0.1439
     19  C8        -3.1270   -3.5860   11.6600 C.3   998  ADP998      0.3377
     20  N7        -3.5970   -2.3710   11.9570 N.2   998  ADP998     -0.2095
     21  C5        -4.5950   -2.6230   12.9100 C.2   998  ADP998      0.2526
     22  C6        -5.4960   -1.7760   13.6480 C.2   998  ADP998      0.4393
     23  N6        -5.6000   -0.4710   13.5980 N.pl3 998  ADP998      0.2180
     24  N1        -6.3780   -2.3480   14.5280 N.2   998  ADP998      0.0021
     25  C2        -6.3480   -3.6980   14.6520 C.3   998  ADP998      0.5254
     26  N3        -5.5570   -4.5970   14.0220 N.2   998  ADP998     -0.0055
     27  C4        -4.6920   -3.9790   13.1520 C.2   998  ADP998      0.3518
@<TRIPOS>BOND
     1     3     1    2
     2     4     1    1
     3     1     2    1
     4     1     8    1
     5     7     5    2
     6     8     5    1
     7     6     5    1
     8     5     9    1
     9     9    10    1
    10    10    11    1
    11    14    13    1
    12    13    11    1
    13    13    15    1
    14    11    12    1
    15    19    20    1
    16    19    18    1
    17    12    17    1
    18    15    17    1
    19    15    16    1
    20    20    21    2
    21    17    18    1
    22    18    27    1
    23    21    27    1
    24    21    22    1
    25    27    26    2
    26    23    22    1
    27    22    24    2
    28    26    25    1
    29    24    25    1
