@<TRIPOS>MOLECULE
1br5_NEO_A_1.pdb
 18 19 0 0 0
SMALL
GASTEIGER

@<TRIPOS>ATOM
      1  N2         1.5530    0.2000    8.7160 N.2   500  NEO500     -0.2466
      2  C1         0.4910    0.6730    8.0140 C.1   500  NEO500      0.2569
      3  C10        0.6880    1.3640    6.8030 C.2   500  NEO500      0.2989
      4  N9        -0.2930    1.8640    5.9930 N.2   500  NEO500     -0.3830
      5  C8         0.0180    2.5660    4.8470 C.2   500  NEO500      0.1467
      6  C7         1.3970    2.7510    4.5250 C.3   500  NEO500      0.1940
      7  N6         2.3650    2.2240    5.3160 N.2   500  NEO500     -0.1992
      8  C5         2.0460    1.5410    6.4300 C.1   500  NEO500      0.1401
      9  N4         3.0470    1.0660    7.1590 N.2   500  NEO500     -0.2672
     10  C3         2.8270    0.3950    8.2910 C.1   500  NEO500      0.2609
     11  N13        3.8670    0.2480    9.1050 N.pl3 500  NEO500     -0.0220
     12  C16       -1.1430    3.1220    3.9790 C.3   500  NEO500      0.2340
     13  O21       -2.4010    2.6330    4.4350 O.3   500  NEO500     -0.2129
     14  C26       -1.2830    4.6450    3.8280 C.3   500  NEO500      0.2214
     15  O22       -2.5800    5.0780    4.3140 O.3   500  NEO500     -0.2171
     16  C28       -1.0770    5.1640    2.3550 C.3   500  NEO500      0.2178
     17  O24       -0.0520    4.4460    1.6220 O.3   500  NEO500     -0.2175
     18  O11       -0.7550    0.6090    8.6080 O.2   500  NEO500     -0.2052
@<TRIPOS>BOND
     1    17    16    1
     2    16    14    1
     3    14    12    1
     4    14    15    1
     5    12    13    1
     6    12     5    1
     7     6     5    1
     8     6     7    1
     9     5     4    2
    10     7     8    2
    11     4     3    2
    12     8     3    1
    13     8     9    2
    14     3     2    1
    15     9    10    2
    16     2    18    2
    17     2     1    2
    18    10     1    2
    19    10    11    1
