@<TRIPOS>MOLECULE
1brd_RET_A_1.pdb
 20 20 0 0 0
SMALL
GASTEIGER

@<TRIPOS>ATOM
      1  C1        18.7100    1.1780   -0.0240 C.3   249  RET249      0.0037
      2  C2        19.3210    2.4210   -1.1020 C.3   249  RET249      0.0003
      3  C3        18.3880    3.4200   -1.4070 C.3   249  RET249      0.0000
      4  C4        17.8370    3.7760    0.0750 C.3   249  RET249      0.0003
      5  C5        18.6970    2.8950    1.3160 C.3   249  RET249      0.0040
      6  C6        18.4070    1.6110    1.5030 C.3   249  RET249      0.0220
      7  C7        18.1600    0.9600    3.0460 C.2   249  RET249     -0.0268
      8  C8        17.8410   -0.3240    3.3260 C.2   249  RET249     -0.0088
      9  C9        17.6020   -0.9890    4.8650 C.2   249  RET249     -0.0222
     10  C10       17.2910   -2.2600    4.9810 C.2   249  RET249     -0.0043
     11  C11       16.9490   -3.4310    6.0690 C.2   249  RET249     -0.0007
     12  C12       16.6670   -4.6730    5.7260 C.2   249  RET249     -0.0046
     13  C13       16.3060   -5.9840    6.6670 C.2   249  RET249     -0.0261
     14  C14       16.0770   -7.1300    6.0910 C.2   249  RET249     -0.0300
     15  C15       15.6950   -8.5220    6.9130 C.3   249  RET249      0.0304
     16  C16       19.4960    0.0080   -0.0220 C.3   249  RET249      0.0003
     17  C17       17.5240    1.0240   -0.7970 C.3   249  RET249      0.0003
     18  C18       19.7460    3.6210    2.2390 C.3   249  RET249      0.0003
     19  C19       17.7260   -0.1500    6.0930 C.3   249  RET249      0.0310
     20  C20       16.2130   -6.0110    8.2140 C.3   249  RET249      0.0307
@<TRIPOS>BOND
     1     3     2    1
     2     3     4    1
     3     2     1    1
     4    17     1    1
     5     1    16    1
     6     1     6    1
     7     4     5    1
     8     5     6    1
     9     5    18    1
    10     6     7    1
    11     7     8    2
    12     8     9    1
    13     9    10    2
    14     9    19    1
    15    10    11    1
    16    12    11    2
    17    12    13    1
    18    14    13    2
    19    14    15    1
    20    13    20    1
