@<TRIPOS>MOLECULE
1brp_RTL_A_1.pdb
 21 21 0 0 0
SMALL
GASTEIGER

@<TRIPOS>ATOM
      1  C1        17.9640   51.1690  -35.8800 C.3   183  RTL183      0.0000
      2  C2        19.4040   51.4900  -35.4680 C.3   183  RTL183      0.0000
      3  C3        19.5150   52.7700  -34.6520 C.3   183  RTL183      0.0000
      4  C4        18.4640   53.7610  -35.1240 C.3   183  RTL183      0.0000
      5  C5        17.0720   53.1910  -34.8920 C.3   183  RTL183      0.0000
      6  C6        16.8260   51.8640  -35.1370 C.3   183  RTL183      0.0000
      7  C7        15.4220   51.4600  -35.0510 C.3   183  RTL183      0.0000
      8  C8        14.5930   52.1270  -35.9250 C.3   183  RTL183      0.0000
      9  C9        13.2190   51.5970  -35.9720 C.3   183  RTL183      0.0000
     10  C10       12.4820   52.2710  -36.9120 C.3   183  RTL183      0.0000
     11  C11       11.0910   51.8110  -36.9740 C.3   183  RTL183      0.0000
     12  C12       10.3710   52.6370  -37.8070 C.3   183  RTL183      0.0001
     13  C13        8.9110   52.4630  -37.7680 C.3   183  RTL183      0.0026
     14  C14        8.3500   53.4960  -38.4770 C.3   183  RTL183      0.0355
     15  C15        7.0200   53.1960  -38.9920 C.3   183  RTL183      0.1821
     16  O1         6.1050   54.0160  -38.3970 O.3   183  RTL183     -0.2204
     17  C16       17.9050   49.9510  -34.9670 C.3   183  RTL183      0.0000
     18  C17       17.8890   50.7280  -37.3240 C.3   183  RTL183      0.0000
     19  C18       16.4060   54.1400  -33.9110 C.3   183  RTL183      0.0000
     20  C19       13.0330   50.3670  -35.0900 C.3   183  RTL183      0.0000
     21  C20        8.5230   51.0540  -38.2010 C.3   183  RTL183      0.0001
@<TRIPOS>BOND
     1    15    14    1
     2    15    16    1
     3    14    13    1
     4    21    13    1
     5    12    13    1
     6    12    11    1
     7    18     1    1
     8    11    10    1
     9    10     9    1
    10     9     8    1
    11     9    20    1
    12     8     7    1
    13     1     2    1
    14     1     6    1
    15     1    17    1
    16     2     3    1
    17     6     7    1
    18     6     5    1
    19     4     5    1
    20     4     3    1
    21     5    19    1
