@<TRIPOS>MOLECULE
1brr_GLC_B_1.pdb
 12 12 0 0 0
SMALL
GASTEIGER

@<TRIPOS>ATOM
      1  C1        10.5910    5.0650    5.0020 C.3   248  GLC248      0.3024
      2  C2         9.1360    4.9670    4.5770 C.3   248  GLC248      0.2434
      3  C3         9.0420    4.4030    3.1700 C.3   248  GLC248      0.2199
      4  C4         9.8840    5.2330    2.2000 C.3   248  GLC248      0.2144
      5  C5        11.3000    5.5170    2.7380 C.3   248  GLC248      0.1836
      6  C6        12.0060    6.6290    1.9680 C.3   248  GLC248      0.2142
      7  O1        11.1660    3.7840    5.0300 O.3   248  GLC248     -0.1869
      8  O2         8.4050    4.1340    5.4920 O.3   248  GLC248     -0.2148
      9  O3         7.6840    4.4200    2.7480 O.3   248  GLC248     -0.2174
     10  O4         9.9870    4.5300    0.9670 O.3   248  GLC248     -0.2176
     11  O5        11.2640    5.9460    4.1210 O.3   248  GLC248     -0.3236
     12  O6        11.5710    6.7090    0.6190 O.3   248  GLC248     -0.2176
@<TRIPOS>BOND
     1    12     6    1
     2    10     4    1
     3     6     5    1
     4     4     5    1
     5     4     3    1
     6     5    11    1
     7     9     3    1
     8     3     2    1
     9    11     1    1
    10     2     1    1
    11     2     8    1
    12     1     7    1
