@<TRIPOS>MOLECULE
1brr_RET_A_1.pdb
 20 20 0 0 0
SMALL
GASTEIGER

@<TRIPOS>ATOM
      1  C1        11.6780   -9.9640   21.2630 C.3   999  RET999      0.0037
      2  C2        11.0820  -10.8270   20.1440 C.3   999  RET999      0.0003
      3  C3        10.2840  -11.9550   20.7750 C.3   999  RET999      0.0000
      4  C4        11.2310  -12.9480   21.4300 C.3   999  RET999      0.0003
      5  C5        12.3510  -12.2430   22.2160 C.3   999  RET999      0.0040
      6  C6        12.4380  -10.8580   22.2880 C.3   999  RET999      0.0220
      7  C7        13.2600  -10.2290   23.3600 C.2   999  RET999     -0.0268
      8  C8        13.1170   -8.8950   23.6310 C.2   999  RET999     -0.0088
      9  C9        13.7580   -8.2300   24.7630 C.2   999  RET999     -0.0222
     10  C10       13.5460   -6.8980   24.9070 C.2   999  RET999     -0.0043
     11  C11       14.2020   -6.0640   25.8740 C.2   999  RET999     -0.0007
     12  C12       13.7340   -4.6930   25.9410 C.2   999  RET999     -0.0046
     13  C13       14.3760   -3.6440   26.6400 C.2   999  RET999     -0.0261
     14  C14       13.9160   -2.5810   26.5240 C.2   999  RET999     -0.0300
     15  C15       14.5930   -1.3520   26.8990 C.3   999  RET999      0.0304
     16  C16       12.6340   -8.9520   20.6270 C.3   999  RET999      0.0003
     17  C17       10.5430   -9.2320   21.9840 C.3   999  RET999      0.0003
     18  C18       13.3840  -13.0960   22.9230 C.3   999  RET999      0.0003
     19  C19       14.6190   -9.0170   25.7530 C.3   999  RET999      0.0310
     20  C20       15.5650   -3.8790   27.4210 C.3   999  RET999      0.0307
@<TRIPOS>BOND
     1     2     3    1
     2     2     1    1
     3    16     1    1
     4     3     4    1
     5     1    17    1
     6     1     6    1
     7     4     5    1
     8     5     6    1
     9     5    18    1
    10     6     7    1
    11     7     8    2
    12     8     9    1
    13     9    10    2
    14     9    19    1
    15    10    11    1
    16    11    12    2
    17    12    13    1
    18    14    13    2
    19    14    15    1
    20    13    20    1
