@<TRIPOS>MOLECULE
1brr_ARC_A_1.pdb
 21 20 0 0 0
SMALL
GASTEIGER

@<TRIPOS>ATOM
      1  O1        32.0440  -15.3120   26.2020 O.3   1000  ARC1000    -0.2204
      2  C1        31.1130  -16.3000   26.5850 C.3   1000  ARC1000     0.1821
      3  C2        31.2640  -17.5020   25.7010 C.3   1000  ARC1000     0.0355
      4  C3        32.6660  -18.1250   25.7110 C.3   1000  ARC1000     0.0026
      5  C4        32.9870  -18.6800   27.0970 C.3   1000  ARC1000     0.0001
      6  C5        32.7340  -19.2400   24.6580 C.3   1000  ARC1000     0.0001
      7  C6        32.6770  -18.7430   23.2150 C.3   1000  ARC1000     0.0000
      8  C7        31.6770  -19.5390   22.3630 C.3   1000  ARC1000     0.0000
      9  C8        30.2660  -18.9320   22.2770 C.3   1000  ARC1000     0.0000
     10  C9        29.5390  -18.9370   23.6230 C.3   1000  ARC1000     0.0000
     11  C10       30.3700  -17.5050   21.7180 C.3   1000  ARC1000     0.0000
     12  C11       29.0610  -16.7190   21.6690 C.3   1000  ARC1000     0.0000
     13  C12       28.0760  -17.2340   20.6300 C.3   1000  ARC1000     0.0000
     14  C13       26.6130  -17.0040   21.0220 C.3   1000  ARC1000     0.0000
     15  C14       26.2990  -15.5270   20.9950 C.3   1000  ARC1000     0.0000
     16  C15       25.6700  -17.7470   20.0690 C.3   1000  ARC1000     0.0000
     17  C16       24.1950  -17.7260   20.4670 C.3   1000  ARC1000     0.0000
     18  C17       23.3720  -18.5710   19.4910 C.3   1000  ARC1000     0.0000
     19  C18       21.8680  -18.6790   19.7950 C.3   1000  ARC1000     0.0000
     20  C19       21.1580  -19.3880   18.6380 C.3   1000  ARC1000     0.0000
     21  C20       21.6380  -19.4600   21.0930 C.3   1000  ARC1000     0.0000
@<TRIPOS>BOND
     1    20    19    1
     2    18    19    1
     3    18    17    1
     4    19    21    1
     5    16    17    1
     6    16    14    1
     7    13    14    1
     8    13    12    1
     9    15    14    1
    10    12    11    1
    11    11     9    1
    12     9     8    1
    13     9    10    1
    14     8     7    1
    15     7     6    1
    16     6     4    1
    17     3     4    1
    18     3     2    1
    19     4     5    1
    20     1     2    1
