@<TRIPOS>MOLECULE
1brr_MAN_B_1.pdb
 11 11 0 0 0
SMALL
GASTEIGER

@<TRIPOS>ATOM
      1  C1         7.6230    4.8530    6.3910 C.3   249  MAN249      0.1777
      2  C2         6.7810    3.8910    7.2390 C.3   249  MAN249      0.2141
      3  C3         5.7190    3.2100    6.3620 C.3   249  MAN249      0.2173
      4  C4         4.9120    4.2710    5.5960 C.3   249  MAN249      0.2142
      5  C5         5.8690    5.1530    4.8070 C.3   249  MAN249      0.1810
      6  C6         5.1720    6.2560    4.0360 C.3   249  MAN249      0.2141
      7  O2         6.1650    4.6020    8.3060 O.3   249  MAN249     -0.2176
      8  O3         4.8600    2.4060    7.1620 O.3   249  MAN249     -0.2175
      9  O4         3.9940    3.6540    4.7090 O.3   249  MAN249     -0.2176
     10  O5         6.7910    5.7730    5.7150 O.3   249  MAN249     -0.3481
     11  O6         4.1760    6.8780    4.8740 O.3   249  MAN249     -0.2176
@<TRIPOS>BOND
     1     6     5    1
     2     6    11    1
     3     9     4    1
     4     5     4    1
     5     5    10    1
     6     4     3    1
     7    10     1    1
     8     3     8    1
     9     3     2    1
    10     1     2    1
    11     2     7    1
