@<TRIPOS>MOLECULE
1bru_1NB_P_1.pdb
 12 12 0 0 0
SMALL
GASTEIGER

@<TRIPOS>ATOM
      1  C7        23.5430   47.9970   16.6050 C.3     1  1NB1        0.0717
      2  C8        22.8040   47.5530   17.8830 C.3     1  1NB1        0.0381
      3  C9        21.3080   47.3860   17.6760 C.3     1  1NB1        0.0031
      4  C17       23.6990   49.6120   14.6400 C.2     1  1NB1       -0.0257
      5  O5        25.7380   47.5950   15.9410 O.2     1  1NB1       -0.2883
      6  O4        24.0510   46.3550   19.7160 O.3     1  1NB1       -0.2231
      7  C26       20.9000   46.4360   18.8050 C.3     1  1NB1        0.0027
      8  C29       23.2840   46.1960   18.5100 C.3     1  1NB1        0.1524
      9  C27       23.0890   49.3320   16.0080 C.3     1  1NB1        0.0339
     10  C28       22.0230   45.4100   18.8620 C.3     1  1NB1        0.0329
     11  C19       22.9710   50.0480   13.6000 C.2     1  1NB1       -0.0049
     12  C30       25.0430   47.9980   16.8360 C.2     1  1NB1        0.2074
@<TRIPOS>BOND
     1    11     4    2
     2     4     9    1
     3     5    12    2
     4     9     1    1
     5     1    12    1
     6     1     2    1
     7     3     2    1
     8     3     7    1
     9     2     8    1
    10     8    10    1
    11     8     6    1
    12     7    10    1
