@<TRIPOS>MOLECULE
1brx_RET_A_1.pdb
 20 20 0 0 0
SMALL
GASTEIGER

@<TRIPOS>ATOM
      1  C1        14.9110   45.4000   -0.2840 C.3   301  RET301      0.0183
      2  C2        14.5730   46.3170   -1.4560 C.3   301  RET301      0.0044
      3  C3        13.6970   47.4550   -1.1040 C.3   301  RET301      0.0047
      4  C4        14.3250   48.3240   -0.0400 C.3   301  RET301      0.0217
      5  C5        14.8730   47.4920    1.1050 C.2   301  RET301     -0.0479
      6  C6        15.0750   46.1770    1.0370 C.2   301  RET301     -0.0307
      7  C7        15.4750   45.4770    2.2910 C.2   301  RET301     -0.0052
      8  C8        15.7220   44.1800    2.4970 C.2   301  RET301     -0.0046
      9  C9        16.1250   43.4220    3.6850 C.2   301  RET301     -0.0219
     10  C10       16.2830   42.0920    3.5850 C.2   301  RET301     -0.0043
     11  C11       16.6740   41.1580    4.6840 C.2   301  RET301     -0.0007
     12  C12       16.8240   39.8570    4.5920 C.2   301  RET301     -0.0046
     13  C13       17.1900   38.8490    5.6060 C.2   301  RET301     -0.0261
     14  C14       17.2600   37.6070    5.1600 C.2   301  RET301     -0.0300
     15  C15       17.5900   36.3440    5.8310 C.3   301  RET301      0.0304
     16  C16       13.6940   44.4370   -0.2040 C.3   301  RET301      0.0043
     17  C17       16.1950   44.6220   -0.6850 C.3   301  RET301      0.0043
     18  C18       15.0040   48.3210    2.3600 C.3   301  RET301      0.0260
     19  C19       16.3400   44.1410    4.9820 C.3   301  RET301      0.0310
     20  C20       17.4550   39.2770    7.0190 C.3   301  RET301      0.0307
@<TRIPOS>BOND
     1     2     3    1
     2     2     1    1
     3     3     4    1
     4    17     1    1
     5     1    16    1
     6     1     6    1
     7     4     5    1
     8     6     5    2
     9     6     7    1
    10     5    18    1
    11     7     8    2
    12     8     9    1
    13    10     9    2
    14    10    11    1
    15     9    19    1
    16    12    11    2
    17    12    13    1
    18    14    13    2
    19    14    15    1
    20    13    20    1
