@<TRIPOS>MOLECULE
1bs1_DAA_A_1.pdb
 20 19 0 0 0
SMALL
GASTEIGER

@<TRIPOS>ATOM
      1  CA        -6.5140   28.2780    8.5280 C.3   850  DAA850      0.1141
      2  C         -6.5750   28.3210    6.9760 C.2   850  DAA850      0.3649
      3  OI1       -7.3600   27.5500    6.3890 O.co2 850  DAA850     -0.2457
      4  OI2       -5.8460   29.1340    6.4080 O.co2 850  DAA850     -0.2457
      5  CB        -5.7450   26.9660    8.8680 C.3   850  DAA850      0.0118
      6  CG        -5.7290   26.6220   10.3360 C.3   850  DAA850      0.0006
      7  CD        -4.5640   25.6360   10.5880 C.3   850  DAA850      0.0018
      8  CE        -4.4740   25.4860   12.1250 C.3   850  DAA850      0.0233
      9  CZ        -3.3370   24.6000   12.6740 C.3   850  DAA850      0.1161
     10  CH        -3.5270   23.1570   12.1300 C.3   850  DAA850      0.1118
     11  CS        -4.9450   22.6920   12.5010 C.3   850  DAA850      0.0223
     12  N1        -3.3860   24.5860   14.1820 N.am  850  DAA850     -0.1717
     13  CN1       -2.2200   24.8330   14.8740 C.2   850  DAA850      0.3896
     14  O11       -1.0960   25.3310   14.1120 O.3   850  DAA850     -0.5198
     15  O12       -2.0910   24.6790   16.1100 O.2   850  DAA850     -0.2281
     16  N2        -2.6200   22.3860   13.0110 N.3   850  DAA850     -0.1311
     17 AL          0.0660   24.7610   12.7570 Al    850  DAA850      1.2975
     18  F1         1.5630   24.6970   13.3240 F     850  DAA850     -0.3039
     19  F2        -0.4670   23.2510   12.6530 F     850  DAA850     -0.3039
     20  F3         0.1860   25.2510   11.2140 F     850  DAA850     -0.3039
@<TRIPOS>BOND
     1     3     2   ar
     2     4     2   ar
     3     2     1    1
     4     1     5    1
     5     5     6    1
     6     6     7    1
     7     7     8    1
     8    20    17    1
     9     8     9    1
    10    10    11    1
    11    10     9    1
    12    10    16    1
    13    19    17    1
    14     9    12    1
    15    17    18    1
    16    17    14    1
    17    14    13    1
    18    12    13   am
    19    13    15    2
