@<TRIPOS>MOLECULE
1bs1_ADP_A_1.pdb
 27 29 0 0 0
SMALL
GASTEIGER

@<TRIPOS>ATOM
      1  PB         3.7980   23.2410   10.8920 P.3   802  ADP802      0.5373
      2  O1B        4.1570   24.2740    9.8650 O.2   802  ADP802     -0.2221
      3  O2B        4.2070   23.5510   12.3920 O.3   802  ADP802     -0.1143
      4  O3B        2.3680   22.7840   10.8980 O.3   802  ADP802     -0.1143
      5  PA         5.6700   20.8920   11.5470 P.3   802  ADP802      0.2231
      6  O1A        4.7180   20.3050   12.5390 O.3   802  ADP802     -0.4370
      7  O2A        6.9300   21.4860   12.0500 O.2   802  ADP802     -0.5169
      8  O3A        4.7890   21.9770   10.5380 O.3   802  ADP802     -0.2261
      9  O5'        6.0550   19.8190   10.3240 O.3   802  ADP802     -0.3111
     10  C5'        4.9580   19.1930    9.5530 C.3   802  ADP802      0.1813
     11  C4'        5.2610   17.7030    9.4250 C.3   802  ADP802      0.1821
     12  O4'        6.4550   17.5770    8.6490 O.3   802  ADP802     -0.3135
     13  C3'        5.5460   16.9950   10.7500 C.3   802  ADP802      0.2184
     14  O3'        5.0870   15.6180   10.7260 O.3   802  ADP802     -0.2174
     15  C2'        7.0520   17.0320   10.9280 C.3   802  ADP802      0.2570
     16  O2'        7.5620   15.9680   11.7760 O.3   802  ADP802     -0.2130
     17  C1'        7.4820   16.9170    9.4590 C.3   802  ADP802      0.3186
     18  N9         8.8130   17.6490    9.3500 N.pl3 802  ADP802     -0.1439
     19  C8         8.9090   18.9860    9.3530 C.3   802  ADP802      0.3377
     20  N7        10.1470   19.3210    9.0480 N.2   802  ADP802     -0.2095
     21  C5        10.8190   18.2270    8.7070 C.2   802  ADP802      0.2526
     22  C6        12.1570   18.0080    8.4050 C.2   802  ADP802      0.4393
     23  N6        13.0540   18.9960    8.2880 N.pl3 802  ADP802      0.2180
     24  N1        12.4860   16.7430    8.0750 N.2   802  ADP802      0.0021
     25  C2        11.5530   15.7950    7.9880 C.3   802  ADP802      0.5254
     26  N3        10.3580   15.9100    8.5620 N.2   802  ADP802     -0.0055
     27  C4         9.9260   17.1720    8.7840 C.2   802  ADP802      0.3518
@<TRIPOS>BOND
     1    25    24    1
     2    25    26    1
     3    24    22    2
     4    23    22    1
     5    22    21    1
     6    26    27    2
     7    12    11    1
     8    12    17    1
     9    21    27    1
    10    21    20    2
    11    27    18    1
    12    20    19    1
    13    18    19    1
    14    18    17    1
    15    11    10    1
    16    11    13    1
    17    17    15    1
    18    10     9    1
    19     2     1    2
    20     9     5    1
    21     8     1    1
    22     8     5    1
    23    14    13    1
    24    13    15    1
    25     1     4    1
    26     1     3    1
    27    15    16    1
    28     5     7    2
    29     5     6    1
