@<TRIPOS>MOLECULE
1bs2_ARG_A_1.pdb
 12 11 0 0 0
SMALL
GASTEIGER

@<TRIPOS>ATOM
      1  N         43.9720   82.0520  -36.8840 N.3   900  ARG900     -0.1208
      2  CA        44.6390   83.2050  -36.2090 C.3   900  ARG900      0.1944
      3  C         46.1500   83.0050  -36.1470 C.2   900  ARG900      0.3819
      4  O         46.8420   83.9280  -35.6660 O.co2 900  ARG900     -0.2441
      5  CB        44.0800   83.3920  -34.7880 C.3   900  ARG900      0.0343
      6  CG        42.6190   83.8030  -34.7550 C.3   900  ARG900      0.0490
      7  CD        42.1160   83.9820  -33.3370 C.3   900  ARG900      0.2205
      8  NE        40.7000   84.3430  -33.2880 N.pl3 900  ARG900     -0.0865
      9  CZ        40.2060   85.5210  -33.6600 C.cat 900  ARG900      0.5346
     10  NH1       41.0140   86.4710  -34.1140 N.pl3 900  ARG900      0.1354
     11  NH2       38.8990   85.7510  -33.5840 N.pl3 900  ARG900      0.1354
     12  OXT       46.6230   81.9320  -36.5810 O.co2 900  ARG900     -0.2441
@<TRIPOS>BOND
     1     1     2    1
     2    12     3   ar
     3     2     3    1
     4     2     5    1
     5     3     4   ar
     6     5     6    1
     7     6     7    1
     8    10     9    1
     9     9    11    1
    10     9     8    2
    11     7     8    1
