@<TRIPOS>MOLECULE
1bs6_III_D_1.pdb
 20 19 0 0 0
SMALL
GASTEIGER

@<TRIPOS>ATOM
      1  N         39.1730   40.1490   67.0870 N.3     1  MET1       -0.1230
      2  CA        37.8150   39.5680   66.9780 C.3     1  MET1        0.1702
      3  C         36.8280   40.2870   67.9150 C.2     1  MET1        0.2592
      4  O         37.2260   40.8120   68.9620 O.2     1  MET1       -0.2718
      5  CB        37.8830   38.0780   67.3010 C.3     1  MET1        0.0401
      6  CG        36.5490   37.4020   67.2920 C.3     1  MET1        0.0596
      7  SD        36.6390   35.6550   67.0170 S.3     1  MET1       -0.1393
      8  CE        36.6810   35.0650   68.6420 C.3     1  MET1        0.0692
      9  N         35.5830   40.4420   67.4590 N.am    2  ALA2       -0.1966
     10  CA        34.4670   40.8420   68.3350 C.3     2  ALA2        0.1728
     11  C         33.5130   39.6610   68.6360 C.2     2  ALA2        0.2617
     12  O         32.9430   39.0340   67.7230 O.2     2  ALA2       -0.2715
     13  CB        33.6900   42.0040   67.7000 C.3     2  ALA2        0.0334
     14  N         33.4370   39.2720   69.9040 N.am    3  SER3       -0.1914
     15  CA        32.4190   38.2900   70.3270 C.3     3  SER3        0.2304
     16  C         31.0020   38.9160   70.3280 C.2     3  SER3        0.3869
     17  O         30.0060   38.1410   70.2440 O.co2   3  SER3       -0.2437
     18  CB        32.7430   37.7440   71.7360 C.3     3  SER3        0.2152
     19  OG        32.1920   36.4420   71.9390 O.3     3  SER3       -0.2179
     20  OXT       30.9020   40.1740   70.3720 O.co2   3  SER3       -0.2437
@<TRIPOS>BOND
     1     2     1    1
     2     2     5    1
     3     2     3    1
     4     7     6    1
     5     7     8    1
     6     6     5    1
     7     9     3   am
     8     9    10    1
     9    13    10    1
    10    12    11    2
    11     3     4    2
    12    10    11    1
    13    11    14   am
    14    14    15    1
    15    17    16   ar
    16    15    16    1
    17    15    18    1
    18    16    20   ar
    19    18    19    1
