@<TRIPOS>MOLECULE
1bs8_III_D_1.pdb
 20 19 0 0 0
SMALL
GASTEIGER

@<TRIPOS>ATOM
      1  N         39.1520   40.4300   66.6990 N.3     1  MET1       -0.1230
      2  CA        37.8040   39.8090   66.6420 C.3     1  MET1        0.1702
      3  C         36.8630   40.5370   67.5810 C.2     1  MET1        0.2592
      4  O         37.2700   40.9950   68.6440 O.2     1  MET1       -0.2718
      5  CB        37.8810   38.3350   67.0340 C.3     1  MET1        0.0401
      6  CG        36.5530   37.6030   66.9850 C.3     1  MET1        0.0596
      7  SD        36.7950   35.8460   67.0890 S.3     1  MET1       -0.1393
      8  CE        35.2350   35.2660   67.4880 C.3     1  MET1        0.0692
      9  N         35.6370   40.7500   67.1250 N.am    2  ALA2       -0.1966
     10  CA        34.5550   41.2120   67.9950 C.3     2  ALA2        0.1728
     11  C         33.6150   40.0380   68.3290 C.2     2  ALA2        0.2617
     12  O         32.8640   39.5570   67.4650 O.2     2  ALA2       -0.2715
     13  CB        33.7720   42.3370   67.2950 C.3     2  ALA2        0.0334
     14  N         33.7170   39.4960   69.5380 N.am    3  SER3       -0.1914
     15  CA        32.7130   38.5060   69.9470 C.3     3  SER3        0.2304
     16  C         31.4620   39.2030   70.5080 C.2     3  SER3        0.3869
     17  O         30.3450   38.6850   70.2260 O.co2   3  SER3       -0.2437
     18  CB        33.2730   37.5110   70.9730 C.3     3  SER3        0.2152
     19  OG        32.3160   36.4880   71.2600 O.3     3  SER3       -0.2179
     20  OXT       31.6110   40.3130   71.0920 O.co2   3  SER3       -0.2437
@<TRIPOS>BOND
     1     2     1    1
     2     2     5    1
     3     2     3    1
     4     6     5    1
     5     6     7    1
     6     7     8    1
     7     9     3   am
     8     9    10    1
     9    13    10    1
    10    12    11    2
    11     3     4    2
    12    10    11    1
    13    11    14   am
    14    14    15    1
    15    15    16    1
    16    15    18    1
    17    17    16   ar
    18    16    20   ar
    19    18    19    1
