@<TRIPOS>MOLECULE
1bsj_MLN_A_1.pdb
 29 29 0 0 0
SMALL
GASTEIGER

@<TRIPOS>ATOM
      1  O3        40.9040   53.5550   71.7480 O.3   171  MLN171     -0.1425
      2  P1        39.9300   54.2220   72.8050 P.3   171  MLN171      0.3945
      3  O2        40.9300   54.4570   74.1570 O.3   171  MLN171     -0.2884
      4  O4        38.9310   53.1050   73.1780 O.3   171  MLN171     -0.1425
      5  C5        41.3890   53.3390   74.8510 C.3   171  MLN171      0.2007
      6  C6        40.9260   53.7880   76.2510 C.2   171  MLN171      0.2694
      7  C7        42.9060   53.4320   74.5720 C.3   171  MLN171      0.0396
      8  C8        43.8100   53.8470   75.6890 C.3   171  MLN171      0.0030
      9  C9        45.1260   53.0810   75.8930 C.3   171  MLN171      0.0001
     10  C10       44.6580   51.7050   76.2790 C.3   171  MLN171      0.0000
     11  O11       40.7290   54.9680   76.5010 O.2   171  MLN171     -0.2707
     12  N12       40.7540   52.7820   77.1700 N.am  171  MLN171     -0.1957
     13  C13       40.4210   53.0060   78.5890 C.3   171  MLN171      0.1731
     14  C14       39.0750   52.3630   78.9770 C.3   171  MLN171      0.0311
     15  C15       37.9750   52.9550   78.1100 C.3   171  MLN171      0.0022
     16  C16       36.8010   52.0600   78.0330 C.3   171  MLN171      0.0001
     17  C17       37.2840   54.2040   78.5630 C.3   171  MLN171      0.0001
     18  C18       41.6160   52.4490   79.3640 C.2   171  MLN171      0.2654
     19  N19       42.2950   53.3780   80.3510 N.am  171  MLN171     -0.1778
     20  O20       42.0470   51.3070   79.2270 O.2   171  MLN171     -0.2711
     21  C21       43.2600   53.1300   81.1850 C.ar  171  MLN171      0.0735
     22  C22       43.7350   51.8210   81.3660 C.ar  171  MLN171      0.0183
     23  C23       44.7590   51.6120   82.3080 C.ar  171  MLN171      0.0254
     24  C24       45.3070   52.7380   82.9960 C.ar  171  MLN171      0.1430
     25  C25       44.8500   54.0690   82.7960 C.ar  171  MLN171      0.0254
     26  C26       43.7890   54.2550   81.8760 C.ar  171  MLN171      0.0183
     27  N27       46.3630   52.5230   83.9270 N.pl3 171  MLN171      0.0577
     28  O28       46.8870   53.6150   84.4880 O.2   171  MLN171     -0.1261
     29  O29       46.8070   51.2940   84.2350 O.2   171  MLN171     -0.1261
@<TRIPOS>BOND
     1     1     2    1
     2     2     4    1
     3     2     3    1
     4     3     5    1
     5     7     5    1
     6     7     8    1
     7     5     6    1
     8     8     9    1
     9     9    10    1
    10     6    11    2
    11     6    12   am
    12    12    13    1
    13    16    15    1
    14    15    17    1
    15    15    14    1
    16    13    14    1
    17    13    18    1
    18    20    18    2
    19    18    19   am
    20    19    21    1
    21    21    22   ar
    22    21    26   ar
    23    22    23   ar
    24    26    25   ar
    25    23    24   ar
    26    25    24   ar
    27    24    27    1
    28    27    29    2
    29    27    28    2
