@<TRIPOS>MOLECULE
1bsk_MLN_A_1.pdb
 29 29 0 0 0
SMALL
GASTEIGER

@<TRIPOS>ATOM
      1  O3        40.9070   53.3330   71.5810 O.3   171  MLN171     -0.1425
      2  P1        40.0490   54.2300   72.6150 P.3   171  MLN171      0.3945
      3  O2        41.0890   54.5890   74.0060 O.3   171  MLN171     -0.2884
      4  O4        38.6730   53.5140   72.9130 O.3   171  MLN171     -0.1425
      5  C5        41.3480   53.5070   74.8520 C.3   171  MLN171      0.2007
      6  C6        40.8190   53.9030   76.1980 C.2   171  MLN171      0.2694
      7  C7        42.8860   53.4450   74.5760 C.3   171  MLN171      0.0396
      8  C8        43.9560   53.9030   75.5980 C.3   171  MLN171      0.0030
      9  C9        45.2570   53.0700   75.8210 C.3   171  MLN171      0.0001
     10  C10       44.7550   51.7370   76.3360 C.3   171  MLN171      0.0000
     11  O11       40.4740   55.0230   76.4560 O.2   171  MLN171     -0.2707
     12  N12       40.7910   52.8440   77.0550 N.am  171  MLN171     -0.1957
     13  C13       40.4450   53.0020   78.4640 C.3   171  MLN171      0.1731
     14  C14       39.1700   52.1970   78.6850 C.3   171  MLN171      0.0311
     15  C15       38.0360   52.8700   77.9270 C.3   171  MLN171      0.0022
     16  C16       36.8610   51.9560   77.9590 C.3   171  MLN171      0.0001
     17  C17       37.5650   54.1790   78.5290 C.3   171  MLN171      0.0001
     18  C18       41.7230   52.5400   79.1180 C.2   171  MLN171      0.2654
     19  N19       42.3420   53.4540   80.1810 N.am  171  MLN171     -0.1778
     20  O20       42.2410   51.4860   78.8000 O.2   171  MLN171     -0.2711
     21  C21       43.3610   53.1630   80.9330 C.ar  171  MLN171      0.0735
     22  C22       43.8660   51.8440   81.0700 C.ar  171  MLN171      0.0183
     23  C23       44.8570   51.6110   82.0370 C.ar  171  MLN171      0.0254
     24  C24       45.4180   52.7360   82.7420 C.ar  171  MLN171      0.1430
     25  C25       44.9410   54.0640   82.5840 C.ar  171  MLN171      0.0254
     26  C26       43.9260   54.2800   81.6050 C.ar  171  MLN171      0.0183
     27  N27       46.5100   52.5080   83.6280 N.pl3 171  MLN171      0.0577
     28  O28       47.1580   53.4810   84.1960 O.2   171  MLN171     -0.1261
     29  O29       46.8640   51.2440   83.8530 O.2   171  MLN171     -0.1261
@<TRIPOS>BOND
     1     1     2    1
     2     2     4    1
     3     2     3    1
     4     3     5    1
     5     7     5    1
     6     7     8    1
     7     5     6    1
     8     8     9    1
     9     9    10    1
    10     6    11    2
    11     6    12   am
    12    12    13    1
    13    15    16    1
    14    15    17    1
    15    15    14    1
    16    13    14    1
    17    13    18    1
    18    20    18    2
    19    18    19   am
    20    19    21    1
    21    21    22   ar
    22    21    26   ar
    23    22    23   ar
    24    26    25   ar
    25    23    24   ar
    26    25    24   ar
    27    24    27    1
    28    27    29    2
    29    27    28    2
