@<TRIPOS>MOLECULE
1bso_BRC_A_1.pdb
 15 14 0 0 0
SMALL
GASTEIGER

@<TRIPOS>ATOM
      1  C1         2.4680    2.5750   38.3570 C.2   388  BRC388      0.3649
      2  OE1        2.8790    1.6780   37.6370 O.co2 388  BRC388     -0.2457
      3  OE2        1.2210    2.6360   38.7290 O.co2 388  BRC388     -0.2457
      4  C2         3.3320    3.6960   38.9130 C.3   388  BRC388      0.1141
      5  C3         3.6380    4.8910   38.0010 C.3   388  BRC388      0.0118
      6  C4         4.5730    5.8140   38.7660 C.3   388  BRC388      0.0006
      7  C5         5.0460    7.0770   38.0510 C.3   388  BRC388      0.0000
      8  C6         6.5340    7.3140   38.3520 C.3   388  BRC388      0.0000
      9  C7         7.1950    8.3290   37.4390 C.3   388  BRC388      0.0000
     10  C8         8.6680    8.5420   37.7470 C.3   388  BRC388      0.0000
     11  C9         9.2840    9.5580   36.8150 C.3   388  BRC388      0.0000
     12  C10       10.7090    9.9280   37.1430 C.3   388  BRC388      0.0009
     13  C11       11.2370   10.9540   36.1700 C.3   388  BRC388      0.0122
     14  C12       12.6590   11.3760   36.4510 C.3   388  BRC388      0.0676
     15 BR1        13.1450   12.8950   35.3950 Br    388  BRC388     -0.0808
@<TRIPOS>BOND
     1    15    14    1
     2    13    14    1
     3    13    12    1
     4    11    12    1
     5    11    10    1
     6     9    10    1
     7     9     8    1
     8     2     1   ar
     9     5     6    1
    10     5     4    1
    11     7     8    1
    12     7     6    1
    13     1     3   ar
    14     1     4    1
