@<TRIPOS>MOLECULE
1bsv_NDP_A_1.pdb
 48 52 0 0 0
SMALL
GASTEIGER

@<TRIPOS>ATOM
      1  PA        31.3780   25.6850   13.2950 P.3   350  NDP350      0.2189
      2  O1A       31.6010   25.1120   11.9210 O.2   350  NDP350     -0.5170
      3  O2A       32.1270   25.0870   14.4390 O.3   350  NDP350     -0.4371
      4  O5B       29.7400   25.6670   13.5400 O.3   350  NDP350     -0.3112
      5  C5B       28.8030   25.3870   12.4750 C.3   350  NDP350      0.1813
      6  C4B       27.9150   24.2830   12.9820 C.3   350  NDP350      0.1820
      7  O4B       26.7580   24.2380   12.1210 O.3   350  NDP350     -0.3136
      8  C3B       28.5700   22.9300   12.9150 C.3   350  NDP350      0.2157
      9  O3B       28.3790   22.2000   14.1500 O.3   350  NDP350     -0.2175
     10  C2B       27.8730   22.2510   11.7970 C.3   350  NDP350      0.2314
     11  O2B       27.7490   20.8460   12.0370 O.3   350  NDP350     -0.2630
     12  C1B       26.5050   22.8690   11.7760 C.3   350  NDP350      0.3158
     13  N9A       25.9040   22.7620   10.4100 N.pl3 350  NDP350     -0.1439
     14  C8A       26.3700   23.3070    9.2050 C.3   350  NDP350      0.3377
     15  N7A       25.6040   22.9980    8.1830 N.2   350  NDP350     -0.2095
     16  C5A       24.5770   22.2090    8.7290 C.2   350  NDP350      0.2526
     17  C6A       23.4580   21.5700    8.1430 C.2   350  NDP350      0.4393
     18  N6A       23.2200   21.6520    6.8390 N.pl3 350  NDP350      0.2180
     19  N1A       22.6190   20.8540    8.9600 N.2   350  NDP350      0.0021
     20  C2A       22.8780   20.7710   10.2850 C.3   350  NDP350      0.5254
     21  N3A       23.9060   21.3340   10.9210 N.2   350  NDP350     -0.0055
     22  C4A       24.7360   22.0520   10.0710 C.2   350  NDP350      0.3518
     23  O3        31.5560   27.2880   13.2420 O.3   350  NDP350     -0.2703
     24  PN        31.5820   28.5310   14.2980 P.3   350  NDP350      0.2189
     25  O1N       33.0620   28.8770   14.4990 O.2   350  NDP350     -0.5170
     26  O2N       30.8240   28.0530   15.5460 O.3   350  NDP350     -0.4371
     27  O5D       30.8250   29.7780   13.5880 O.3   350  NDP350     -0.3112
     28  C5D       29.3930   30.0230   13.7650 C.3   350  NDP350      0.1813
     29  C4D       29.1170   31.4900   13.3970 C.3   350  NDP350      0.1796
     30  O4D       29.8780   32.3220   14.3210 O.3   350  NDP350     -0.3354
     31  C3D       29.6700   31.8690   12.0170 C.3   350  NDP350      0.2155
     32  O3D       28.7650   31.5730   10.9190 O.3   350  NDP350     -0.2176
     33  C2D       29.9510   33.3580   12.1310 C.3   350  NDP350      0.2271
     34  O2D       28.8030   34.0720   11.6890 O.3   350  NDP350     -0.2161
     35  C1D       30.2570   33.5500   13.6700 C.3   350  NDP350      0.2098
     36  N1N       31.7010   33.8210   13.8530 N.3   350  NDP350     -0.2439
     37  C2N       32.5480   32.6990   13.8790 C.3   350  NDP350      0.0882
     38  C3N       33.9040   32.8830   14.3350 C.3   350  NDP350      0.1175
     39  C7N       34.9320   31.9020   13.8410 C.2   350  NDP350      0.2657
     40  O7N       36.1730   32.2090   13.6780 O.2   350  NDP350     -0.2713
     41  N7N       34.5820   30.6200   13.5390 N.am  350  NDP350     -0.0875
     42  C4N       34.3880   34.2230   14.1530 C.2   350  NDP350     -0.0191
     43  C5N       33.5770   35.2990   14.1010 C.2   350  NDP350     -0.0128
     44  C6N       32.2170   35.1020   13.9860 C.3   350  NDP350      0.1004
     45  P2B       28.7780   19.7510   11.3910 P.3   350  NDP350      0.5328
     46  O1X       30.1730   20.2600   11.7200 O.3   350  NDP350     -0.1145
     47  O2X       28.3320   18.4920   12.1120 O.3   350  NDP350     -0.1145
     48  O3X       28.4900   19.7710    9.8950 O.2   350  NDP350     -0.2224
@<TRIPOS>BOND
     1    18    17    1
     2    17    16    1
     3    17    19    2
     4    15    16    2
     5    15    14    1
     6    16    22    1
     7    19    20    1
     8    14    13    1
     9    48    45    2
    10    22    13    1
    11    22    21    2
    12    20    21    1
    13    13    12    1
    14    32    31    1
    15    45    46    1
    16    45    11    1
    17    45    47    1
    18    34    33    1
    19    12    10    1
    20    12     7    1
    21    10    11    1
    22    10     8    1
    23     2     1    2
    24    31    33    1
    25    31    29    1
    26     7     6    1
    27    33    35    1
    28     5     6    1
    29     5     4    1
    30     8     6    1
    31     8     9    1
    32    23     1    1
    33    23    24    1
    34     1     4    1
    35     1     3    1
    36    29    28    1
    37    29    30    1
    38    41    39   am
    39    27    28    1
    40    27    24    1
    41    35    36    1
    42    35    30    1
    43    40    39    2
    44    39    38    1
    45    36    37    1
    46    36    44    1
    47    37    38    1
    48    44    43    1
    49    43    42    2
    50    42    38    1
    51    24    25    2
    52    24    26    1
