@<TRIPOS>MOLECULE
1bsx_T3_A_1.pdb
 23 24 0 0 0
SMALL
GASTEIGER

@<TRIPOS>ATOM
      1  C1        20.7200   36.5820   29.7090 C.ar    1  T31        -0.0191
      2  C2        19.4080   41.5380   29.5200 C.ar    1  T31         0.1460
      3  C3        19.3890   37.0030   29.3870 C.ar    1  T31         0.0047
      4  C4        18.6820   42.5780   28.9910 C.ar    1  T31         0.0465
      5  C5        19.1150   38.3180   29.0040 C.ar    1  T31         0.0647
      6  C6        18.1970   43.5680   29.8310 C.ar    1  T31         0.0720
      7  C7        20.1810   39.2650   28.9330 C.ar    1  T31         0.1558
      8  C8        18.4540   43.5100   31.2640 C.ar    1  T31         0.2012
      9  C9        21.4810   38.9010   29.2230 C.ar    1  T31         0.0647
     10  C10       19.1790   42.4470   31.7380 C.ar    1  T31         0.0456
     11  C11       21.7560   37.5860   29.6060 C.ar    1  T31         0.0047
     12  C12       19.6900   41.4180   30.8980 C.ar    1  T31         0.0408
     13  C13       20.9930   35.1500   30.2560 C.3     1  T31         0.0570
     14  C15       21.9540   34.2420   29.4570 C.3     1  T31         0.1986
     15  C17       21.8750   32.7730   29.7860 C.2     1  T31         0.3822
     16  I1        17.1030   38.8620   28.6380 I       1  T31        -0.0393
     17  I2        16.9750   44.9990   29.1230 I       1  T31        -0.0391
     18  I3        22.9930   40.2560   29.0880 I       1  T31        -0.0393
     19  N1        21.9450   34.5360   27.9860 N.3     1  T31        -0.1205
     20  O1        18.0030   44.5360   32.0420 O.3     1  T31        -0.2861
     21  O2        19.8790   40.5450   28.5770 O.3     1  T31        -0.4526
     22  O3        22.0430   31.9850   28.8450 O.co2   1  T31        -0.2440
     23  O4        21.6430   32.4360   30.9680 O.co2   1  T31        -0.2440
@<TRIPOS>BOND
     1    19    14    1
     2    21     7    1
     3    21     2    1
     4    16     5    1
     5    22    15   ar
     6     7     5   ar
     7     7     9   ar
     8     4     2   ar
     9     4     6   ar
    10     5     3   ar
    11    18     9    1
    12    17     6    1
    13     9    11   ar
    14     3     1   ar
    15    14    15    1
    16    14    13    1
    17     2    12   ar
    18    11     1   ar
    19     1    13    1
    20    15    23   ar
    21     6     8   ar
    22    12    10   ar
    23     8    10   ar
    24     8    20    1
