@<TRIPOS>MOLECULE
1bt4_PLP_A_1.pdb
 15 15 0 0 0
SMALL
GASTEIGER

@<TRIPOS>ATOM
      1  N1        14.1420   -1.9320    5.3540 N.ar  363  PLP363     -0.2452
      2  C2        14.9020   -2.9660    5.7930 C.ar  363  PLP363      0.0978
      3  C2A       15.8110   -2.7570    6.9640 C.3   363  PLP363      0.0555
      4  C3        14.7820   -4.1890    5.1220 C.ar  363  PLP363      0.2049
      5  O3        15.5300   -5.2350    5.5030 O.3   363  PLP363     -0.2857
      6  C4        13.8960   -4.3190    4.0360 C.ar  363  PLP363      0.0182
      7  C4A       13.7060   -5.6880    3.4250 C.3   363  PLP363      0.0342
      8  C5        13.1380   -3.1840    3.6110 C.ar  363  PLP363      0.0261
      9  C6        13.2890   -2.0120    4.3040 C.ar  363  PLP363      0.0965
     10  C5A       12.2170   -3.1700    2.3810 C.3   363  PLP363      0.1815
     11  O4P       11.1560   -4.1130    2.5360 O.3   363  PLP363     -0.2653
     12  P         10.1080   -4.2220    1.3140 P.3   363  PLP363      0.5329
     13  O1P        8.9760   -5.0930    1.7950 O.3   363  PLP363     -0.1145
     14  O2P       10.8940   -4.6570    0.1130 O.2   363  PLP363     -0.2224
     15  O3P        9.5740   -2.7720    1.0690 O.3   363  PLP363     -0.1145
@<TRIPOS>BOND
     1    14    12    2
     2    15    12    1
     3    12    13    1
     4    12    11    1
     5    10    11    1
     6    10     8    1
     7     7     6    1
     8     8     6   ar
     9     8     9   ar
    10     6     4   ar
    11     9     1   ar
    12     4     5    1
    13     4     2   ar
    14     1     2   ar
    15     2     3    1
