@<TRIPOS>MOLECULE
1bt5_IM2_A_1.pdb
 20 20 0 0 0
SMALL
GASTEIGER

@<TRIPOS>ATOM
      1  C7         9.5500    8.1050   36.8460 C.2   350  IM2350      0.2115
      2  C2        11.3750   12.0470   35.2080 C.3   350  IM2350      0.0958
      3  C6        10.8170    8.9250   36.9950 C.3   350  IM2350      0.1175
      4  C5        10.4610   10.3880   36.5700 C.3   350  IM2350      0.1142
      5  C3        10.4550   11.3980   34.5010 C.2   350  IM2350      0.1428
      6  O7         8.4450    8.6260   37.0170 O.2   350  IM2350     -0.2882
      7  C61       11.4400    8.8810   38.3920 C.3   350  IM2350      0.1613
      8  O62       11.7080    7.5540   38.8730 O.3   350  IM2350     -0.2226
      9  C62       10.5200    9.6140   39.4370 C.3   350  IM2350      0.0360
     10  N4        10.0740   10.1880   35.1640 N.2   350  IM2350     -0.2688
     11  C31        9.7990   11.7970   33.2400 C.2   350  IM2350      0.4014
     12  O31        9.1670   10.8490   32.5450 O.co2 350  IM2350     -0.2392
     13  O32        9.8510   12.9630   32.8920 O.co2 350  IM2350     -0.2392
     14  S21       12.0550   13.6080   34.7380 S.3   350  IM2350     -0.1329
     15  C22       13.2140   13.8420   36.1280 C.3   350  IM2350      0.0812
     16  C23       14.5930   13.1860   35.8470 C.3   350  IM2350      0.1256
     17  N24       15.0950   13.5000   34.4990 N.pl3 350  IM2350     -0.2155
     18  C25       15.7420   12.5040   33.8940 C.2   350  IM2350      0.2043
     19  N26       16.6320   11.7930   34.4200 N.2   350  IM2350     -0.1271
     20  C1        11.7080   11.3060   36.5190 C.3   350  IM2350      0.0418
@<TRIPOS>BOND
     1    12    11   ar
     2    13    11   ar
     3    11     5    1
     4    18    19    2
     5    18    17    1
     6    17    16    1
     7     5    10    2
     8     5     2    1
     9    14     2    1
    10    14    15    1
    11    10     4    1
    12     2    20    1
    13    16    15    1
    14    20     4    1
    15     4     3    1
    16     1     3    1
    17     1     6    2
    18     3     7    1
    19     7     8    1
    20     7     9    1
