@<TRIPOS>MOLECULE
1btc_GLC_A_1.pdb
 11 11 0 0 0
SMALL
GASTEIGER

@<TRIPOS>ATOM
      1  C1        -1.1350   28.5530   26.4160 C.3   497  GLC497      0.1777
      2  C2        -1.9380   29.0370   25.2290 C.3   497  GLC497      0.2141
      3  C3        -3.3910   28.5800   25.3210 C.3   497  GLC497      0.2173
      4  C4        -3.4560   27.0780   25.6160 C.3   497  GLC497      0.2142
      5  C5        -2.5760   26.6760   26.8230 C.3   497  GLC497      0.1810
      6  C6        -2.4810   25.1560   27.1210 C.3   497  GLC497      0.2141
      7  O2        -1.8880   30.4600   25.2610 O.3   497  GLC497     -0.2176
      8  O3        -4.1330   28.8550   24.1420 O.3   497  GLC497     -0.2175
      9  O4        -4.8380   26.8610   25.9460 O.3   497  GLC497     -0.2176
     10  O5        -1.2510   27.1610   26.5830 O.3   497  GLC497     -0.3481
     11  O6        -2.0520   24.4420   25.9760 O.3   497  GLC497     -0.2176
@<TRIPOS>BOND
     1     8     3    1
     2     2     7    1
     3     2     3    1
     4     2     1    1
     5     3     4    1
     6     4     9    1
     7     4     5    1
     8    11     6    1
     9     1    10    1
    10    10     5    1
    11     5     6    1
