@<TRIPOS>MOLECULE
1btn_I3P_A_1.pdb
 24 24 0 0 0
SMALL
GASTEIGER

@<TRIPOS>ATOM
      1  C1         2.9720   57.1700   28.8190 C.3   107  I3P107      0.1918
      2  C2         2.4020   58.3430   28.1350 C.3   107  I3P107      0.2147
      3  C3         1.4030   57.9360   27.0360 C.3   107  I3P107      0.2146
      4  C4         0.3390   57.0300   27.6070 C.3   107  I3P107      0.1892
      5  C5         1.0100   55.8010   28.2000 C.3   107  I3P107      0.1891
      6  C6         1.9660   56.2270   29.3130 C.3   107  I3P107      0.2120
      7  O1         3.9250   57.5400   29.8890 O.3   107  I3P107     -0.2673
      8  O2         1.7800   59.2290   29.0640 O.3   107  I3P107     -0.2176
      9  O3         0.7800   59.0900   26.5110 O.3   107  I3P107     -0.2176
     10  O4        -0.5670   56.7020   26.5080 O.3   107  I3P107     -0.2674
     11  O5        -0.0140   54.9490   28.7810 O.3   107  I3P107     -0.2674
     12  O6         2.5840   55.0740   29.9100 O.3   107  I3P107     -0.2177
     13  P1         5.3330   57.8810   29.8540 P.3   107  I3P107      0.5327
     14  O11        5.4030   59.2600   29.6600 O.3   107  I3P107     -0.1145
     15  O12        5.8470   57.1720   28.7090 O.2   107  I3P107     -0.2224
     16  O13        6.0190   57.2350   30.8790 O.3   107  I3P107     -0.1145
     17  P4        -1.9800   57.0140   26.2900 P.3   107  I3P107      0.5327
     18  O41       -2.7620   56.8830   27.4260 O.3   107  I3P107     -0.1145
     19  O42       -1.8490   58.3970   26.0960 O.3   107  I3P107     -0.1145
     20  O43       -2.3680   56.6220   25.0320 O.2   107  I3P107     -0.2224
     21  P5        -0.3600   53.6560   28.4800 P.3   107  I3P107      0.5327
     22  O51       -1.6900   53.6490   28.3100 O.3   107  I3P107     -0.1145
     23  O52        0.1900   53.1570   27.2850 O.2   107  I3P107     -0.2224
     24  O53        0.2120   52.9030   29.4380 O.3   107  I3P107     -0.1145
@<TRIPOS>BOND
     1    20    17    2
     2    19    17    1
     3    17    10    1
     4    17    18    1
     5    10     4    1
     6     9     3    1
     7     3     4    1
     8     3     2    1
     9    23    21    2
    10     4     5    1
    11     2     1    1
    12     2     8    1
    13     5    11    1
    14     5     6    1
    15    22    21    1
    16    21    11    1
    17    21    24    1
    18    15    13    2
    19     1     6    1
    20     1     7    1
    21     6    12    1
    22    14    13    1
    23    13     7    1
    24    13    16    1
