@<TRIPOS>MOLECULE
1bto_SSB_A_1.pdb
 10 10 0 0 0
SMALL
GASTEIGER

@<TRIPOS>ATOM
      1  S1        19.2840   -0.2230    9.7340 S.O   378  SSB378      0.0417
      2  C2        19.3140    1.2930   10.7930 C.3   378  SSB378      0.0918
      3  C3        19.2160    0.8280   12.2750 C.3   378  SSB378      0.0144
      4  C4        19.8830   -0.5730   12.3620 C.3   378  SSB378      0.0153
      5  C5        19.5030   -1.3960   11.1130 C.3   378  SSB378      0.0918
      6  O6        20.6590   -0.1460    9.2770 O.2   378  SSB378     -0.2559
      7  C7        19.9970    1.8330   13.1850 C.3   378  SSB378      0.0010
      8  C8        19.3510    3.2620   13.1410 C.3   378  SSB378      0.0000
      9  C9        20.0490    4.1730   14.2090 C.3   378  SSB378      0.0000
     10  C10       19.8290    5.6940   13.8650 C.3   378  SSB378      0.0000
@<TRIPOS>BOND
     1     6     1    2
     2     1     2    1
     3     1     5    1
     4     2     3    1
     5     5     4    1
     6     3     4    1
     7     3     7    1
     8     8     7    1
     9     8     9    1
    10    10     9    1
