@<TRIPOS>MOLECULE
1btu_2BL_A_1.pdb
 20 20 0 0 0
SMALL
GASTEIGER

@<TRIPOS>ATOM
      1  C1        -8.9270   24.1180   38.5570 C.2     7  2BL7        0.2090
      2  C2       -10.0150   24.2020   37.5190 C.3     7  2BL7        0.0938
      3  C3       -10.2220   22.8210   36.9470 C.3     7  2BL7        0.2074
      4  C4        -9.0670   22.3660   36.1380 C.2     7  2BL7        0.3826
      5  C5       -11.2670   24.6950   38.2420 C.3     7  2BL7        0.0098
      6  C6       -11.1050   26.1800   38.6020 C.3     7  2BL7        0.0005
      7  C7       -10.7290   19.1550   37.8160 C.ar    7  2BL7        0.1235
      8  C8       -10.5490   18.7970   39.1190 C.ar    7  2BL7        0.0196
      9  C9       -10.2560   18.5030   36.7380 C.ar    7  2BL7        0.0196
     10  C10       -9.8210   17.5940   39.4100 C.ar    7  2BL7       -0.0029
     11  C11       -9.5290   17.2880   36.9800 C.ar    7  2BL7       -0.0029
     12  C12       -9.3860   16.9100   38.2840 C.ar    7  2BL7       -0.0218
     13  C13       -8.5840   15.7000   38.5450 C.3     7  2BL7        0.0310
     14  O1        -8.4710   21.2900   36.3540 O.co2   7  2BL7       -0.2440
     15  O2        -8.6370   23.1380   35.2290 O.co2   7  2BL7       -0.2440
     16  O3       -12.7370   20.6900   38.4890 O.2     7  2BL7       -0.1516
     17  O4       -11.9570   20.8160   36.1820 O.2     7  2BL7       -0.1516
     18  S1       -11.6190   20.5990   37.5870 S.O2    7  2BL7        0.0773
     19  N1       -10.5720   21.8250   37.9650 N.3     7  2BL7       -0.0673
     20  O6        -9.0790   24.2520   39.7460 O.2     7  2BL7       -0.2882
@<TRIPOS>BOND
     1    15     4   ar
     2     4    14   ar
     3     4     3    1
     4    17    18    2
     5     9    11   ar
     6     9     7   ar
     7     3     2    1
     8     3    19    1
     9    11    12   ar
    10     2     5    1
    11     2     1    1
    12    18     7    1
    13    18    19    1
    14    18    16    2
    15     7     8   ar
    16     5     6    1
    17    12    13    1
    18    12    10   ar
    19     1    20    2
    20     8    10   ar
