@<TRIPOS>MOLECULE
1btw_0ZW_A_1.pdb
 41 40 0 0 0
SMALL
GASTEIGER

@<TRIPOS>ATOM
      1  O1        36.1960   -3.8740   29.4940 O.2   732  0ZW732      0.0000
      2  C         36.6950   -4.9000   29.0030 C.2   732  0ZW732      0.0000
      3  O2        35.9850   -5.6770   28.0940 O.3   732  0ZW732      0.0000
      4  CT        35.4320   -6.9910   28.2740 C.3   732  0ZW732      0.0000
      5  C1        34.6350   -7.3690   27.0010 C.3   732  0ZW732      0.0000
      6  C2        36.4810   -8.1050   28.5500 C.3   732  0ZW732      0.0000
      7  C3        34.4660   -6.9610   29.4800 C.3   732  0ZW732      0.0000
      8  N         37.9380   -5.2920   29.2910 N.am  732  0ZW732      0.0000
      9  CA        38.7500   -4.6190   30.2740 C.3   732  0ZW732      0.0000
     10  C4        39.4470   -3.3760   29.7180 C.2   732  0ZW732      0.0000
     11  O         40.0550   -3.2710   28.6300 O.2   732  0ZW732      0.0000
     12  CB        39.7970   -5.5960   30.8160 C.3   732  0ZW732      0.0000
     13  N1        39.2950   -2.3950   30.5980 N.am  732  0ZW732      0.0000
     14  CA1       39.9060   -1.0790   30.5020 C.3   732  0ZW732      0.0000
     15  C5        41.4260   -1.3160   30.5880 C.2   732  0ZW732      0.0000
     16  O3        41.8660   -2.1790   31.3790 O.2   732  0ZW732      0.0000
     17  CB1       39.2250   -0.3160   31.6830 C.3   732  0ZW732      0.0000
     18  CG1       40.1410   -0.0930   32.8790 C.3   732  0ZW732      0.0000
     19  CG2       38.7230    0.9830   31.1460 C.3   732  0ZW732      0.0000
     20  N2        42.2520   -0.6350   29.7880 N.am  732  0ZW732      0.0000
     21  CA2       43.6990   -0.7690   29.8700 C.3   732  0ZW732      0.0000
     22  CB2       44.1390   -0.7730   28.4160 C.3   732  0ZW732      0.0000
     23  CG        43.8460   -2.1440   27.8710 C.3   732  0ZW732      0.0000
     24  CD        44.0000   -2.1330   26.3890 C.3   732  0ZW732      0.0000
     25  CE        43.8500   -3.5670   25.9060 C.3   732  0ZW732      0.0000
     26  NZ        44.1130   -3.5830   24.4720 N.4   732  0ZW732      0.0000
     27  B         44.0530    0.4950   30.7730 B     732  0ZW732      0.0000
     28  O4        43.1920    0.8910   31.7810 O.3   732  0ZW732      0.0000
     29  C11       45.6750    0.8770   32.8980 C.3   732  0ZW732      0.0000
     30  O11       45.3110   -0.0270   31.8270 O.3   732  0ZW732      0.0000
     31  C21       45.0790    0.2760   34.1570 C.3   732  0ZW732      0.0000
     32  C31       45.6520   -1.0980   34.4150 C.3   732  0ZW732      0.0000
     33  O31       44.7070   -1.9040   35.0860 O.3   732  0ZW732      0.0000
     34  H         38.4410   -5.5150   28.4770 H     732  0ZW732      0.0000
     35  H1        38.7250   -2.6070   31.3600 H     732  0ZW732      0.0000
     36  HN1       41.9100    0.0170   29.1380 H     732  0ZW732      0.0000
     37  HZ1       45.0580   -3.1760   24.3090 H     732  0ZW732      0.0000
     38  HZ2       43.3950   -3.0140   23.9790 H     732  0ZW732      0.0000
     39  HZ3       44.0930   -4.5610   24.1210 H     732  0ZW732      0.0000
     40  HO        43.0070    0.1230   32.3450 H     732  0ZW732      0.0000
     41  HO3       43.9310   -1.9530   34.5270 H     732  0ZW732      0.0000
@<TRIPOS>BOND
     1    38    26    1
     2    39    26    1
     3    37    26    1
     4    26    25    1
     5    25    24    1
     6    24    23    1
     7     5     4    1
     8    23    22    1
     9     3     4    1
    10     3     2    1
    11     4     6    1
    12     4     7    1
    13    22    21    1
    14    34     8    1
    15    11    10    2
    16     2     8   am
    17     2     1    2
    18    36    20    1
    19     8     9    1
    20    10     9    1
    21    10    13   am
    22    20    21    1
    23    20    15   am
    24    21    27    1
    25     9    12    1
    26    14    15    1
    27    14    13    1
    28    14    17    1
    29    15    16    2
    30    13    35    1
    31    27    28    1
    32    27    30    1
    33    19    17    1
    34    17    18    1
    35    28    40    1
    36    30    29    1
    37    29    31    1
    38    31    32    1
    39    32    33    1
    40    41    33    1
