@<TRIPOS>MOLECULE
1btx_0ZX_A_1.pdb
 38 37 0 0 0
SMALL
GASTEIGER

@<TRIPOS>ATOM
      1  O1        26.9300    6.2000   14.3760 O.2   632  0ZX632      0.0000
      2  C         26.7870    7.3650   13.9990 C.2   632  0ZX632      0.0000
      3  O2        26.4770    7.6330   12.6790 O.3   632  0ZX632      0.0000
      4  CT        25.4630    7.0970   11.8220 C.3   632  0ZX632      0.0000
      5  C1        24.1900    6.6790   12.5900 C.3   632  0ZX632      0.0000
      6  C2        25.0120    8.1960   10.8390 C.3   632  0ZX632      0.0000
      7  C3        26.0240    5.8880   11.0400 C.3   632  0ZX632      0.0000
      8  N         26.9510    8.4030   14.8160 N.am  632  0ZX632      0.0000
      9  CA        27.2950    8.3190   16.2230 C.3   632  0ZX632      0.0000
     10  C4        26.8440    9.5500   17.0070 C.2   632  0ZX632      0.0000
     11  O         26.8170   10.7110   16.5490 O.2   632  0ZX632      0.0000
     12  CB        28.7980    8.2060   16.4130 C.3   632  0ZX632      0.0000
     13  N1        26.5360    9.2680   18.2650 N.am  632  0ZX632      0.0000
     14  CA1       26.1340   10.2950   19.1900 C.3   632  0ZX632      0.0000
     15  C5        27.4190   10.9310   19.7540 C.2   632  0ZX632      0.0000
     16  O3        28.4700   10.2590   19.7560 O.2   632  0ZX632      0.0000
     17  CB1       25.1680    9.4830   20.1100 C.3   632  0ZX632      0.0000
     18  CG1       25.7880    8.8180   21.2990 C.3   632  0ZX632      0.0000
     19  CG2       24.0830   10.4460   20.4450 C.3   632  0ZX632      0.0000
     20  N2        27.3890   12.2060   20.1790 N.am  632  0ZX632      0.0000
     21  CA2       28.5730   12.9480   20.6140 C.3   632  0ZX632      0.0000
     22  CB2       28.6070   14.2670   19.8670 C.3   632  0ZX632      0.0000
     23  CG        29.0490   14.0100   18.4440 C.3   632  0ZX632      0.0000
     24  CD        28.9870   15.2760   17.6490 C.3   632  0ZX632      0.0000
     25  CE        29.5100   14.9190   16.2880 C.3   632  0ZX632      0.0000
     26  NZ        29.3960   16.0400   15.3890 N.3   632  0ZX632      0.0000
     27  B         28.2510   13.1240   22.2130 B     632  0ZX632      0.0000
     28  OXT       29.2990   13.7350   23.0930 O.3   632  0ZX632      0.0000
     29  C11       29.6860   13.3940   24.4540 C.3   632  0ZX632      0.0000
     30  C21       28.6730   13.2750   25.5720 C.3   632  0ZX632      0.0000
     31  O4        27.6100   11.9730   22.8740 O.3   632  0ZX632      0.0000
     32  C31       27.9470   10.6390   23.2990 C.3   632  0ZX632      0.0000
     33  C51       29.2840   10.0400   22.8380 C.3   632  0ZX632      0.0000
     34  H         26.8190    9.3050   14.4580 H     632  0ZX632      0.0000
     35  H1        26.6800    8.3510   18.5840 H     632  0ZX632      0.0000
     36  H2N       26.5420   12.6100   20.4370 H     632  0ZX632      0.0000
     37 H1NZ       28.3950   16.2940   15.2760 H     632  0ZX632      0.0000
     38 H2NZ       29.7980   15.7850   14.4650 H     632  0ZX632      0.0000
@<TRIPOS>BOND
     1     6     4    1
     2     7     4    1
     3     4     5    1
     4     4     3    1
     5     3     2    1
     6     2     1    2
     7     2     8   am
     8    34     8    1
     9    38    26    1
    10     8     9    1
    11    37    26    1
    12    26    25    1
    13     9    12    1
    14     9    10    1
    15    25    24    1
    16    11    10    2
    17    10    13   am
    18    24    23    1
    19    13    35    1
    20    13    14    1
    21    23    22    1
    22    14    15    1
    23    14    17    1
    24    15    16    2
    25    15    20   am
    26    22    21    1
    27    17    19    1
    28    17    18    1
    29    20    36    1
    30    20    21    1
    31    21    27    1
    32    27    31    1
    33    27    28    1
    34    33    32    1
    35    31    32    1
    36    28    29    1
    37    29    30    1
