@<TRIPOS>MOLECULE
1bty_BEN_A_1.pdb
 16 16 0 0 0
SMALL
GASTEIGER

@<TRIPOS>ATOM
      1  C1        29.1530   14.9380   16.6130 C.ar  246  BEN246      0.0699
      2  C2        28.7170   15.5690   17.7790 C.ar  246  BEN246     -0.0467
      3  C3        28.3690   14.8750   18.9190 C.ar  246  BEN246     -0.0609
      4  C4        28.4450   13.5150   18.9280 C.ar  246  BEN246     -0.0617
      5  C5        28.8680   12.8610   17.7990 C.ar  246  BEN246     -0.0609
      6  C6        29.2190   13.5540   16.6600 C.ar  246  BEN246     -0.0467
      7  C         29.4980   15.6480   15.4570 C.2   246  BEN246      0.3693
      8  N1        30.2210   15.0460   14.5320 N.2   246  BEN246      0.1928
      9  N2        29.0940   16.8930   15.3220 N.pl3 246  BEN246     -0.2426
     10  H2        28.6450   16.6460   17.8040 H     246  BEN246      0.0626
     11  H3        28.0350   15.4010   19.8020 H     246  BEN246      0.0618
     12  H4        28.1760   12.9600   19.8130 H     246  BEN246      0.0618
     13  H5        28.9210   11.7840   17.7980 H     246  BEN246      0.0618
     14  H6        29.5490   12.9980   15.7940 H     246  BEN246      0.0626
     15 HN21       28.5770   17.3320   16.0770 H     246  BEN246      0.2886
     16 HN22       29.3140   17.4660   14.5470 H     246  BEN246      0.2886
@<TRIPOS>BOND
     1     8     7    2
     2    16     9    1
     3     9     7    1
     4     9    15    1
     5     7     1    1
     6    14     6    1
     7     1     6   ar
     8     1     2   ar
     9     6     5   ar
    10     2    10    1
    11     2     3   ar
    12    13     5    1
    13     5     4   ar
    14     3     4   ar
    15     3    11    1
    16     4    12    1
