@<TRIPOS>MOLECULE
1btz_0ZY_A_1.pdb
 37 36 0 0 0
SMALL
GASTEIGER

@<TRIPOS>ATOM
      1  O1        26.5180    6.4680   14.5720 O.2   732  0ZY732      0.0000
      2  C         26.6380    7.6020   14.0930 C.2   732  0ZY732      0.0000
      3  O2        26.4580    7.8360   12.7270 O.3   732  0ZY732      0.0000
      4  CT        25.7010    7.0820   11.7580 C.3   732  0ZY732      0.0000
      5  C1        24.2560    6.8470   12.2940 C.3   732  0ZY732      0.0000
      6  C2        25.4720    7.8300   10.4220 C.3   732  0ZY732      0.0000
      7  C3        26.4720    5.7690   11.4340 C.3   732  0ZY732      0.0000
      8  N         26.9710    8.6250   14.8730 N.am  732  0ZY732      0.0000
      9  CA        27.2060    8.4850   16.2930 C.3   732  0ZY732      0.0000
     10  C4        26.9020    9.7610   17.0700 C.2   732  0ZY732      0.0000
     11  O         27.0440   10.9150   16.6130 O.2   732  0ZY732      0.0000
     12  CB        28.6570    8.1090   16.5650 C.3   732  0ZY732      0.0000
     13  N1        26.4460    9.4570   18.2880 N.am  732  0ZY732      0.0000
     14  CA1       26.0310   10.3990   19.3160 C.3   732  0ZY732      0.0000
     15  C5        27.3020   11.0540   19.8550 C.2   732  0ZY732      0.0000
     16  O3        28.3240   10.3500   19.9820 O.2   732  0ZY732      0.0000
     17  CB1       25.2150    9.4640   20.2610 C.3   732  0ZY732      0.0000
     18  CG1       25.7490    9.3080   21.6470 C.3   732  0ZY732      0.0000
     19  CG2       23.8500   10.0300   20.2750 C.3   732  0ZY732      0.0000
     20  N2        27.3170   12.3690   20.1040 N.am  732  0ZY732      0.0000
     21  CA2       28.5020   13.0710   20.6250 C.3   732  0ZY732      0.0000
     22  CB2       28.6450   14.3910   19.8270 C.3   732  0ZY732      0.0000
     23  CG        28.9830   13.9840   18.3980 C.3   732  0ZY732      0.0000
     24  CD        29.1640   15.2160   17.5340 C.3   732  0ZY732      0.0000
     25  CE        29.1870   14.8580   16.0570 C.3   732  0ZY732      0.0000
     26  NZ        29.3730   16.0480   15.2580 N.4   732  0ZY732      0.0000
     27  B         28.2600   13.2510   22.2420 B     732  0ZY732      0.0000
     28  O4        27.8310   11.9900   22.8420 O.3   732  0ZY732      0.0000
     29  O21       29.2900   13.7990   23.1500 O.3   732  0ZY732      0.0000
     30  C6        29.3340   13.4100   24.5750 C.3   732  0ZY732      0.0000
     31  H         26.7860    9.5260   14.5470 H     732  0ZY732      0.0000
     32  H1        26.4390    8.4990   18.5090 H     732  0ZY732      0.0000
     33  HN        26.5080   12.9050   19.9440 H     732  0ZY732      0.0000
     34  HNZ       30.2760   16.4960   15.5130 H     732  0ZY732      0.0000
     35 HNZA       28.5990   16.7140   15.4490 H     732  0ZY732      0.0000
     36 HNZB       29.3760   15.8090   14.2500 H     732  0ZY732      0.0000
     37  HO        28.5300   11.3380   22.7140 H     732  0ZY732      0.0000
@<TRIPOS>BOND
     1     6     4    1
     2     7     4    1
     3     4     5    1
     4     4     3    1
     5     3     2    1
     6     2     1    2
     7     2     8   am
     8    36    26    1
     9    31     8    1
    10     8     9    1
    11    26    35    1
    12    26    34    1
    13    26    25    1
    14    25    24    1
    15     9    12    1
    16     9    10    1
    17    11    10    2
    18    10    13   am
    19    24    23    1
    20    13    32    1
    21    13    14    1
    22    23    22    1
    23    14    15    1
    24    14    17    1
    25    22    21    1
    26    15    16    2
    27    15    20   am
    28    33    20    1
    29    20    21    1
    30    17    19    1
    31    17    18    1
    32    21    27    1
    33    27    28    1
    34    27    29    1
    35    37    28    1
    36    29    30    1
