@<TRIPOS>MOLECULE
1bu4_2GP_A_1.pdb
 24 26 0 0 0
SMALL
GASTEIGER

@<TRIPOS>ATOM
      1  P         19.1140   20.5200   11.2070 P.3   202  2GP202      0.5327
      2  O1P       19.6300   21.0450   12.4970 O.3   202  2GP202     -0.1145
      3  O2P       18.7790   19.0680   11.2400 O.3   202  2GP202     -0.1145
      4  O3P       17.9410   21.3630   10.7790 O.2   202  2GP202     -0.2224
      5  O5'       23.9050   18.9100   10.5610 O.3   202  2GP202     -0.2176
      6  C5'       24.4880   19.4480    9.3650 C.3   202  2GP202      0.2142
      7  C4'       23.4420   20.2770    8.5670 C.3   202  2GP202      0.1827
      8  O4'       22.6060   19.4330    7.7450 O.3   202  2GP202     -0.3326
      9  C3'       22.4180   21.0210    9.4320 C.3   202  2GP202      0.2132
     10  O3'       21.8130   21.9550    8.4790 O.3   202  2GP202     -0.2176
     11  C2'       21.3300   19.9210    9.7000 C.3   202  2GP202      0.2054
     12  O2'       20.0770   20.6060    9.9940 O.3   202  2GP202     -0.2657
     13  C1'       21.2720   19.3890    8.3230 C.3   202  2GP202      0.2266
     14  N9        20.8890   18.0100    8.0440 N.pl3 202  2GP202     -0.2354
     15  C8        20.1850   17.6250    6.9250 C.3   202  2GP202      0.2246
     16  N7        20.1980   16.3520    6.7030 N.2   202  2GP202     -0.2322
     17  C5        21.0020   15.8580    7.7320 C.2   202  2GP202      0.2182
     18  C6        21.3900   14.5310    8.0290 C.1   202  2GP202      0.2372
     19  O6        21.0480   13.5610    7.3660 O.2   202  2GP202     -0.2069
     20  N1        22.1870   14.4180    9.1640 N.2   202  2GP202     -0.2485
     21  C2        22.6060   15.5010    9.9090 C.1   202  2GP202      0.2531
     22  N2        23.3780   15.2720   10.9660 N.pl3 202  2GP202     -0.0226
     23  N3        22.2290   16.7480    9.6330 N.2   202  2GP202     -0.3074
     24  C4        21.4400   16.8560    8.5490 C.2   202  2GP202      0.2300
@<TRIPOS>BOND
     1    16    15    1
     2    16    17    2
     3    15    14    1
     4    19    18    2
     5    17    18    1
     6    17    24    1
     7     8    13    1
     8     8     7    1
     9    18    20    2
    10    14    13    1
    11    14    24    1
    12    13    11    1
    13    10     9    1
    14    24    23    2
    15     7     6    1
    16     7     9    1
    17    20    21    2
    18     6     5    1
    19     9    11    1
    20    23    21    2
    21    11    12    1
    22    21    22    1
    23    12     1    1
    24     4     1    2
    25     1     3    1
    26     1     2    1
