@<TRIPOS>MOLECULE
1bu5_RBF_A_1.pdb
 27 29 0 0 0
SMALL
GASTEIGER

@<TRIPOS>ATOM
      1  N1        17.9890   13.2700    9.4170 N.2   301  RBF301     -0.2890
      2  C2        19.2970   13.4720    9.0360 C.1   301  RBF301      0.3669
      3  O2        19.6520   12.9570    8.0080 O.2   301  RBF301     -0.1744
      4  N3        20.0450   14.2140    9.8680 N.2   301  RBF301     -0.2300
      5  C4        19.6710   14.8370   11.0410 C.1   301  RBF301      0.2513
      6  O4        20.4470   15.4940   11.6750 O.2   301  RBF301     -0.2057
      7  C4A       18.2230   14.6030   11.4010 C.2   301  RBF301      0.2700
      8  N5        17.7720   15.1100   12.5090 N.2   301  RBF301     -0.3878
      9  C5A       16.4060   14.9820   12.7630 C.2   301  RBF301      0.1320
     10  C6        15.9380   15.6790   13.9190 C.2   301  RBF301      0.0250
     11  C7        14.5950   15.5560   14.1410 C.2   301  RBF301     -0.0238
     12  C7M       13.8670   16.2270   15.3100 C.3   301  RBF301      0.0308
     13  C8        13.7860   14.7300   13.3010 C.2   301  RBF301     -0.0280
     14  C8M       12.2720   14.6590   13.6550 C.3   301  RBF301      0.0304
     15  C9        14.1910   14.0550   12.1790 C.2   301  RBF301     -0.0041
     16  C9A       15.5740   14.1900   11.9600 C.3   301  RBF301      0.1497
     17  N10       16.1670   13.5390   10.8370 N.pl3 301  RBF301     -0.2691
     18  C10       17.4500   13.7870   10.5580 C.2   301  RBF301      0.2416
     19  C1'       15.2640   12.7060   10.0150 C.3   301  RBF301      0.1294
     20  C2'       15.1240   11.3730   10.7660 C.3   301  RBF301      0.2044
     21  O2'       16.4000   10.6930   10.8720 O.3   301  RBF301     -0.2185
     22  C3'       14.3840   10.3290   10.0280 C.3   301  RBF301      0.2166
     23  O3'       15.1440    9.8230    8.9530 O.3   301  RBF301     -0.2175
     24  C4'       13.0320   10.6210    9.5420 C.3   301  RBF301      0.2175
     25  O4'       12.1040   11.2460   10.4250 O.3   301  RBF301     -0.2175
     26  C5'       12.5930    9.1320    9.2240 C.3   301  RBF301      0.2175
     27  O5'       13.7770    8.3910    8.8640 O.3   301  RBF301     -0.2175
@<TRIPOS>BOND
     1     3     2    2
     2    27    26    1
     3    23    22    1
     4     2     1    2
     5     2     4    2
     6    26    24    1
     7     1    18    2
     8    24    22    1
     9    24    25    1
    10     4     5    2
    11    19    20    1
    12    19    17    1
    13    22    20    1
    14    18    17    1
    15    18     7    1
    16    20    21    1
    17    17    16    1
    18     5     7    1
    19     5     6    2
    20     7     8    2
    21    16    15    1
    22    16     9    1
    23    15    13    2
    24     8     9    2
    25     9    10    1
    26    13    14    1
    27    13    11    1
    28    10    11    2
    29    11    12    1
