@<TRIPOS>MOLECULE
1bu7_HEM_A_1.pdb
 43 50 0 0 0
SMALL
GASTEIGER

@<TRIPOS>ATOM
      1 FE         51.9690   67.6480   45.2230 Fe    999  HEM999      0.0000
      2  CHA       54.2580   65.7060   43.5270 C.2   999  HEM999      0.0000
      3  CHB       49.4370   65.6720   44.0150 C.2   999  HEM999      0.0000
      4  CHC       49.6800   69.5180   46.9430 C.2   999  HEM999      0.0000
      5  CHD       54.4590   69.8150   46.1120 C.2   999  HEM999      0.0000
      6  NA        51.8860   66.0040   44.1150 N.ar  999  HEM999      0.0000
      7  C1A       52.9320   65.2650   43.5820 C.ar  999  HEM999      0.0000
      8  C2A       52.4370   64.0880   42.8880 C.ar  999  HEM999      0.0000
      9  C3A       51.0900   64.1240   42.9780 C.ar  999  HEM999      0.0000
     10  C4A       50.7610   65.2830   43.7680 C.ar  999  HEM999      0.0000
     11  CMA       50.0430   63.2730   42.2590 C.3   999  HEM999      0.0000
     12  CAA       53.3130   63.1600   42.0500 C.2   999  HEM999      0.0000
     13  CBA       53.5620   63.5510   40.6120 C.2   999  HEM999      0.0000
     14  CGA       54.2540   62.5300   39.7170 C.2   999  HEM999      0.0000
     15  O1A       54.3510   61.3400   40.1040 O.co2 999  HEM999      0.0000
     16  O2A       54.6780   62.9300   38.6140 O.co2 999  HEM999      0.0000
     17  NB        49.9970   67.7000   45.2990 N.2   999  HEM999      0.0000
     18  C1B       49.1060   66.7170   44.8610 C.2   999  HEM999      0.0000
     19  C2B       47.7460   67.0450   45.2150 C.2   999  HEM999      0.0000
     20  C3B       47.8150   68.1340   46.0090 C.2   999  HEM999      0.0000
     21  C4B       49.2190   68.4820   46.1350 C.2   999  HEM999      0.0000
     22  CMB       46.5520   66.1470   44.8760 C.3   999  HEM999      0.0000
     23  CAB       46.8240   68.8090   46.7460 C.2   999  HEM999      0.0000
     24  CBB       45.6730   68.3230   47.3030 C.2   999  HEM999      0.0000
     25  NC        52.0380   69.3210   46.2810 N.ar  999  HEM999      0.0000
     26  C1C       51.0300   69.9030   47.0270 C.ar  999  HEM999      0.0000
     27  C2C       51.5150   71.0670   47.7390 C.ar  999  HEM999      0.0000
     28  C3C       52.8440   71.1320   47.5070 C.ar  999  HEM999      0.0000
     29  C4C       53.1790   70.0270   46.6450 C.ar  999  HEM999      0.0000
     30  CMC       50.6550   71.9220   48.6660 C.3   999  HEM999      0.0000
     31  CAC       53.7840   72.0460   47.9860 C.2   999  HEM999      0.0000
     32  CBC       53.7330   73.0850   48.8720 C.2   999  HEM999      0.0000
     33  ND        53.9230   67.7040   44.9530 N.2   999  HEM999      0.0000
     34  C1D       54.8080   68.6890   45.3610 C.2   999  HEM999      0.0000
     35  C2D       56.1680   68.3330   45.0070 C.2   999  HEM999      0.0000
     36  C3D       56.1080   67.1700   44.3290 C.2   999  HEM999      0.0000
     37  C4D       54.7190   66.7890   44.2650 C.2   999  HEM999      0.0000
     38  CMD       57.3850   69.1580   45.4110 C.3   999  HEM999      0.0000
     39  CAD       57.2730   66.2640   43.9010 C.3   999  HEM999      0.0000
     40  CBD       57.7850   65.2960   44.9710 C.3   999  HEM999      0.0000
     41  CGD       59.0740   64.6150   44.4880 C.2   999  HEM999      0.0000
     42  O1D       60.0800   64.7410   45.2050 O.co2 999  HEM999      0.0000
     43  O2D       59.0950   63.9710   43.4380 O.co2 999  HEM999      0.0000
@<TRIPOS>BOND
     1    16    14   ar
     2    14    15   ar
     3    14    13    1
     4    13    12    2
     5    12     8    1
     6    11     9    1
     7     8     9   ar
     8     8     7   ar
     9     9    10   ar
    10    43    41   ar
    11     2     7    2
    12     2    37    1
    13     7     6   ar
    14    10     3    2
    15    10     6   ar
    16    39    36    1
    17    39    40    1
    18     3    18    1
    19     6     1    1
    20    37    36    1
    21    37    33    2
    22    36    35    2
    23    41    40    1
    24    41    42   ar
    25    18    19    1
    26    18    17    2
    27    22    19    1
    28    33     1    1
    29    33    34    1
    30    35    34    1
    31    35    38    1
    32    19    20    2
    33     1    17    1
    34     1    25    1
    35    17    21    1
    36    34     5    2
    37    20    21    1
    38    20    23    1
    39     5    29    1
    40    21     4    2
    41    25    29   ar
    42    25    26   ar
    43    29    28   ar
    44    23    24    2
    45     4    26    1
    46    26    27   ar
    47    28    27   ar
    48    28    31    1
    49    27    30    1
    50    31    32    2
