@<TRIPOS>MOLECULE
1bui_0GJ_A_1.pdb
 25 24 0 0 0
SMALL
GASTEIGER

@<TRIPOS>ATOM
      1  N         60.9360   23.2750   59.1100 N.3   246  0GJ246     -0.1231
      2  CA        61.2380   22.5250   57.8440 C.3   246  0GJ246      0.1699
      3  C         61.4560   21.0530   58.1800 C.2   246  0GJ246      0.2593
      4  O         60.6260   20.2050   57.8330 O.2   246  0GJ246     -0.2718
      5  CB        62.4920   23.0900   57.1360 C.3   246  0GJ246      0.0402
      6  CG        62.8320   22.4360   55.7710 C.3   246  0GJ246      0.1161
      7  CD        64.3340   22.2470   55.5630 C.2   246  0GJ246      0.3649
      8  OE1       65.0440   23.2580   55.3400 O.co2 246  0GJ246     -0.2457
      9  OE2       64.8030   21.0840   55.6360 O.co2 246  0GJ246     -0.2457
     10  N1        62.5790   20.7670   58.8430 N.am  246  0GJ246     -0.1942
     11  CA1       62.9050   19.4120   59.2260 C.3   246  0GJ246      0.2014
     12  C1        62.0880   18.9370   60.4140 C.2   246  0GJ246      0.2635
     13  O1        61.7020   19.7310   61.2750 O.2   246  0GJ246     -0.2714
     14  N2        61.8050   17.6380   60.4520 N.am  246  0GJ246     -0.2031
     15  CA2       61.0510   17.0500   61.5460 C.3   246  0GJ246      0.1257
     16  C2        62.0790   16.0850   62.1240 C.3   246  0GJ246      0.1718
     17  O2        61.7010   15.9230   63.4690 O.3   246  0GJ246     -0.2213
     18  CB1       59.8080   16.3230   61.0220 C.3   246  0GJ246      0.0280
     19  CG1       58.7610   17.2370   60.4300 C.3   246  0GJ246      0.0488
     20  CD1       57.9460   16.5160   59.3780 C.3   246  0GJ246      0.2205
     21  NE        57.1600   17.4560   58.5770 N.pl3 246  0GJ246     -0.0865
     22  CZ        56.0340   17.1420   57.9390 C.cat 246  0GJ246      0.5346
     23  NH1       55.5510   15.9060   57.9930 N.pl3 246  0GJ246      0.1354
     24  NH2       55.3580   18.0740   57.2840 N.pl3 246  0GJ246      0.1354
     25  C3        63.5290   16.6390   62.1180 C.3   246  0GJ246      0.0373
@<TRIPOS>BOND
     1     8     7   ar
     2     7     9   ar
     3     7     6    1
     4     6     5    1
     5     5     2    1
     6    24    22    1
     7     4     3    2
     8     2     3    1
     9     2     1    1
    10    22    23    1
    11    22    21    2
    12     3    10   am
    13    21    20    1
    14    10    11    1
    15    11    12    1
    16    20    19    1
    17    12    14   am
    18    12    13    2
    19    19    18    1
    20    14    15    1
    21    18    15    1
    22    15    16    1
    23    25    16    1
    24    16    17    1
