@<TRIPOS>MOLECULE
1bul_AP3_A_1.pdb
 17 17 0 0 0
SMALL
GASTEIGER

@<TRIPOS>ATOM
      1  C1        20.9020   19.0710    8.5050 C.2   292  AP3292      0.2117
      2  O1        21.5950   18.1820    7.9990 O.2   292  AP3292     -0.2881
      3  C2        19.7400   19.7420    7.7250 C.3   292  AP3292      0.1189
      4  C21       19.9570   21.2790    7.4910 C.3   292  AP3292      0.1358
      5  O22       20.3460   21.9180    8.7140 O.3   292  AP3292     -0.2251
      6  C3        18.3950   19.4400    8.4450 C.3   292  AP3292      0.1301
      7  S4        16.9580   19.4710    7.2710 S.3   292  AP3292     -0.1228
      8  C5        16.7380   17.6300    7.3760 C.3   292  AP3292      0.0658
      9  C51       16.5050   17.0810    5.9330 C.3   292  AP3292      0.0129
     10  C52       15.4600   17.3330    8.2450 C.3   292  AP3292      0.0129
     11  C6        18.0830   17.1190    8.0230 C.3   292  AP3292      0.1856
     12  C8        17.9660   15.7520    8.6860 C.2   292  AP3292      0.3811
     13  O81       18.0650   15.7260    9.9310 O.co2 292  AP3292     -0.2441
     14  O82       17.8540   14.7360    7.9590 O.co2 292  AP3292     -0.2441
     15  N7        18.4410   18.1110    9.0320 N.3   292  AP3292     -0.1975
     16  C9        18.6720   21.9370    6.9870 C.3   292  AP3292      0.0335
     17  C10       21.0580   21.4920    6.4610 C.3   292  AP3292      0.0335
@<TRIPOS>BOND
     1     9     8    1
     2    17     4    1
     3    16     4    1
     4     7     8    1
     5     7     6    1
     6     8    11    1
     7     8    10    1
     8     4     3    1
     9     4     5    1
    10     3     6    1
    11     3     1    1
    12    14    12   ar
    13     2     1    2
    14    11    12    1
    15    11    15    1
    16     6    15    1
    17    12    13   ar
