@<TRIPOS>MOLECULE
1bup_ADP_A_1.pdb
 27 29 0 0 0
SMALL
GASTEIGER

@<TRIPOS>ATOM
      1  PB        17.5220   29.5800   16.5170 P.3   486  ADP486      0.5373
      2  O1B       17.2980   30.1960   17.8790 O.3   486  ADP486     -0.1143
      3  O2B       18.6050   28.4520   16.5130 O.3   486  ADP486     -0.1143
      4  O3B       16.2290   29.0440   15.9740 O.2   486  ADP486     -0.2221
      5  PA        19.3860   31.5040   15.3060 P.3   486  ADP486      0.2231
      6  O1A       20.0380   31.8590   16.5550 O.3   486  ADP486     -0.4370
      7  O2A       19.3980   32.1710   14.0260 O.2   486  ADP486     -0.5169
      8  O3A       18.0400   30.7300   15.5690 O.3   486  ADP486     -0.2261
      9  O5'       18.6760   32.9790   15.6330 O.3   486  ADP486     -0.3111
     10  C5'       18.1700   33.4550   16.8810 C.3   486  ADP486      0.1813
     11  C4'       19.0900   34.4610   17.6330 C.3   486  ADP486      0.1821
     12  O4'       20.3760   34.9050   17.0780 O.3   486  ADP486     -0.3135
     13  C3'       18.3340   35.7290   18.0360 C.3   486  ADP486      0.2184
     14  O3'       18.3540   35.9490   19.4230 O.3   486  ADP486     -0.2174
     15  C2'       19.0140   36.8300   17.2490 C.3   486  ADP486      0.2570
     16  O2'       18.7640   38.1510   17.7640 O.3   486  ADP486     -0.2130
     17  C1'       20.4430   36.3480   17.3090 C.3   486  ADP486      0.3186
     18  N9        21.3470   37.0630   16.3460 N.pl3 486  ADP486     -0.1439
     19  C8        21.2790   37.0100   14.9890 C.3   486  ADP486      0.3377
     20  N7        22.2470   37.7770   14.4680 N.2   486  ADP486     -0.2095
     21  C5        22.9210   38.3250   15.4780 C.2   486  ADP486      0.2526
     22  C6        23.9950   39.2000   15.5970 C.2   486  ADP486      0.4393
     23  N6        24.5790   39.6930   14.4890 N.pl3 486  ADP486      0.2180
     24  N1        24.4630   39.5720   16.8660 N.2   486  ADP486      0.0021
     25  C2        23.8840   39.0970   18.0060 C.3   486  ADP486      0.5254
     26  N3        22.8340   38.2540   17.8940 N.2   486  ADP486     -0.0055
     27  C4        22.3350   37.8520   16.6850 C.2   486  ADP486      0.3518
@<TRIPOS>BOND
     1     7     5    2
     2    20    19    1
     3    20    21    2
     4    23    22    1
     5    19    18    1
     6     5     8    1
     7     5     9    1
     8     5     6    1
     9    21    22    1
    10    21    27    1
    11     8     1    1
    12    22    24    2
    13     9    10    1
    14     4     1    2
    15    18    27    1
    16    18    17    1
    17     3     1    1
    18     1     2    1
    19    27    26    2
    20    24    25    1
    21    10    11    1
    22    12    17    1
    23    12    11    1
    24    15    17    1
    25    15    16    1
    26    15    13    1
    27    11    13    1
    28    26    25    1
    29    13    14    1
