@<TRIPOS>MOLECULE
1buw_HEM_A_1.pdb
 43 50 0 0 0
SMALL
GASTEIGER

@<TRIPOS>ATOM
      1 FE         48.2840   27.7210   30.6450 Fe    142  HEM142      0.0000
      2  CHA       49.0030   24.3460   30.5630 C.2   142  HEM142      0.0000
      3  CHB       49.7610   27.9290   33.7160 C.2   142  HEM142      0.0000
      4  CHC       47.8970   31.1290   30.6210 C.2   142  HEM142      0.0000
      5  CHD       46.6720   27.4720   27.6940 C.2   142  HEM142      0.0000
      6  NA        49.2180   26.4190   31.8580 N.2   142  HEM142      0.0000
      7  C1A       49.3420   25.0550   31.6990 C.2   142  HEM142      0.0000
      8  C2A       49.8950   24.4810   32.9110 C.2   142  HEM142      0.0000
      9  C3A       50.0930   25.4670   33.7740 C.2   142  HEM142      0.0000
     10  C4A       49.6820   26.6960   33.1220 C.2   142  HEM142      0.0000
     11  CMA       50.6580   25.4700   35.2090 C.3   142  HEM142      0.0000
     12  CAA       50.1560   22.9710   33.0770 C.3   142  HEM142      0.0000
     13  CBA       51.6120   22.5530   33.3200 C.3   142  HEM142      0.0000
     14  CGA       51.8230   21.0570   33.2190 C.2   142  HEM142      0.0000
     15  O1A       52.2950   20.6570   32.1260 O.co2 142  HEM142      0.0000
     16  O2A       51.4810   20.3560   34.2080 O.co2 142  HEM142      0.0000
     17  NB        48.7230   29.2170   31.9140 N.ar  142  HEM142      0.0000
     18  C1B       49.3760   29.1010   33.1310 C.ar  142  HEM142      0.0000
     19  C2B       49.5880   30.4090   33.6940 C.ar  142  HEM142      0.0000
     20  C3B       49.0750   31.3080   32.8480 C.ar  142  HEM142      0.0000
     21  C4B       48.5160   30.5760   31.7220 C.ar  142  HEM142      0.0000
     22  CMB       50.2920   30.6220   35.0670 C.3   142  HEM142      0.0000
     23  CAB       49.0270   32.8420   32.9880 C.2   142  HEM142      0.0000
     24  CBB       48.5970   33.4100   34.1190 C.2   142  HEM142      0.0000
     25  NC        47.4810   29.0460   29.3900 N.2   142  HEM142      0.0000
     26  C1C       47.3580   30.4120   29.5620 C.2   142  HEM142      0.0000
     27  C2C       46.5580   30.9640   28.4860 C.2   142  HEM142      0.0000
     28  C3C       46.2140   29.9520   27.6820 C.2   142  HEM142      0.0000
     29  C4C       46.7800   28.7440   28.2370 C.2   142  HEM142      0.0000
     30  CMC       46.2230   32.4720   28.3870 C.3   142  HEM142      0.0000
     31  CAC       45.3880   29.9320   26.3740 C.2   142  HEM142      0.0000
     32  CBC       44.1960   30.5060   26.2860 C.2   142  HEM142      0.0000
     33  ND        47.9320   26.2290   29.3650 N.ar  142  HEM142      0.0000
     34  C1D       47.2140   26.3050   28.1840 C.ar  142  HEM142      0.0000
     35  C2D       47.1260   25.0000   27.5870 C.ar  142  HEM142      0.0000
     36  C3D       47.7930   24.1550   28.3730 C.ar  142  HEM142      0.0000
     37  C4D       48.2830   24.8930   29.5110 C.ar  142  HEM142      0.0000
     38  CMD       46.3970   24.7170   26.2500 C.3   142  HEM142      0.0000
     39  CAD       47.9920   22.6170   28.2390 C.3   142  HEM142      0.0000
     40  CBD       46.8460   21.8580   28.9470 C.3   142  HEM142      0.0000
     41  CGD       46.8100   20.3770   28.7060 C.2   142  HEM142      0.0000
     42  O1D       46.6880   19.9920   27.5170 O.co2 142  HEM142      0.0000
     43  O2D       46.8940   19.6550   29.7280 O.co2 142  HEM142      0.0000
@<TRIPOS>BOND
     1    38    35    1
     2    32    31    2
     3    31    28    1
     4    42    41   ar
     5    35    34   ar
     6    35    36   ar
     7    28    29    1
     8    28    27    2
     9     5    34    2
    10     5    29    1
    11    34    33   ar
    12    29    25    2
    13    39    36    1
    14    39    40    1
    15    36    37   ar
    16    30    27    1
    17    27    26    1
    18    41    40    1
    19    41    43   ar
    20    33    37   ar
    21    33     1    1
    22    25    26    1
    23    25     1    1
    24    37     2    2
    25    26     4    2
    26     2     7    1
    27     4    21    1
    28     1     6    1
    29     1    17    1
    30     7     6    2
    31     7     8    1
    32    21    17   ar
    33    21    20   ar
    34     6    10    1
    35    17    18   ar
    36    15    14   ar
    37    20    23    1
    38    20    19   ar
    39     8    12    1
    40     8     9    2
    41    23    24    2
    42    12    13    1
    43    10     3    2
    44    10     9    1
    45    18    19   ar
    46    18     3    1
    47    14    13    1
    48    14    16   ar
    49    19    22    1
    50     9    11    1
