@<TRIPOS>MOLECULE
1bux_PPS_A_1.pdb
 31 33 0 0 0
SMALL
GASTEIGER

@<TRIPOS>ATOM
      1  S2        64.4620   31.8270   -4.9270 S.3   160  PPS160      0.0049
      2  OS1       63.4630   30.8240   -4.4800 O.2   160  PPS160     -0.3449
      3  OS2       64.5460   31.9960   -6.3970 O.2   160  PPS160     -0.3449
      4  OS3       64.4110   33.0890   -4.1860 O.3   160  PPS160     -0.2679
      5  O6P       65.8810   31.1630   -4.5200 O.3   160  PPS160     -0.1945
      6  P2        66.1600   30.0620   -3.3690 P.3   160  PPS160      0.2383
      7  O4P       65.0080   30.1890   -2.4640 O.3   160  PPS160     -0.4361
      8  O5P       66.4880   28.7610   -4.0030 O.2   160  PPS160     -0.5161
      9  O5'       67.4730   30.6040   -2.6090 O.3   160  PPS160     -0.3102
     10  C5'       67.8820   31.8910   -2.6870 C.3   160  PPS160      0.1813
     11  C4'       68.7900   32.1000   -1.5790 C.3   160  PPS160      0.1795
     12  O4'       68.8780   33.5340   -1.5560 O.3   160  PPS160     -0.3136
     13  C1'       67.8500   34.1180   -0.7090 C.3   160  PPS160      0.3185
     14  N9        66.9980   34.9130   -1.5320 N.pl3 160  PPS160     -0.1439
     15  C4        66.7830   36.2510   -1.4840 C.2   160  PPS160      0.3518
     16  N3        67.4520   37.1230   -0.6970 N.2   160  PPS160     -0.0055
     17  C2        66.9180   38.2970   -0.9720 C.3   160  PPS160      0.5254
     18  N1        65.9440   38.6950   -1.8470 N.2   160  PPS160      0.0021
     19  C6        65.3080   37.8040   -2.6120 C.2   160  PPS160      0.4393
     20  N6        64.2650   38.1200   -3.4060 N.pl3 160  PPS160      0.2180
     21  C5        65.7680   36.5080   -2.4140 C.2   160  PPS160      0.2526
     22  N7        65.3500   35.3550   -3.0020 N.2   160  PPS160     -0.2095
     23  C8        66.1200   34.4670   -2.4500 C.3   160  PPS160      0.3377
     24  C2'       67.0910   32.8950   -0.1870 C.3   160  PPS160      0.2543
     25  O2'       66.5500   33.0530    1.1330 O.3   160  PPS160     -0.2131
     26  C3'       68.1600   31.7600   -0.2230 C.3   160  PPS160      0.1928
     27  O3'       69.0870   31.9080    0.9300 O.3   160  PPS160     -0.2673
     28  P1        69.3600   30.6950    1.9750 P.3   160  PPS160      0.5327
     29  O1P       70.0190   31.3830    3.1250 O.3   160  PPS160     -0.1145
     30  O2P       68.0080   30.1210    2.2090 O.3   160  PPS160     -0.1145
     31  O3P       70.2490   29.7790    1.2460 O.2   160  PPS160     -0.2224
@<TRIPOS>BOND
     1     3     1    2
     2     1     5    1
     3     1     2    2
     4     1     4    1
     5     5     6    1
     6     8     6    2
     7    20    19    1
     8     6     9    1
     9     6     7    1
    10    22    23    1
    11    22    21    2
    12    10     9    1
    13    10    11    1
    14    19    21    1
    15    19    18    2
    16    23    14    1
    17    21    15    1
    18    18    17    1
    19    11    12    1
    20    11    26    1
    21    12    13    1
    22    14    15    1
    23    14    13    1
    24    15    16    2
    25    17    16    1
    26    13    24    1
    27    26    24    1
    28    26    27    1
    29    24    25    1
    30    27    28    1
    31    31    28    2
    32    28    30    1
    33    28    29    1
