@<TRIPOS>MOLECULE
1bva_HEM_A_1.pdb
 43 50 0 0 0
SMALL
GASTEIGER

@<TRIPOS>ATOM
      1 FE         27.9790   89.5680   51.2660 Fe    390  HEM390      0.0000
      2  CHA       27.5060   91.6340   48.6350 C.2   390  HEM390      0.0000
      3  CHB       30.2300   91.6490   52.5730 C.2   390  HEM390      0.0000
      4  CHC       28.2240   87.5830   53.9810 C.2   390  HEM390      0.0000
      5  CHD       25.2580   87.7800   50.2370 C.2   390  HEM390      0.0000
      6  NA        28.9320   91.2250   50.5740 N.2   390  HEM390      0.0000
      7  C1A       28.6420   91.8890   49.4560 C.2   390  HEM390      0.0000
      8  C2A       29.3460   93.0780   49.4260 C.2   390  HEM390      0.0000
      9  C3A       30.2230   93.0450   50.5200 C.2   390  HEM390      0.0000
     10  C4A       29.7640   92.0010   51.2970 C.2   390  HEM390      0.0000
     11  CMA       31.1840   94.1440   50.9410 C.3   390  HEM390      0.0000
     12  CAA       29.1700   94.1280   48.3240 C.3   390  HEM390      0.0000
     13  CBA       28.0600   95.1370   48.5450 C.3   390  HEM390      0.0000
     14  CGA       28.1340   96.1940   47.4060 C.2   390  HEM390      0.0000
     15  O1A       29.2580   96.5420   47.0400 O.co2 390  HEM390      0.0000
     16  O2A       27.2680   96.1460   46.5270 O.co2 390  HEM390      0.0000
     17  NB        29.0990   89.5910   52.9950 N.ar  390  HEM390      0.0000
     18  C1B       30.1060   90.4210   53.2620 C.ar  390  HEM390      0.0000
     19  C2B       30.6150   90.1730   54.5490 C.ar  390  HEM390      0.0000
     20  C3B       30.0540   88.9630   54.9220 C.ar  390  HEM390      0.0000
     21  C4B       29.1290   88.6460   53.9160 C.ar  390  HEM390      0.0000
     22  CMB       31.9010   90.8190   55.0630 C.3   390  HEM390      0.0000
     23  CAB       30.4090   88.0250   55.8990 C.3   390  HEM390      0.0000
     24  CBB       31.5830   87.9930   56.7290 C.3   390  HEM390      0.0000
     25  NC        26.8730   87.9950   52.0140 N.2   390  HEM390      0.0000
     26  C1C       27.0960   87.3520   53.1680 C.2   390  HEM390      0.0000
     27  C2C       26.1810   86.3280   53.3930 C.2   390  HEM390      0.0000
     28  C3C       25.3500   86.3460   52.2640 C.2   390  HEM390      0.0000
     29  C4C       25.8280   87.3710   51.4490 C.2   390  HEM390      0.0000
     30  CMC       26.0040   85.5530   54.7050 C.3   390  HEM390      0.0000
     31  CAC       24.0780   85.7680   52.0860 C.3   390  HEM390      0.0000
     32  CBC       23.7450   84.3710   52.3190 C.3   390  HEM390      0.0000
     33  ND        26.5640   89.7130   49.7220 N.ar  390  HEM390      0.0000
     34  C1D       25.7100   88.7500   49.3520 C.ar  390  HEM390      0.0000
     35  C2D       25.0800   89.0930   48.1480 C.ar  390  HEM390      0.0000
     36  C3D       26.0210   89.9390   47.5590 C.ar  390  HEM390      0.0000
     37  C4D       26.7020   90.4980   48.6470 C.ar  390  HEM390      0.0000
     38  CMD       24.0000   88.2980   47.4260 C.3   390  HEM390      0.0000
     39  CAD       26.1190   90.3800   46.0870 C.3   390  HEM390      0.0000
     40  CBD       25.3920   91.7150   45.9110 C.3   390  HEM390      0.0000
     41  CGD       25.4960   92.3610   44.5170 C.2   390  HEM390      0.0000
     42  O1D       25.9280   91.7240   43.5700 O.co2 390  HEM390      0.0000
     43  O2D       24.8180   93.3760   44.4140 O.co2 390  HEM390      0.0000
@<TRIPOS>BOND
     1    42    41   ar
     2    43    41   ar
     3    41    40    1
     4    40    39    1
     5    39    36    1
     6    16    14   ar
     7    15    14   ar
     8    14    13    1
     9    38    35    1
    10    36    35   ar
    11    36    37   ar
    12    35    34   ar
    13    12    13    1
    14    12     8    1
    15     2    37    2
    16     2     7    1
    17    37    33   ar
    18    34    33   ar
    19    34     5    2
    20     8     7    1
    21     8     9    2
    22     7     6    2
    23    33     1    1
    24     5    29    1
    25     9    11    1
    26     9    10    1
    27     6     1    1
    28     6    10    1
    29     1    25    1
    30     1    17    1
    31    10     3    2
    32    29    25    2
    33    29    28    1
    34    25    26    1
    35    31    28    1
    36    31    32    1
    37    28    27    2
    38     3    18    1
    39    17    18   ar
    40    17    21   ar
    41    26    27    1
    42    26     4    2
    43    18    19   ar
    44    27    30    1
    45    21     4    1
    46    21    20   ar
    47    19    20   ar
    48    19    22    1
    49    20    23    1
    50    23    24    1
