@<TRIPOS>MOLECULE
1bvb_HEM_A_1.pdb
 43 50 0 0 0
SMALL
GASTEIGER

@<TRIPOS>ATOM
      1 FE         59.0950   90.5300   98.8440 Fe    213  HEM213      0.0000
      2  CHA       58.1420   87.6300   97.3470 C.2   213  HEM213      0.0000
      3  CHB       61.0990   88.7870  100.9860 C.2   213  HEM213      0.0000
      4  CHC       60.2120   93.4200  100.1790 C.2   213  HEM213      0.0000
      5  CHD       56.8240   92.2270   96.9610 C.2   213  HEM213      0.0000
      6  NA        59.5350   88.6220   99.1040 N.2   213  HEM213      0.0000
      7  C1A       59.0660   87.5440   98.3820 C.2   213  HEM213      0.0000
      8  C2A       59.6450   86.2930   98.8550 C.2   213  HEM213      0.0000
      9  C3A       60.4520   86.5970   99.8920 C.2   213  HEM213      0.0000
     10  C4A       60.3840   88.0610  100.0400 C.2   213  HEM213      0.0000
     11  CMA       61.2700   85.6110  100.7190 C.3   213  HEM213      0.0000
     12  CAA       59.3980   84.9070   98.3090 C.3   213  HEM213      0.0000
     13  CBA       60.3890   84.5830   97.2000 C.3   213  HEM213      0.0000
     14  CGA       60.4440   83.0990   96.8570 C.2   213  HEM213      0.0000
     15  O1A       59.4520   82.6070   96.2420 O.co2 213  HEM213      0.0000
     16  O2A       61.4770   82.4150   97.1980 O.co2 213  HEM213      0.0000
     17  NB        60.3610   90.9910  100.2850 N.ar  213  HEM213      0.0000
     18  C1B       61.0920   90.1560  101.1190 C.ar  213  HEM213      0.0000
     19  C2B       61.9330   90.9000  102.0600 C.ar  213  HEM213      0.0000
     20  C3B       61.7560   92.2210  101.7650 C.ar  213  HEM213      0.0000
     21  C4B       60.7600   92.2560  100.6840 C.ar  213  HEM213      0.0000
     22  CMB       62.8180   90.3460  103.1820 C.3   213  HEM213      0.0000
     23  CAB       62.3980   93.4680  102.4140 C.3   213  HEM213      0.0000
     24  CBB       63.8920   93.5770  102.1750 C.3   213  HEM213      0.0000
     25  NC        58.6220   92.4110   98.6360 N.2   213  HEM213      0.0000
     26  C1C       59.1890   93.4910   99.2590 C.2   213  HEM213      0.0000
     27  C2C       58.5650   94.7170   98.8670 C.2   213  HEM213      0.0000
     28  C3C       57.6020   94.3800   98.0270 C.2   213  HEM213      0.0000
     29  C4C       57.6410   92.9550   97.8400 C.2   213  HEM213      0.0000
     30  CMC       58.8820   96.1340   99.3350 C.3   213  HEM213      0.0000
     31  CAC       56.5980   95.3420   97.4170 C.3   213  HEM213      0.0000
     32  CBC       57.0910   96.6220   96.7280 C.3   213  HEM213      0.0000
     33  ND        57.7970   90.0400   97.4420 N.ar  213  HEM213      0.0000
     34  C1D       56.9070   90.8650   96.7550 C.ar  213  HEM213      0.0000
     35  C2D       56.1070   90.1160   95.8050 C.ar  213  HEM213      0.0000
     36  C3D       56.5150   88.8050   95.9060 C.ar  213  HEM213      0.0000
     37  C4D       57.5390   88.7740   96.9140 C.ar  213  HEM213      0.0000
     38  CMD       55.0020   90.6590   94.8730 C.3   213  HEM213      0.0000
     39  CAD       55.8700   87.6900   95.1170 C.2   213  HEM213      0.0000
     40  CBD       54.6090   87.0910   95.6860 C.2   213  HEM213      0.0000
     41  CGD       54.1620   85.7920   95.1210 C.2   213  HEM213      0.0000
     42  O1D       53.0800   85.3610   95.5370 O.co2 213  HEM213      0.0000
     43  O2D       54.8670   85.1940   94.2710 O.co2 213  HEM213      0.0000
@<TRIPOS>BOND
     1    43    41   ar
     2    38    35    1
     3    39    40    2
     4    39    36    1
     5    41    42   ar
     6    41    40    1
     7    35    36   ar
     8    35    34   ar
     9    36    37   ar
    10    15    14   ar
    11    32    31    1
    12    34     5    2
    13    34    33   ar
    14    14    16   ar
    15    14    13    1
    16    37     2    2
    17    37    33   ar
    18     5    29    1
    19    13    12    1
    20     2     7    1
    21    31    28    1
    22    33     1    1
    23    29    28    1
    24    29    25    2
    25    28    27    2
    26    12     8    1
    27     7     8    1
    28     7     6    2
    29    25     1    1
    30    25    26    1
    31     1     6    1
    32     1    17    1
    33     8     9    2
    34    27    26    1
    35    27    30    1
    36     6    10    1
    37    26     4    2
    38     9    10    1
    39     9    11    1
    40    10     3    2
    41     4    21    1
    42    17    21   ar
    43    17    18   ar
    44    21    20   ar
    45     3    18    1
    46    18    19   ar
    47    20    19   ar
    48    20    23    1
    49    19    22    1
    50    24    23    1
