@<TRIPOS>MOLECULE
1bvc_BLA_A_1.pdb
 43 46 0 0 0
SMALL
GASTEIGER

@<TRIPOS>ATOM
      1  CHA        1.8850    6.3230   -0.0700 C.3   154  BLA154      0.1170
      2  NA         2.2400    6.7270    2.3250 N.2   154  BLA154     -0.4104
      3  C1A        2.4500    7.0260    0.9870 C.2   154  BLA154      0.1114
      4  C2A        3.2610    8.2340    0.8410 C.2   154  BLA154      0.0024
      5  C3A        3.5390    8.6570    2.1030 C.2   154  BLA154      0.0021
      6  C4A        2.8990    7.7230    3.0260 C.2   154  BLA154      0.1114
      7  CMA        4.3670    9.8980    2.4630 C.3   154  BLA154      0.0331
      8  CAA        3.7260    8.8990   -0.4560 C.3   154  BLA154      0.0402
      9  CBA        3.0830   10.2480   -0.7940 C.3   154  BLA154      0.1188
     10  CGA        1.5730   10.1450   -0.8930 C.2   154  BLA154      0.3652
     11  O1A        0.8480   10.8990   -0.2390 O.co2 154  BLA154     -0.2456
     12  O2A        0.9240    9.1960   -1.6900 O.co2 154  BLA154     -0.2456
     13  CHB        2.9450    7.8050    4.4300 C.3   154  BLA154      0.1181
     14  NB         1.9510    5.6450    4.9670 N.2   154  BLA154     -0.3375
     15  C1B        2.4550    6.8730    5.3500 C.2   154  BLA154      0.1254
     16  C2B        2.3980    7.0460    6.8310 C.2   154  BLA154      0.0128
     17  C3B        1.8550    5.8810    7.3180 C.2   154  BLA154      0.0706
     18  C4B        1.6120    5.0480    6.1530 C.1   154  BLA154      0.2000
     19  CMB        2.8450    8.2830    7.6300 C.3   154  BLA154      0.0339
     20  OB         1.3300    3.8710    6.2540 O.2   154  BLA154     -0.2096
     21  CAB        1.5480    5.4420    8.6130 C.3   154  BLA154      0.0390
     22  CBB        1.9340    6.0030    9.8810 C.3   154  BLA154      0.0058
     23  NC        -0.8780    4.1020    3.8040 N.2   154  BLA154     -0.3375
     24  C1C       -1.2920    3.7820    5.0810 C.1   154  BLA154      0.2000
     25  C2C       -1.6630    2.3890    5.2260 C.2   154  BLA154      0.0710
     26  C3C       -1.5540    1.8420    3.9690 C.2   154  BLA154      0.0125
     27  C4C       -1.0900    2.9380    3.0830 C.2   154  BLA154      0.1254
     28  CMC       -2.0090    1.7260    6.5580 C.3   154  BLA154      0.0445
     29  OC        -1.4760    4.6120    5.9470 O.2   154  BLA154     -0.2096
     30  CAC       -1.7220    0.5100    3.5400 C.3   154  BLA154      0.0291
     31  CBC       -2.6490   -0.4790    4.0560 C.3   154  BLA154      0.0051
     32  CHD       -0.9140    2.8040    1.6980 C.3   154  BLA154      0.1181
     33  ND         0.4370    4.7950    1.1780 N.2   154  BLA154     -0.4104
     34  C1D       -0.2800    3.6670    0.7970 C.2   154  BLA154      0.1114
     35  C2D       -0.2410    3.4530   -0.6450 C.2   154  BLA154      0.0021
     36  C3D        0.5740    4.4160   -1.1290 C.2   154  BLA154      0.0024
     37  C4D        0.9780    5.2640    0.0040 C.2   154  BLA154      0.1114
     38  CMD       -0.9880    2.4240   -1.4970 C.3   154  BLA154      0.0331
     39  CAD        1.0600    4.5020   -2.5760 C.3   154  BLA154      0.0402
     40  CBD        2.2770    3.6060   -2.8010 C.3   154  BLA154      0.1188
     41  CGD        2.8820    3.7550   -4.1920 C.2   154  BLA154      0.3652
     42  O1D        4.1040    3.6020   -4.3690 O.co2 154  BLA154     -0.2456
     43  O2D        2.1030    4.0810   -5.3330 O.co2 154  BLA154     -0.2456
@<TRIPOS>BOND
     1    43    41   ar
     2    42    41   ar
     3    41    40    1
     4    40    39    1
     5    39    36    1
     6    12    10   ar
     7    38    35    1
     8    36    35    2
     9    36    37    1
    10    10     9    1
    11    10    11   ar
    12     9     8    1
    13    35    34    1
    14     8     4    1
    15     1    37    1
    16     1     3    1
    17    37    33    2
    18    34    33    2
    19    34    32    1
    20     4     3    1
    21     4     5    2
    22     3     2    2
    23    32    27    1
    24     5     7    1
    25     5     6    1
    26     2     6    2
    27     6    13    1
    28    27    23    2
    29    27    26    1
    30    30    26    1
    31    30    31    1
    32    23    24    2
    33    26    25    2
    34    13    15    1
    35    14    15    2
    36    14    18    2
    37    24    25    1
    38    24    29    2
    39    25    28    1
    40    15    16    1
    41    18    20    2
    42    18    17    1
    43    16    17    2
    44    16    19    1
    45    17    21    1
    46    21    22    1
