@<TRIPOS>MOLECULE
1bvd_BLA_A_1.pdb
 43 46 0 0 0
SMALL
GASTEIGER

@<TRIPOS>ATOM
      1  CHA        6.2660   14.9350   29.8620 C.3   154  BLA154      0.1170
      2  NA         5.6340   16.5390   31.5860 N.2   154  BLA154     -0.4104
      3  C1A        5.9520   15.2570   31.1910 C.2   154  BLA154      0.1114
      4  C2A        6.0230   14.3560   32.3580 C.2   154  BLA154      0.0024
      5  C3A        5.7360   15.1470   33.4230 C.2   154  BLA154      0.0021
      6  C4A        5.4760   16.4970   32.9370 C.2   154  BLA154      0.1111
      7  CMA        5.6020   14.7250   34.8710 C.3   154  BLA154      0.0331
      8  CAA        6.2740   12.8470   32.3620 C.3   154  BLA154      0.0402
      9  CBA        7.7290   12.4670   32.8030 C.3   154  BLA154      0.1188
     10  CGA        8.8600   13.2250   32.0990 C.2   154  BLA154      0.3652
     11  O1A        9.1770   13.0920   30.8940 O.co2 154  BLA154     -0.2456
     12  O2A        9.3740   14.3020   32.7970 O.co2 154  BLA154     -0.2456
     13  CHB        5.0930   17.6060   33.7100 C.3   154  BLA154      0.1142
     14  NB         4.4460   19.1040   31.9370 N.2   154  BLA154     -0.3412
     15  C1B        4.6680   18.8630   33.2660 C.2   154  BLA154      0.1111
     16  C2B        4.3370   20.0620   34.0990 C.3   154  BLA154      0.0835
     17  C3B        3.8700   21.0210   33.2010 C.2   154  BLA154      0.0742
     18  C4B        3.9380   20.3780   31.9000 C.1   154  BLA154      0.2000
     19  CMB        4.4920   20.1910   35.6120 C.3   154  BLA154      0.0127
     20  OB         3.5680   20.8930   30.8490 O.2   154  BLA154     -0.2096
     21  CAB        3.3910   22.3230   33.3300 C.2   154  BLA154     -0.0171
     22  CBB        3.4700   23.1230   34.4680 C.3   154  BLA154      0.0312
     23  NC         6.2120   20.2000   29.2080 N.2   154  BLA154     -0.3375
     24  C1C        6.0590   21.5340   29.5670 C.1   154  BLA154      0.2000
     25  C2C        5.6270   22.3490   28.4690 C.2   154  BLA154      0.0710
     26  C3C        5.6220   21.5550   27.3770 C.2   154  BLA154      0.0125
     27  C4C        6.0350   20.1650   27.8530 C.2   154  BLA154      0.1254
     28  CMC        5.0820   23.7760   28.6560 C.3   154  BLA154      0.0445
     29  OC         6.3090   22.0010   30.6840 O.2   154  BLA154     -0.2096
     30  CAC        5.1150   22.0380   26.1590 C.3   154  BLA154      0.0291
     31  CBC        5.3880   21.6060   24.8110 C.3   154  BLA154      0.0051
     32  CHD        6.2140   18.9850   27.1210 C.3   154  BLA154      0.1181
     33  ND         6.3090   17.2070   28.8320 N.2   154  BLA154     -0.4104
     34  C1D        6.4130   17.6700   27.5370 C.2   154  BLA154      0.1114
     35  C2D        6.6800   16.5580   26.6400 C.2   154  BLA154      0.0021
     36  C3D        6.6870   15.4330   27.3980 C.2   154  BLA154      0.0024
     37  C4D        6.4440   15.8320   28.7640 C.2   154  BLA154      0.1114
     38  CMD        6.9570   16.6280   25.1340 C.3   154  BLA154      0.0331
     39  CAD        6.7740   14.0150   26.8930 C.3   154  BLA154      0.0402
     40  CBD        5.3810   13.6300   26.3270 C.3   154  BLA154      0.1188
     41  CGD        5.3970   12.1850   25.8590 C.2   154  BLA154      0.3652
     42  O1D        6.4150   11.6740   25.3770 O.co2 154  BLA154     -0.2456
     43  O2D        4.3260   11.3460   26.0150 O.co2 154  BLA154     -0.2456
@<TRIPOS>BOND
     1    31    30    1
     2    38    35    1
     3    42    41   ar
     4    41    43   ar
     5    41    40    1
     6    30    26    1
     7    40    39    1
     8    35    36    2
     9    35    34    1
    10    39    36    1
    11    32    34    1
    12    32    27    1
    13    26    27    1
    14    26    25    2
    15    36    37    1
    16    34    33    2
    17    27    23    2
    18    25    28    1
    19    25    24    1
    20    37    33    2
    21    37     1    1
    22    23    24    2
    23    24    29    2
    24     1     3    1
    25    20    18    2
    26    11    10   ar
    27     3     2    2
    28     3     4    1
    29     2     6    2
    30    18    14    2
    31    18    17    1
    32    14    15    2
    33    10    12   ar
    34    10     9    1
    35     4     8    1
    36     4     5    2
    37     8     9    1
    38     6     5    1
    39     6    13    1
    40    17    21    2
    41    17    16    1
    42    15    13    1
    43    15    16    1
    44    21    22    1
    45     5     7    1
    46    16    19    1
