@<TRIPOS>MOLECULE
1bvi_2GP_A_1.pdb
 24 26 0 0 0
SMALL
GASTEIGER

@<TRIPOS>ATOM
      1  P         17.9350   30.2940   52.5930 P.3   252  2GP252      0.5327
      2  O1P       16.4990   29.9610   52.7780 O.3   252  2GP252     -0.1145
      3  O2P       18.7450   29.2430   51.9310 O.2   252  2GP252     -0.2224
      4  O3P       18.5850   30.9560   53.7490 O.3   252  2GP252     -0.1145
      5  O5'       22.3400   32.6010   51.5640 O.3   252  2GP252     -0.2176
      6  C5'       21.9120   33.9540   51.7100 C.3   252  2GP252      0.2142
      7  C4'       20.4120   34.2100   51.3860 C.3   252  2GP252      0.1827
      8  O4'       20.1390   33.8740   50.0040 O.3   252  2GP252     -0.3326
      9  C3'       19.4470   33.3610   52.2320 C.3   252  2GP252      0.2132
     10  O3'       18.2290   34.1180   52.3970 O.3   252  2GP252     -0.2176
     11  C2'       19.2110   32.1540   51.3120 C.3   252  2GP252      0.2054
     12  O2'       17.9450   31.4900   51.5200 O.3   252  2GP252     -0.2657
     13  C1'       19.1300   32.8320   49.9830 C.3   252  2GP252      0.2266
     14  N9        19.4690   31.9840   48.8490 N.pl3 252  2GP252     -0.2354
     15  C8        18.8260   31.9880   47.6390 C.3   252  2GP252      0.2246
     16  N7        19.4460   31.3010   46.7320 N.2   252  2GP252     -0.2322
     17  C5        20.5730   30.7970   47.3860 C.2   252  2GP252      0.2182
     18  C6        21.6370   29.9910   46.9000 C.1   252  2GP252      0.2372
     19  O6        21.7660   29.5940   45.7450 O.2   252  2GP252     -0.2069
     20  N1        22.5860   29.7010   47.8670 N.2   252  2GP252     -0.2485
     21  C2        22.5190   30.1430   49.1700 C.1   252  2GP252      0.2531
     22  N2        23.4740   29.7220   49.9890 N.pl3 252  2GP252     -0.0226
     23  N3        21.5260   30.9110   49.6200 N.2   252  2GP252     -0.3074
     24  C4        20.5910   31.2010   48.6900 C.2   252  2GP252      0.2300
@<TRIPOS>BOND
     1    19    18    2
     2    16    17    2
     3    16    15    1
     4    18    17    1
     5    18    20    2
     6    17    24    1
     7    15    14    1
     8    20    21    2
     9    24    14    1
    10    24    23    2
    11    14    13    1
    12    21    23    2
    13    21    22    1
    14    13     8    1
    15    13    11    1
    16     8     7    1
    17    11    12    1
    18    11     9    1
    19     7     6    1
    20     7     9    1
    21    12     1    1
    22     5     6    1
    23     3     1    2
    24     9    10    1
    25     1     2    1
    26     1     4    1
