@<TRIPOS>MOLECULE
1bvr_NAD_A_1.pdb
 44 48 0 0 0
SMALL
GASTEIGER

@<TRIPOS>ATOM
      1  PA        19.4840   11.6840   16.6270 P.3   1301  NAD1301     0.2189
      2  O1A       19.9620   12.1040   15.2910 O.2   1301  NAD1301    -0.5170
      3  O2A       19.7960   12.6230   17.7530 O.3   1301  NAD1301    -0.4371
      4  O5B       19.9250   10.0890   16.8650 O.3   1301  NAD1301    -0.3112
      5  C5B       20.6130    9.3140   15.8220 C.3   1301  NAD1301     0.1813
      6  C4B       21.8730    8.4710   16.1690 C.3   1301  NAD1301     0.1821
      7  O4B       22.5760    7.9540   15.0060 O.3   1301  NAD1301    -0.3135
      8  C3B       23.0250    9.1580   16.9350 C.3   1301  NAD1301     0.2184
      9  O3B       22.8540    9.0920   18.3710 O.3   1301  NAD1301    -0.2174
     10  C2B       24.2560    8.3600   16.5450 C.3   1301  NAD1301     0.2570
     11  O2B       24.8950    7.7100   17.6650 O.3   1301  NAD1301    -0.2130
     12  C1B       23.6970    7.3320   15.6040 C.3   1301  NAD1301     0.3186
     13  N9A       24.7360    6.7410   14.7480 N.pl3 1301  NAD1301    -0.1439
     14  C8A       25.1370    7.1610   13.5340 C.3   1301  NAD1301     0.3377
     15  N7A       26.0900    6.3560   13.0260 N.2   1301  NAD1301    -0.2095
     16  C5A       26.2460    5.4280   13.9620 C.2   1301  NAD1301     0.2526
     17  C6A       27.0820    4.3240   13.8580 C.2   1301  NAD1301     0.4393
     18  N6A       28.0350    4.2890   12.9130 N.pl3 1301  NAD1301     0.2180
     19  N1A       27.0460    3.4480   14.8920 N.2   1301  NAD1301     0.0021
     20  C2A       26.2820    3.6670   15.9660 C.3   1301  NAD1301     0.5254
     21  N3A       25.5100    4.7500   16.0660 N.2   1301  NAD1301    -0.0055
     22  C4A       25.4430    5.6450   15.0590 C.2   1301  NAD1301     0.3518
     23  O3        17.8820   11.5040   16.6320 O.3   1301  NAD1301    -0.2703
     24  PN        16.6250   11.6430   15.6220 P.3   1301  NAD1301     0.2189
     25  O1N       16.5670   13.0000   15.0010 O.2   1301  NAD1301    -0.5170
     26  O2N       15.4270   11.2610   16.4020 O.3   1301  NAD1301    -0.4371
     27  O5D       17.0400   10.5310   14.5190 O.3   1301  NAD1301    -0.3112
     28  C5D       17.0210    9.1300   14.8480 C.3   1301  NAD1301     0.1813
     29  C4D       16.3300    8.2610   13.7840 C.3   1301  NAD1301     0.1799
     30  O4D       14.9130    8.5140   13.6960 O.3   1301  NAD1301    -0.3327
     31  C3D       16.7740    8.4040   12.3330 C.3   1301  NAD1301     0.2158
     32  O3D       16.5620    7.1250   11.7010 O.3   1301  NAD1301    -0.2175
     33  C2D       15.8300    9.4440   11.7430 C.3   1301  NAD1301     0.2309
     34  O2D       15.7580    9.4560   10.3190 O.3   1301  NAD1301    -0.2158
     35  C1D       14.5370    8.9810   12.3810 C.3   1301  NAD1301     0.2263
     36  N1N       13.4780   10.0230   12.4410 N.pl3 1301  NAD1301    -0.2787
     37  C2N       13.7920   11.3990   12.5460 C.3   1301  NAD1301     0.1244
     38  C3N       12.7720   12.3570   12.6570 C.2   1301  NAD1301     0.0544
     39  C7N       13.0910   13.8440   12.8280 C.2   1301  NAD1301     0.2818
     40  O7N       12.5520   14.6850   12.1180 O.2   1301  NAD1301    -0.2670
     41  N7N       13.9820   14.1540   13.7630 N.am  1301  NAD1301    -0.0839
     42  C4N       11.4440   11.9440   12.6350 C.2   1301  NAD1301     0.0033
     43  C5N       11.1220   10.5850   12.5060 C.2   1301  NAD1301     0.0157
     44  C6N       12.1280    9.6190   12.4150 C.2   1301  NAD1301     0.0633
@<TRIPOS>BOND
     1    34    33    1
     2    32    31    1
     3    33    31    1
     4    33    35    1
     5    40    39    2
     6    31    29    1
     7    35    36    1
     8    35    30    1
     9    44    36    1
    10    44    43    2
    11    36    37    1
    12    43    42    1
    13    37    38    1
    14    42    38    2
    15    38    39    1
    16    39    41   am
    17    18    17    1
    18    15    14    1
    19    15    16    2
    20    14    13    1
    21    30    29    1
    22    29    28    1
    23    17    16    1
    24    17    19    2
    25    16    22    1
    26    27    28    1
    27    27    24    1
    28    13    22    1
    29    13    12    1
    30    19    20    1
    31    25    24    2
    32     7    12    1
    33     7     6    1
    34    22    21    2
    35     2     1    2
    36    12    10    1
    37    24    26    1
    38    24    23    1
    39     5     6    1
    40     5     4    1
    41    20    21    1
    42     6     8    1
    43    10     8    1
    44    10    11    1
    45     1    23    1
    46     1     4    1
    47     1     3    1
    48     8     9    1
