@<TRIPOS>MOLECULE
1bvr_THT_A_1.pdb
 24 23 0 0 0
SMALL
GASTEIGER

@<TRIPOS>ATOM
      1  C1        21.1210   15.2180   13.7310 C.3   1302  THT1302     0.0964
      2  C2        21.0310   14.1440   12.6400 C.2   1302  THT1302     0.2419
      3  O2        21.7070   14.2440   11.6010 O.2   1302  THT1302    -0.2733
      4  N3        20.2210   13.1050   12.8490 N.am  1302  THT1302    -0.2045
      5  C4        19.1960   12.7080   11.9210 C.3   1302  THT1302     0.1272
      6  C5        18.9400   13.7260   10.8250 C.3   1302  THT1302     0.0887
      7  S6        17.2950   14.4590   11.0230 S.3   1302  THT1302    -0.0709
      8  C7        16.0510   13.6290    9.9850 C.2   1302  THT1302     0.2213
      9  O7        16.2430   12.4830    9.5780 O.2   1302  THT1302    -0.2797
     10  C8        14.7640   14.3560    9.6280 C.2   1302  THT1302     0.0441
     11  C9        13.7940   13.7290    8.8740 C.2   1302  THT1302    -0.0223
     12  C10       12.5240   14.4760    8.4710 C.3   1302  THT1302     0.0262
     13  C11       12.5230   14.5450    6.9450 C.3   1302  THT1302     0.0047
     14  C12       12.4290   15.9550    6.4230 C.3   1302  THT1302     0.0003
     15  C13       13.0320   15.9560    5.0270 C.3   1302  THT1302     0.0000
     16  C14       13.6500   17.3160    4.7380 C.3   1302  THT1302     0.0000
     17  C15       14.8380   17.5650    5.6710 C.3   1302  THT1302     0.0000
     18  C16       16.1640   17.2960    4.9420 C.3   1302  THT1302     0.0000
     19  C17       17.2120   16.8070    5.9300 C.3   1302  THT1302     0.0000
     20  C18       17.2610   17.7410    7.1240 C.3   1302  THT1302     0.0000
     21  C19       18.4360   18.6720    6.9590 C.3   1302  THT1302     0.0000
     22  C20       19.7460   17.9490    7.2590 C.3   1302  THT1302     0.0000
     23  C21       20.0780   18.0880    8.7410 C.3   1302  THT1302     0.0000
     24  C22       21.3510   18.9050    8.8980 C.3   1302  THT1302     0.0000
@<TRIPOS>BOND
     1    16    15    1
     2    16    17    1
     3    18    17    1
     4    18    19    1
     5    15    14    1
     6    19    20    1
     7    14    13    1
     8    13    12    1
     9    21    20    1
    10    21    22    1
    11    22    23    1
    12    12    11    1
    13    23    24    1
    14    11    10    2
    15     9     8    2
    16    10     8    1
    17     8     7    1
    18     6     7    1
    19     6     5    1
    20     3     2    2
    21     5     4    1
    22     2     4   am
    23     2     1    1
