@<TRIPOS>MOLECULE
1bvw_MAN_A_1.pdb
 11 11 0 0 0
SMALL
GASTEIGER

@<TRIPOS>ATOM
      1  C1         5.6680  -11.3020   42.1720 C.3   600  MAN600      0.1777
      2  C2         7.1180  -11.2350   41.5720 C.3   600  MAN600      0.2141
      3  C3         7.4090  -12.5130   40.8140 C.3   600  MAN600      0.2173
      4  C4         7.2210  -13.7710   41.6120 C.3   600  MAN600      0.2142
      5  C5         5.9430  -13.7340   42.4830 C.3   600  MAN600      0.1810
      6  C6         6.0340  -14.6950   43.6570 C.3   600  MAN600      0.2141
      7  O2         8.0400  -11.0170   42.6180 O.3   600  MAN600     -0.2176
      8  O3         8.7620  -12.4680   40.3260 O.3   600  MAN600     -0.2175
      9  O4         7.1640  -14.8910   40.7430 O.3   600  MAN600     -0.2176
     10  O5         5.6140  -12.4490   42.9760 O.3   600  MAN600     -0.3481
     11  O6         7.0040  -14.2480   44.5830 O.3   600  MAN600     -0.2176
@<TRIPOS>BOND
     1     8     3    1
     2     9     4    1
     3     3     2    1
     4     3     4    1
     5     2     1    1
     6     2     7    1
     7     4     5    1
     8     1    10    1
     9     5    10    1
    10     5     6    1
    11     6    11    1
