@<TRIPOS>MOLECULE
1bvy_HEM_A_1.pdb
 43 50 0 0 0
SMALL
GASTEIGER

@<TRIPOS>ATOM
      1 FE         11.0920   48.5180   78.4850 Fe    1000  HEM1000     0.0000
      2  CHA       10.0760   47.4180   75.3850 C.2   1000  HEM1000     0.0000
      3  CHB       14.3710   48.3430   77.4820 C.2   1000  HEM1000     0.0000
      4  CHC       12.0720   49.7590   81.4930 C.2   1000  HEM1000     0.0000
      5  CHD        7.8140   48.6180   79.4890 C.2   1000  HEM1000     0.0000
      6  NA        12.0130   48.0090   76.8070 N.ar  1000  HEM1000     0.0000
      7  C1A       11.4460   47.6150   75.6010 C.ar  1000  HEM1000     0.0000
      8  C2A       12.4660   47.3910   74.6110 C.ar  1000  HEM1000     0.0000
      9  C3A       13.6560   47.6260   75.2000 C.ar  1000  HEM1000     0.0000
     10  C4A       13.3770   48.0420   76.5510 C.ar  1000  HEM1000     0.0000
     11  CMA       15.0660   47.3940   74.6720 C.3   1000  HEM1000     0.0000
     12  CAA       12.2260   46.8100   73.2220 C.3   1000  HEM1000     0.0000
     13  CBA       12.1730   45.2900   73.1610 C.3   1000  HEM1000     0.0000
     14  CGA       12.0990   44.7330   71.7570 C.2   1000  HEM1000     0.0000
     15  O1A       12.3110   45.4680   70.7710 O.co2 1000  HEM1000     0.0000
     16  O2A       11.8170   43.5210   71.6180 O.co2 1000  HEM1000     0.0000
     17  NB        12.8460   48.9360   79.3200 N.2   1000  HEM1000     0.0000
     18  C1B       14.1190   48.8130   78.7760 C.2   1000  HEM1000     0.0000
     19  C2B       15.1340   49.1960   79.7170 C.2   1000  HEM1000     0.0000
     20  C3B       14.4860   49.5390   80.8530 C.2   1000  HEM1000     0.0000
     21  C4B       13.0760   49.4730   80.5690 C.2   1000  HEM1000     0.0000
     22  CMB       16.6470   49.1870   79.5090 C.3   1000  HEM1000     0.0000
     23  CAB       15.0380   49.9230   82.0670 C.2   1000  HEM1000     0.0000
     24  CBB       16.0580   50.7560   82.4160 C.2   1000  HEM1000     0.0000
     25  NC        10.1630   48.9200   80.1950 N.ar  1000  HEM1000     0.0000
     26  C1C       10.6990   49.5720   81.2970 C.ar  1000  HEM1000     0.0000
     27  C2C        9.6750   49.8380   82.2770 C.ar  1000  HEM1000     0.0000
     28  C3C        8.4910   49.5050   81.7100 C.ar  1000  HEM1000     0.0000
     29  C4C        8.7930   49.0220   80.3880 C.ar  1000  HEM1000     0.0000
     30  CMC        9.8340   50.3930   83.6890 C.3   1000  HEM1000     0.0000
     31  CAC        7.2220   49.6600   82.2470 C.2   1000  HEM1000     0.0000
     32  CBC        6.6060   50.6700   82.9290 C.2   1000  HEM1000     0.0000
     33  ND         9.3400   48.1660   77.6210 N.2   1000  HEM1000     0.0000
     34  C1D        8.1190   48.0230   78.2620 C.2   1000  HEM1000     0.0000
     35  C2D        7.0740   47.6780   77.3320 C.2   1000  HEM1000     0.0000
     36  C3D        7.6880   47.4250   76.1550 C.2   1000  HEM1000     0.0000
     37  C4D        9.1000   47.6170   76.3600 C.2   1000  HEM1000     0.0000
     38  CMD        5.5930   47.5270   77.6980 C.3   1000  HEM1000     0.0000
     39  CAD        7.0240   47.0910   74.8170 C.3   1000  HEM1000     0.0000
     40  CBD        6.6180   48.3180   74.0060 C.3   1000  HEM1000     0.0000
     41  CGD        6.0140   48.0220   72.6540 C.2   1000  HEM1000     0.0000
     42  O1D        6.5930   47.2850   71.8290 O.co2 1000  HEM1000     0.0000
     43  O2D        4.9090   48.5570   72.3940 O.co2 1000  HEM1000     0.0000
@<TRIPOS>BOND
     1    15    14   ar
     2    16    14   ar
     3    14    13    1
     4    42    41   ar
     5    43    41   ar
     6    41    40    1
     7    13    12    1
     8    12     8    1
     9    40    39    1
    10     8     9   ar
    11     8     7   ar
    12    11     9    1
    13    39    36    1
    14     9    10   ar
    15     2     7    2
    16     2    37    1
    17     7     6   ar
    18    36    37    1
    19    36    35    2
    20    37    33    2
    21    10     6   ar
    22    10     3    2
    23     6     1    1
    24    35    38    1
    25    35    34    1
    26     3    18    1
    27    33    34    1
    28    33     1    1
    29    34     5    2
    30     1    17    1
    31     1    25    1
    32    18    17    2
    33    18    19    1
    34    17    21    1
    35     5    29    1
    36    22    19    1
    37    19    20    2
    38    25    29   ar
    39    25    26   ar
    40    29    28   ar
    41    21    20    1
    42    21     4    2
    43    20    23    1
    44    26     4    1
    45    26    27   ar
    46    28    31    1
    47    28    27   ar
    48    23    24    2
    49    31    32    2
    50    27    30    1
