@<TRIPOS>MOLECULE
1bvy_FMN_F_1.pdb
 31 33 0 0 0
SMALL
GASTEIGER

@<TRIPOS>ATOM
      1  N1        15.7900   69.5840   68.3590 N.2   1002  FMN1002    -0.2890
      2  C2        15.6620   70.6440   67.5450 C.1   1002  FMN1002     0.3669
      3  O2        14.9140   71.5670   67.8270 O.2   1002  FMN1002    -0.1744
      4  N3        16.3590   70.7610   66.3270 N.2   1002  FMN1002    -0.2300
      5  C4        17.2310   69.7230   65.9620 C.1   1002  FMN1002     0.2513
      6  O4        17.8320   69.8350   64.9170 O.2   1002  FMN1002    -0.2057
      7  C4A       17.4330   68.6410   66.8140 C.2   1002  FMN1002     0.2700
      8  N5        18.2000   67.6090   66.4900 N.2   1002  FMN1002    -0.3878
      9  C5A       18.2320   66.4660   67.1700 C.2   1002  FMN1002     0.1320
     10  C6        19.1060   65.4210   66.8360 C.2   1002  FMN1002     0.0250
     11  C7        19.1760   64.2450   67.5730 C.2   1002  FMN1002    -0.0238
     12  C7M       20.1110   63.0940   67.2090 C.3   1002  FMN1002     0.0308
     13  C8        18.3590   64.0870   68.6940 C.2   1002  FMN1002    -0.0280
     14  C8M       18.3990   62.7990   69.5290 C.3   1002  FMN1002     0.0304
     15  C9        17.5270   65.1370   69.0510 C.2   1002  FMN1002    -0.0041
     16  C9A       17.4360   66.3160   68.3250 C.3   1002  FMN1002     0.1497
     17  N10       16.6010   67.3720   68.7220 N.pl3 1002  FMN1002    -0.2691
     18  C10       16.6240   68.5800   67.9800 C.2   1002  FMN1002     0.2416
     19  C1'       15.7720   67.3170   69.9420 C.3   1002  FMN1002     0.1294
     20  C2'       14.5670   66.4460   69.6030 C.3   1002  FMN1002     0.2044
     21  O2'       13.7800   67.0300   68.5530 O.3   1002  FMN1002    -0.2185
     22  C3'       13.6260   66.3070   70.8240 C.3   1002  FMN1002     0.2164
     23  O3'       14.1700   65.2550   71.6550 O.3   1002  FMN1002    -0.2175
     24  C4'       12.2810   65.7700   70.2890 C.3   1002  FMN1002     0.2147
     25  O4'       11.5190   66.0680   71.4630 O.3   1002  FMN1002    -0.2176
     26  C5'       12.3480   64.2460   70.1040 C.3   1002  FMN1002     0.1892
     27  O5'       10.9270   63.9630   69.5790 O.3   1002  FMN1002    -0.2674
     28  P         10.5280   62.6070   69.2060 P.3   1002  FMN1002     0.5327
     29  O1P        9.0740   62.5090   68.7920 O.3   1002  FMN1002    -0.1145
     30  O2P       10.7090   61.5870   70.3180 O.3   1002  FMN1002    -0.1145
     31  O3P       11.3070   62.0420   68.0450 O.2   1002  FMN1002    -0.2224
@<TRIPOS>BOND
     1     6     5    2
     2     5     4    2
     3     5     7    1
     4     4     2    2
     5     8     7    2
     6     8     9    2
     7     7    18    1
     8    10     9    1
     9    10    11    2
    10     9    16    1
    11    12    11    1
    12     2     3    2
    13     2     1    2
    14    11    13    1
    15    18     1    2
    16    18    17    1
    17    31    28    2
    18    16    17    1
    19    16    15    1
    20    21    20    1
    21    13    15    2
    22    13    14    1
    23    17    19    1
    24    29    28    1
    25    28    27    1
    26    28    30    1
    27    27    26    1
    28    20    19    1
    29    20    22    1
    30    26    24    1
    31    24    22    1
    32    24    25    1
    33    22    23    1
