@<TRIPOS>MOLECULE
1bw9_NAD_A_1.pdb
 44 48 0 0 0
SMALL
GASTEIGER

@<TRIPOS>ATOM
      1  PA        19.3850   52.0450  -18.9710 P.3   360  NAD360      0.2189
      2  O1A       18.5550   52.2850  -20.1720 O.2   360  NAD360     -0.5170
      3  O2A       18.9210   52.9050  -17.8480 O.3   360  NAD360     -0.4371
      4  O5B       20.9190   52.3920  -19.2430 O.3   360  NAD360     -0.3112
      5  C5B       21.6820   51.7560  -20.2840 C.3   360  NAD360      0.1813
      6  C4B       22.7410   52.7510  -20.5820 C.3   360  NAD360      0.1821
      7  O4B       23.6840   52.2900  -21.6130 O.3   360  NAD360     -0.3135
      8  C3B       22.1670   54.0760  -21.0750 C.3   360  NAD360      0.2184
      9  O3B       22.8020   55.1810  -20.3730 O.3   360  NAD360     -0.2174
     10  C2B       22.4540   53.9440  -22.5930 C.3   360  NAD360      0.2570
     11  O2B       22.6290   55.2130  -23.2400 O.3   360  NAD360     -0.2130
     12  C1B       23.8240   53.3100  -22.5180 C.3   360  NAD360      0.3186
     13  N9A       24.2910   52.7820  -23.7730 N.pl3 360  NAD360     -0.1439
     14  C8A       23.6100   52.2720  -24.8430 C.3   360  NAD360      0.3377
     15  N7A       24.4330   51.8490  -25.8300 N.2   360  NAD360     -0.2095
     16  C5A       25.7010   52.1190  -25.3250 C.2   360  NAD360      0.2526
     17  C6A       26.9830   51.9270  -25.8680 C.2   360  NAD360      0.4393
     18  N6A       27.1940   51.3900  -27.0640 N.pl3 360  NAD360      0.2180
     19  N1A       28.0340   52.3020  -25.0970 N.2   360  NAD360      0.0021
     20  C2A       27.7690   52.8270  -23.8650 C.3   360  NAD360      0.5254
     21  N3A       26.6220   53.0560  -23.3010 N.2   360  NAD360     -0.0055
     22  C4A       25.6180   52.7010  -24.0830 C.2   360  NAD360      0.3518
     23  O3        19.3930   50.5500  -18.5920 O.3   360  NAD360     -0.2703
     24  PN        19.6910   49.8460  -17.1420 P.3   360  NAD360      0.2189
     25  O1N       18.4650   49.7990  -16.3060 O.3   360  NAD360     -0.4371
     26  O2N       20.8020   50.5280  -16.4040 O.2   360  NAD360     -0.5170
     27  O5D       20.0480   48.4070  -17.7370 O.3   360  NAD360     -0.3112
     28  C5D       21.4230   48.0330  -18.0140 C.3   360  NAD360      0.1813
     29  C4D       21.3800   46.7320  -18.7730 C.3   360  NAD360      0.1799
     30  O4D       20.9700   45.7020  -17.8320 O.3   360  NAD360     -0.3327
     31  C3D       20.3060   46.6780  -19.8680 C.3   360  NAD360      0.2158
     32  O3D       20.6610   47.2370  -21.1540 O.3   360  NAD360     -0.2175
     33  C2D       19.9690   45.1700  -19.8960 C.3   360  NAD360      0.2309
     34  O2D       21.0480   44.4510  -20.5170 O.3   360  NAD360     -0.2158
     35  C1D       19.9820   44.8890  -18.4300 C.3   360  NAD360      0.2263
     36  N1N       18.7140   45.0900  -17.7740 N.pl3 360  NAD360     -0.2787
     37  C2N       18.2590   43.9270  -17.3870 C.3   360  NAD360      0.1244
     38  C3N       17.0510   43.8970  -17.0730 C.2   360  NAD360      0.0544
     39  C7N       16.2900   42.7960  -16.6770 C.2   360  NAD360      0.2818
     40  O7N       15.1810   43.1540  -16.3140 O.2   360  NAD360     -0.2670
     41  N7N       16.7740   41.5180  -16.6310 N.am  360  NAD360     -0.0839
     42  C4N       16.1540   45.0440  -16.9110 C.2   360  NAD360      0.0033
     43  C5N       16.7930   46.2390  -17.2640 C.2   360  NAD360      0.0157
     44  C6N       18.0870   46.3390  -17.6820 C.2   360  NAD360      0.0633
@<TRIPOS>BOND
     1    18    17    1
     2    17    16    1
     3    17    19    2
     4    15    16    2
     5    15    14    1
     6    16    22    1
     7    19    20    1
     8    14    13    1
     9    22    13    1
    10    22    21    2
    11    20    21    1
    12    13    12    1
    13    11    10    1
    14    10    12    1
    15    10     8    1
    16    12     7    1
    17     7     6    1
    18    32    31    1
    19     8     6    1
    20     8     9    1
    21     6     5    1
    22    34    33    1
    23     5     4    1
    24     2     1    2
    25    33    31    1
    26    33    35    1
    27    31    29    1
    28     4     1    1
    29     1    23    1
    30     1     3    1
    31    29    28    1
    32    29    30    1
    33    23    24    1
    34    35    30    1
    35    35    36    1
    36    28    27    1
    37    36    44    1
    38    36    37    1
    39    27    24    1
    40    44    43    2
    41    37    38    1
    42    43    42    1
    43    24    26    2
    44    24    25    1
    45    38    42    2
    46    38    39    1
    47    39    41   am
    48    39    40    2
