@<TRIPOS>MOLECULE
1bw9_PPY_A_1.pdb
 12 12 0 0 0
SMALL
GASTEIGER

@<TRIPOS>ATOM
      1  C1        15.2820   40.7500  -14.3440 C.2   361  PPY361      0.4222
      2  O1        15.7310   41.5060  -13.4760 O.co2 361  PPY361     -0.2373
      3  O2        15.7870   39.6330  -14.7390 O.co2 361  PPY361     -0.2373
      4  C2        13.9920   41.0010  -15.0880 C.2   361  PPY361      0.2564
      5  O3        13.9590   40.5610  -16.1400 O.2   361  PPY361     -0.2839
      6  C3        13.0650   41.9860  -14.5320 C.3   361  PPY361      0.1025
      7  C1'       12.1690   40.9530  -14.0550 C.ar  361  PPY361     -0.0142
      8  C2'       12.6500   40.1900  -12.9970 C.ar  361  PPY361     -0.0038
      9  C3'       11.8980   39.1840  -12.4020 C.ar  361  PPY361     -0.0003
     10  C4'       10.6400   38.9620  -12.9660 C.ar  361  PPY361     -0.0000
     11  C5'       10.1380   39.7070  -14.0370 C.ar  361  PPY361     -0.0003
     12  C6'       10.9280   40.6940  -14.6220 C.ar  361  PPY361     -0.0038
@<TRIPOS>BOND
     1     5     4    2
     2     4     6    1
     3     4     1    1
     4     3     1   ar
     5    12     7   ar
     6    12    11   ar
     7     6     7    1
     8     1     2   ar
     9     7     8   ar
    10    11    10   ar
    11     8     9   ar
    12    10     9   ar
