@<TRIPOS>MOLECULE
1bwf_ATF_O_1.pdb
 33 35 0 0 0
SMALL
GASTEIGER

@<TRIPOS>ATOM
      1  PG        33.9910   11.3030   30.8920 P.3   601  ATF601      0.1913
      2  O1G       33.1790   10.4070   31.7600 O.3   601  ATF601     -0.3531
      3  O2G       32.9980   12.0750   29.7720 O.2   601  ATF601     -0.4540
      4  O3G       35.2190   10.4490   30.1990 O.3   601  ATF601     -0.3531
      5  PB        34.7250   12.3560   33.4760 P.3   601  ATF601      0.4402
      6  O1B       36.0670   12.5470   33.9670 O.3   601  ATF601     -0.1351
      7  O2B       34.2280   10.8020   33.8270 O.2   601  ATF601     -0.2491
      8  C3B       34.7450   12.5350   31.8140 C.3   601  ATF601      0.3975
      9  F1B       34.0610   13.7110   31.6350 F     601  ATF601     -0.1836
     10  F2B       36.0570   12.6180   31.4110 F     601  ATF601     -0.1836
     11  PA        34.1700   14.6350   34.9810 P.3   601  ATF601      0.2210
     12  O1A       35.5190   14.4360   35.5160 O.2   601  ATF601     -0.5170
     13  O2A       33.0910   14.6160   36.2320 O.3   601  ATF601     -0.4371
     14  O3A       33.6980   13.4830   33.9590 O.3   601  ATF601     -0.2448
     15  O5'       34.1200   16.0520   34.2250 O.3   601  ATF601     -0.3111
     16  C5'       35.2450   16.5050   33.5760 C.3   601  ATF601      0.1813
     17  C4'       34.9190   17.7220   32.7460 C.3   601  ATF601      0.1821
     18  O4'       34.6790   18.8080   33.6440 O.3   601  ATF601     -0.3135
     19  C3'       36.0170   18.1860   31.7870 C.3   601  ATF601      0.2184
     20  O3'       35.6040   18.0890   30.3910 O.3   601  ATF601     -0.2174
     21  C2'       36.5310   19.5650   32.3410 C.3   601  ATF601      0.2570
     22  O2'       36.5550   20.7120   31.3990 O.3   601  ATF601     -0.2130
     23  C1'       35.3350   20.0050   33.1760 C.3   601  ATF601      0.3186
     24  N9        35.5810   20.8400   34.3460 N.pl3 601  ATF601     -0.1439
     25  C8        36.1350   20.2880   35.4640 C.3   601  ATF601      0.3377
     26  N7        36.0490   21.0330   36.5370 N.2   601  ATF601     -0.2095
     27  C5        35.3660   22.1240   36.0930 C.2   601  ATF601      0.2526
     28  C6        35.0260   23.2760   36.7680 C.2   601  ATF601      0.4393
     29  N6        35.4090   23.4510   38.0480 N.pl3 601  ATF601      0.2180
     30  N1        34.3000   24.1940   36.0890 N.2   601  ATF601      0.0021
     31  C2        34.0690   23.9490   34.8040 C.3   601  ATF601      0.5254
     32  N3        34.4050   22.9020   34.0610 N.2   601  ATF601     -0.0055
     33  C4        35.0380   22.0170   34.7730 C.2   601  ATF601      0.3518
@<TRIPOS>BOND
     1     3     1    2
     2     4     1    1
     3    20    19    1
     4     1     2    1
     5     1     8    1
     6    22    21    1
     7    10     8    1
     8     9     8    1
     9    19    21    1
    10    19    17    1
    11     8     5    1
    12    21    23    1
    13    17    16    1
    14    17    18    1
    15    23    18    1
    16    23    24    1
    17     5     7    2
    18     5    14    1
    19     5     6    1
    20    16    15    1
    21    14    11    1
    22    32    33    2
    23    32    31    1
    24    15    11    1
    25    24    33    1
    26    24    25    1
    27    33    27    1
    28    31    30    1
    29    11    12    2
    30    11    13    1
    31    25    26    1
    32    30    28    2
    33    27    26    2
    34    27    28    1
    35    28    29    1
