@<TRIPOS>MOLECULE
1bwk_FMN_A_1.pdb
 31 33 0 0 0
SMALL
GASTEIGER

@<TRIPOS>ATOM
      1  N1        35.2110   68.1060   22.2040 N.2   401  FMN401     -0.2887
      2  C2        35.9680   68.8930   23.0220 C.1   401  FMN401      0.3669
      3  O2        37.0700   68.4850   23.4180 O.2   401  FMN401     -0.1744
      4  N3        35.5270   70.1650   23.4140 N.2   401  FMN401     -0.2300
      5  C4        34.2860   70.6820   22.9950 C.1   401  FMN401      0.2513
      6  O4        33.8660   71.7320   23.4910 O.2   401  FMN401     -0.2057
      7  C4A       33.5030   69.8490   22.0830 C.2   401  FMN401      0.2706
      8  N5        32.3150   70.3140   21.6250 N.2   401  FMN401     -0.3841
      9  C5A       31.5870   69.5220   20.7920 C.2   401  FMN401      0.1452
     10  C6        30.3770   70.0300   20.3230 C.2   401  FMN401      0.0252
     11  C7        29.5590   69.2630   19.4780 C.2   401  FMN401     -0.0375
     12  C7M       28.2130   69.8060   19.0300 C.3   401  FMN401      0.0268
     13  C8        29.9970   67.9900   19.0460 C.3   401  FMN401      0.0417
     14  C8M       29.1800   67.2000   18.0480 C.3   401  FMN401      0.0091
     15  C9        31.2200   67.4560   19.5320 C.2   401  FMN401     -0.0049
     16  C9A       32.0270   68.2180   20.4050 C.2   401  FMN401      0.0795
     17  N10       33.2210   67.7330   20.9270 N.pl3 401  FMN401     -0.2545
     18  C10       34.0000   68.5500   21.7300 C.2   401  FMN401      0.2449
     19  C1'       33.6450   66.2850   20.6490 C.3   401  FMN401      0.1336
     20  C2'       32.9280   65.3250   21.6810 C.3   401  FMN401      0.2048
     21  O2'       33.4970   65.5310   22.9810 O.3   401  FMN401     -0.2185
     22  C3'       33.0150   63.7920   21.3180 C.3   401  FMN401      0.2165
     23  O3'       34.3230   63.2960   21.6010 O.3   401  FMN401     -0.2175
     24  C4'       32.6800   63.5140   19.9020 C.3   401  FMN401      0.2147
     25  O4'       31.3930   64.0370   19.6220 O.3   401  FMN401     -0.2176
     26  C5'       32.6740   62.0170   19.6380 C.3   401  FMN401      0.1892
     27  O5'       31.6040   61.3880   20.4790 O.3   401  FMN401     -0.2674
     28  P         30.1610   60.9780   19.8950 P.3   401  FMN401      0.5327
     29  O1P       30.3730   60.0400   18.7990 O.2   401  FMN401     -0.2224
     30  O2P       29.4030   62.2010   19.6540 O.3   401  FMN401     -0.1145
     31  O3P       29.5090   60.1950   21.1420 O.3   401  FMN401     -0.1145
@<TRIPOS>BOND
     1    14    13    1
     2    29    28    2
     3    12    11    1
     4    13    11    1
     5    13    15    1
     6    11    10    2
     7    15    16    2
     8    25    24    1
     9    26    24    1
    10    26    27    1
    11    30    28    1
    12    28    27    1
    13    28    31    1
    14    24    22    1
    15    10     9    1
    16    16     9    1
    17    16    17    1
    18    19    17    1
    19    19    20    1
    20     9     8    2
    21    17    18    1
    22    22    23    1
    23    22    20    1
    24     8     7    2
    25    20    21    1
    26    18     7    1
    27    18     1    2
    28     7     5    1
    29     1     2    2
    30     5     4    2
    31     5     6    2
    32     2     4    2
    33     2     3    2
