@<TRIPOS>MOLECULE
1bwl_FMN_A_1.pdb
 31 33 0 0 0
SMALL
GASTEIGER

@<TRIPOS>ATOM
      1  N1        35.0900   68.0700   22.4420 N.2   401  FMN401     -0.2887
      2  C2        35.9360   68.8970   23.1610 C.1   401  FMN401      0.3669
      3  O2        37.1260   68.5870   23.3330 O.2   401  FMN401     -0.1744
      4  N3        35.5640   70.1770   23.4520 N.2   401  FMN401     -0.2300
      5  C4        34.3520   70.7090   23.0560 C.1   401  FMN401      0.2513
      6  O4        33.9720   71.7760   23.5590 O.2   401  FMN401     -0.2057
      7  C4A       33.4980   69.8640   22.2300 C.2   401  FMN401      0.2706
      8  N5        32.2820   70.3760   21.7370 N.2   401  FMN401     -0.3841
      9  C5A       31.4940   69.5730   20.9980 C.2   401  FMN401      0.1452
     10  C6        30.2970   70.1150   20.5390 C.2   401  FMN401      0.0252
     11  C7        29.4000   69.3370   19.8720 C.2   401  FMN401     -0.0375
     12  C7M       28.1080   69.8610   19.5850 C.3   401  FMN401      0.0268
     13  C8        29.7500   67.9850   19.4840 C.3   401  FMN401      0.0417
     14  C8M       28.8110   67.1640   18.6710 C.3   401  FMN401      0.0091
     15  C9        30.9690   67.4300   19.9210 C.2   401  FMN401     -0.0049
     16  C9A       31.8530   68.2110   20.6960 C.2   401  FMN401      0.0795
     17  N10       33.0560   67.6920   21.2290 N.pl3 401  FMN401     -0.2545
     18  C10       33.9090   68.5350   21.9710 C.2   401  FMN401      0.2449
     19  C1'       33.4110   66.2060   21.0310 C.3   401  FMN401      0.1336
     20  C2'       32.7230   65.2910   22.1310 C.3   401  FMN401      0.2048
     21  O2'       33.3820   65.4690   23.3420 O.3   401  FMN401     -0.2185
     22  C3'       32.7770   63.7790   21.7580 C.3   401  FMN401      0.2165
     23  O3'       34.1380   63.2930   21.8690 O.3   401  FMN401     -0.2175
     24  C4'       32.2450   63.5440   20.3480 C.3   401  FMN401      0.2147
     25  O4'       30.8750   63.9850   20.2910 O.3   401  FMN401     -0.2176
     26  C5'       32.3310   62.0550   19.8850 C.3   401  FMN401      0.1892
     27  O5'       31.3480   61.2130   20.6610 O.3   401  FMN401     -0.2674
     28  P         29.8420   60.9320   20.1790 P.3   401  FMN401      0.5327
     29  O1P       29.8780   59.9020   19.1280 O.2   401  FMN401     -0.2224
     30  O2P       29.2050   62.2240   19.8940 O.3   401  FMN401     -0.1145
     31  O3P       29.1730   60.2890   21.5440 O.3   401  FMN401     -0.1145
@<TRIPOS>BOND
     1    14    13    1
     2    29    28    2
     3    13    11    1
     4    13    15    1
     5    12    11    1
     6    11    10    2
     7    26    24    1
     8    26    27    1
     9    30    28    1
    10    15    16    2
    11    28    27    1
    12    28    31    1
    13    25    24    1
    14    24    22    1
    15    10     9    1
    16    16     9    1
    17    16    17    1
    18     9     8    2
    19    19    17    1
    20    19    20    1
    21    17    18    1
    22     8     7    2
    23    22    23    1
    24    22    20    1
    25    18     7    1
    26    18     1    2
    27    20    21    1
    28     7     5    1
    29     1     2    2
    30     5     4    2
    31     5     6    2
    32     2     3    2
    33     2     4    2
