@<TRIPOS>MOLECULE
1bwn_4IP_A_1.pdb
 28 28 0 0 0
SMALL
GASTEIGER

@<TRIPOS>ATOM
      1  C1        -2.0570    4.4570   38.9080 C.3     1  4IP1        0.1917
      2  O1        -3.3750    4.7570   39.5510 O.3     1  4IP1       -0.2673
      3  C2        -0.9220    5.3440   39.3220 C.3     1  4IP1        0.2120
      4  O2        -1.2400    6.7360   39.0570 O.3     1  4IP1       -0.2177
      5  C3         0.2860    4.8550   38.6020 C.3     1  4IP1        0.1890
      6  O3         1.4160    5.4540   39.1340 O.3     1  4IP1       -0.2674
      7  C4         0.1400    4.9860   37.0440 C.3     1  4IP1        0.1865
      8  O4         1.3480    4.4490   36.4640 O.3     1  4IP1       -0.2675
      9  C5        -1.0180    4.1230   36.6270 C.3     1  4IP1        0.1890
     10  O5        -1.2860    4.4020   35.1940 O.3     1  4IP1       -0.2674
     11  C6        -2.2840    4.5460   37.4010 C.3     1  4IP1        0.2120
     12  O6        -3.4050    3.7320   37.0590 O.3     1  4IP1       -0.2177
     13  P1        -3.8660    3.9650   40.9260 P.3     1  4IP1        0.5327
     14  O1P       -5.0750    4.5840   41.3290 O.3     1  4IP1       -0.1145
     15  O2P       -2.7500    4.1010   41.8920 O.3     1  4IP1       -0.1145
     16  O3P       -3.9510    2.6150   40.4580 O.2     1  4IP1       -0.2224
     17  P3         2.5960    4.6970   39.7910 P.3     1  4IP1        0.5327
     18  O4P        3.5360    5.7300   40.1190 O.3     1  4IP1       -0.1145
     19  O5P        1.7720    4.1390   40.8380 O.3     1  4IP1       -0.1145
     20  O6P        3.0770    3.7150   38.8170 O.2     1  4IP1       -0.2224
     21  P4         2.4700    5.2610   35.7560 P.3     1  4IP1        0.5327
     22  O7P        2.0540    6.6810   35.9260 O.3     1  4IP1       -0.1145
     23  O8P        3.7070    4.9050   36.4370 O.3     1  4IP1       -0.1145
     24  O9P        2.4410    4.8040   34.3950 O.2     1  4IP1       -0.2224
     25  P5        -0.7620    3.5510   33.9580 P.3     1  4IP1        0.5327
     26  OPF        0.2910    4.3430   33.4030 O.3     1  4IP1       -0.1145
     27  OPG       -0.2390    2.4120   34.6060 O.3     1  4IP1       -0.1145
     28  OPH       -2.0180    3.5070   33.2300 O.2     1  4IP1       -0.2224
@<TRIPOS>BOND
     1    28    25    2
     2    26    25    1
     3    25    27    1
     4    25    10    1
     5    24    21    2
     6    10     9    1
     7    21    22    1
     8    21    23    1
     9    21     8    1
    10     8     7    1
    11     9     7    1
    12     9    11    1
    13     7     5    1
    14    12    11    1
    15    11     1    1
    16     5     6    1
    17     5     3    1
    18    20    17    2
    19     1     3    1
    20     1     2    1
    21     4     3    1
    22     6    17    1
    23     2    13    1
    24    17    18    1
    25    17    19    1
    26    16    13    2
    27    13    14    1
    28    13    15    1
