@<TRIPOS>MOLECULE
1bwo_LPC_A_1.pdb
 31 30 0 0 0
SMALL
GASTEIGER

@<TRIPOS>ATOM
      1  C0A        1.4470   24.4080  -13.2150 C.3    91  LPC91      -0.0959
      2  C0B        1.1580   26.3410  -14.6440 C.3    91  LPC91      -0.0959
      3  C0C        3.0520   24.8670  -14.9920 C.3    91  LPC91      -0.0959
      4  N1         2.1780   25.5010  -13.9380 N.4    91  LPC91       0.3874
      5  C2         2.9350   26.3490  -12.9830 C.3    91  LPC91      -0.0402
      6  C3         4.3580   25.8930  -12.6180 C.3    91  LPC91       0.1271
      7  O4         4.2710   24.9630  -11.5300 O.3    91  LPC91      -0.3163
      8  P5         4.9780   23.5320  -11.6910 P.3    91  LPC91       0.2140
      9  O5A        6.2960   23.7100  -12.3430 O.2    91  LPC91      -0.5172
     10  O5B        4.0150   22.6030  -12.3220 O.3    91  LPC91      -0.4373
     11  O6         5.2330   23.0310  -10.1930 O.3    91  LPC91      -0.3112
     12  C7         5.6670   24.0170   -9.1660 C.3    91  LPC91       0.1857
     13  C8         4.6570   24.3180   -8.1480 C.3    91  LPC91       0.2252
     14  O8         4.4500   25.6720   -7.8310 O.3    91  LPC91      -0.2164
     15  C9         4.8800   23.5780   -6.9320 C.3    91  LPC91       0.2437
     16  OQ1        4.3340   22.0910   -4.7040 O.2    91  LPC91      -0.2501
     17  OQ2        3.6950   23.6710   -6.0260 O.3    91  LPC91      -0.4456
     18  CA         3.7700   23.2170   -4.9250 C.2    91  LPC91       0.3171
     19  CB         3.2000   23.8850   -3.7490 C.3    91  LPC91       0.1096
     20  CC         3.6060   25.3210   -3.5440 C.3    91  LPC91       0.0117
     21  CD         4.8720   25.5110   -2.7560 C.3    91  LPC91       0.0009
     22  CE         4.7950   26.5980   -1.7270 C.3    91  LPC91       0.0047
     23  CF         6.0370   26.7570   -0.9030 C.3    91  LPC91       0.0257
     24  CG         5.9230   27.7540    0.2130 C.2    91  LPC91      -0.0307
     25  CH         7.1440   27.9040    1.0580 C.2    91  LPC91      -0.0307
     26  CI         7.0280   28.8930    2.1700 C.3    91  LPC91       0.0257
     27  CJ         7.5960   28.4380    3.4720 C.3    91  LPC91       0.0047
     28  CK         8.4030   29.4550    4.2110 C.3    91  LPC91       0.0003
     29  CL         9.6500   28.9330    4.8560 C.3    91  LPC91       0.0000
     30  CM        10.8990   29.6860    4.5290 C.3    91  LPC91       0.0000
     31  CN        11.7830   29.0120    3.5220 C.3    91  LPC91       0.0000
@<TRIPOS>BOND
     1     3     4    1
     2     2     4    1
     3     4     1    1
     4     4     5    1
     5     5     6    1
     6     6     7    1
     7     9     8    2
     8    10     8    1
     9     8     7    1
    10     8    11    1
    11    11    12    1
    12    12    13    1
    13    13    14    1
    14    13    15    1
    15    15    17    1
    16    17    18    1
    17    18    16    2
    18    18    19    1
    19    19    20    1
    20    20    21    1
    21    21    22    1
    22    22    23    1
    23    23    24    1
    24    24    25    2
    25    25    26    1
    26    26    27    1
    27    27    28    1
    28    31    30    1
    29    28    29    1
    30    30    29    1
