@<TRIPOS>MOLECULE
1bws_NDP_A_1.pdb
 48 52 0 0 0
SMALL
GASTEIGER

@<TRIPOS>ATOM
      1  PA        66.6600   14.2570   26.3930 P.3   322  NDP322      0.2189
      2  O1A       66.8860   14.7950   25.0470 O.2   322  NDP322     -0.5170
      3  O2A       66.4390   15.2070   27.5210 O.3   322  NDP322     -0.4371
      4  O5B       67.5240   13.0550   26.6920 O.3   322  NDP322     -0.3112
      5  C5B       68.0890   12.2970   25.6140 C.3   322  NDP322      0.1813
      6  C4B       69.6010   12.1240   25.8580 C.3   322  NDP322      0.1820
      7  O4B       70.1930   11.2580   24.8480 O.3   322  NDP322     -0.3136
      8  C3B       70.4840   13.3900   25.8730 C.3   322  NDP322      0.2157
      9  O3B       71.1920   13.4360   27.0660 O.3   322  NDP322     -0.2175
     10  C2B       71.3730   13.2200   24.6260 C.3   322  NDP322      0.2314
     11  O2B       72.6230   13.8860   24.6550 O.3   322  NDP322     -0.2630
     12  C1B       71.5100   11.7020   24.6560 C.3   322  NDP322      0.3158
     13  N9A       71.8200   11.2240   23.3530 N.pl3 322  NDP322     -0.1439
     14  C8A       71.1040   11.3160   22.2000 C.3   322  NDP322      0.3377
     15  N7A       71.7580   10.8350   21.1610 N.2   322  NDP322     -0.2095
     16  C5A       72.9330   10.3130   21.7100 C.2   322  NDP322      0.2526
     17  C6A       74.0530    9.6570   21.1400 C.2   322  NDP322      0.4393
     18  N6A       74.1650    9.4640   19.8190 N.pl3 322  NDP322      0.2180
     19  N1A       75.0780    9.2800   21.9420 N.2   322  NDP322      0.0021
     20  C2A       74.9710    9.5780   23.2510 C.3   322  NDP322      0.5254
     21  N3A       74.0270   10.3020   23.8890 N.2   322  NDP322     -0.0055
     22  C4A       73.0360   10.6530   23.0470 C.2   322  NDP322      0.3518
     23  O3        65.3360   13.5900   26.1290 O.3   322  NDP322     -0.2703
     24  PN        64.1830   13.1060   27.1910 P.3   322  NDP322      0.2189
     25  O1N       63.1420   14.1690   27.2530 O.2   322  NDP322     -0.5170
     26  O2N       64.8370   12.6430   28.4920 O.3   322  NDP322     -0.4371
     27  O5D       63.5360   11.9430   26.4480 O.3   322  NDP322     -0.3112
     28  C5D       64.3280   10.8430   25.9570 C.3   322  NDP322      0.1813
     29  C4D       63.4670    9.6460   25.6860 C.3   322  NDP322      0.1799
     30  O4D       62.8370    9.3370   26.9080 O.3   322  NDP322     -0.3327
     31  C3D       62.3400    9.8370   24.6650 C.3   322  NDP322      0.2158
     32  O3D       62.8910    9.4020   23.4610 O.3   322  NDP322     -0.2175
     33  C2D       61.1520    8.9960   25.1380 C.3   322  NDP322      0.2309
     34  O2D       60.8810    7.6620   24.7150 O.3   322  NDP322     -0.2158
     35  C1D       61.5470    8.8750   26.5800 C.3   322  NDP322      0.2263
     36  N1N       60.5980    9.7750   27.1090 N.pl3 322  NDP322     -0.2787
     37  C2N       60.1430   10.9050   26.4420 C.3   322  NDP322      0.1244
     38  C3N       59.0700   11.6480   27.0070 C.2   322  NDP322      0.0544
     39  C7N       58.4970   13.0170   26.5280 C.2   322  NDP322      0.2818
     40  O7N       59.3580   13.7030   25.9720 O.2   322  NDP322     -0.2670
     41  N7N       57.2070   13.4000   26.9120 N.am  322  NDP322     -0.0839
     42  C4N       58.4420   11.1460   28.1370 C.2   322  NDP322      0.0033
     43  C5N       58.9120    9.9630   28.7540 C.2   322  NDP322      0.0157
     44  C6N       59.9510    9.2660   28.1470 C.2   322  NDP322      0.0633
     45  P2B       73.1040   15.0690   23.8230 P.3   322  NDP322      0.5328
     46  O1X       74.5000   15.3080   24.3080 O.3   322  NDP322     -0.1145
     47  O2X       72.7970   14.9250   22.3480 O.2   322  NDP322     -0.2224
     48  O3X       72.1630   16.2170   23.9580 O.3   322  NDP322     -0.1145
@<TRIPOS>BOND
     1    18    17    1
     2    17    16    1
     3    17    19    2
     4    15    16    2
     5    15    14    1
     6    16    22    1
     7    19    20    1
     8    14    13    1
     9    47    45    2
    10    22    13    1
    11    22    21    2
    12    20    21    1
    13    13    12    1
    14    32    31    1
    15    45    48    1
    16    45    46    1
    17    45    11    1
    18    10    11    1
    19    10    12    1
    20    10     8    1
    21    12     7    1
    22    31    33    1
    23    31    29    1
    24    34    33    1
    25     7     6    1
    26     2     1    2
    27    33    35    1
    28     5     6    1
    29     5     4    1
    30    29    28    1
    31    29    30    1
    32     6     8    1
    33     8     9    1
    34    28    27    1
    35    40    39    2
    36    23     1    1
    37    23    24    1
    38     1     4    1
    39     1     3    1
    40    37    38    1
    41    37    36    1
    42    27    24    1
    43    39    41   am
    44    39    38    1
    45    35    30    1
    46    35    36    1
    47    38    42    2
    48    36    44    1
    49    24    25    2
    50    24    26    1
    51    42    43    1
    52    44    43    2
