@<TRIPOS>MOLECULE
1bwu_MAN_A_1.pdb
 12 12 0 0 0
SMALL
GASTEIGER

@<TRIPOS>ATOM
      1  C1        94.4280  -15.0180   19.7460 C.3   301  MAN301      0.3024
      2  C2        94.5730  -14.3130   18.3870 C.3   301  MAN301      0.2434
      3  C3        96.0020  -13.8500   18.0930 C.3   301  MAN301      0.2199
      4  C4        96.5080  -13.0080   19.2530 C.3   301  MAN301      0.2144
      5  C5        96.3660  -13.7870   20.5570 C.3   301  MAN301      0.1836
      6  C6        96.7290  -12.9390   21.7680 C.3   301  MAN301      0.2142
      7  O1        95.3120  -16.1110   19.6860 O.3   301  MAN301     -0.1869
      8  O2        93.7280  -13.1820   18.3970 O.3   301  MAN301     -0.2148
      9  O3        96.0080  -13.0600   16.9110 O.3   301  MAN301     -0.2174
     10  O4        97.8700  -12.6570   19.0390 O.3   301  MAN301     -0.2176
     11  O5        94.9950  -14.1820   20.7640 O.3   301  MAN301     -0.3236
     12  O6        96.4010  -13.6090   22.9810 O.3   301  MAN301     -0.2176
@<TRIPOS>BOND
     1     9     3    1
     2     3     2    1
     3     3     4    1
     4     2     8    1
     5     2     1    1
     6    10     4    1
     7     4     5    1
     8     7     1    1
     9     1    11    1
    10     5    11    1
    11     5     6    1
    12     6    12    1
