@<TRIPOS>MOLECULE
1bwv_CAP_A_1.pdb
 21 20 0 0 0
SMALL
GASTEIGER

@<TRIPOS>ATOM
      1  C1        30.4670    5.6590   12.5800 C.3   491  CAP491      0.1978
      2  C2        29.1790    4.8930   12.1690 C.3   491  CAP491      0.2763
      3  C3        29.3600    3.8210   11.1060 C.3   491  CAP491      0.2253
      4  C4        30.1330    2.6530   11.7120 C.3   491  CAP491      0.2152
      5  C5        29.7330    1.3200   11.0920 C.3   491  CAP491      0.1892
      6  C         28.4250    4.3440   13.3850 C.2   491  CAP491      0.3967
      7  O1        30.1770    6.8420   13.3020 O.3   491  CAP491     -0.2669
      8  O2        28.3400    5.8920   11.6170 O.3   491  CAP491     -0.2086
      9  O3        28.1660    3.2790   10.5330 O.3   491  CAP491     -0.2170
     10  O4        31.4380    2.9190   11.3180 O.3   491  CAP491     -0.2176
     11  O5        30.7020    0.3610   11.4790 O.3   491  CAP491     -0.2674
     12  O6        28.9590    4.0690   14.4370 O.co2 491  CAP491     -0.2428
     13  O7        27.2020    4.2620   13.2810 O.co2 491  CAP491     -0.2428
     14  P1        31.3930    7.7260   13.8170 P.3   491  CAP491      0.5327
     15  P2        31.6190   -0.4410   10.4190 P.3   491  CAP491      0.5327
     16  O1P       32.1140    8.2080   12.6140 O.2   491  CAP491     -0.2224
     17  O2P       32.1310    6.9360   14.8310 O.3   491  CAP491     -0.1145
     18  O3P       30.7200    9.0070   14.4920 O.3   491  CAP491     -0.1145
     19  O4P       30.7200   -1.1360    9.4750 O.2   491  CAP491     -0.2224
     20  O5P       32.6590   -1.2100   11.1500 O.3   491  CAP491     -0.1145
     21  O6P       32.3340    0.7280    9.6180 O.3   491  CAP491     -0.1145
@<TRIPOS>BOND
     1    19    15    2
     2    21    15    1
     3    15    20    1
     4    15    11    1
     5     9     3    1
     6     5    11    1
     7     5     4    1
     8     3     4    1
     9     3     2    1
    10    10     4    1
    11     8     2    1
    12     2     1    1
    13     2     6    1
    14     1     7    1
    15    16    14    2
    16    13     6   ar
    17     7    14    1
    18     6    12   ar
    19    14    18    1
    20    14    17    1
