@<TRIPOS>MOLECULE
1bx3_PLP_A_1.pdb
 15 15 0 0 0
SMALL
GASTEIGER

@<TRIPOS>ATOM
      1  N1        24.5580   25.4200   29.9140 N.ar  999  PLP999     -0.2452
      2  C2        23.4460   24.6760   30.1900 C.ar  999  PLP999      0.0978
      3  C2A       22.4260   25.2720   31.1610 C.3   999  PLP999      0.0555
      4  C3        23.2120   23.4960   29.4950 C.ar  999  PLP999      0.2049
      5  O3        22.0830   22.7450   29.7550 O.3   999  PLP999     -0.2857
      6  C4        24.1120   23.0800   28.5040 C.ar  999  PLP999      0.0182
      7  C4A       23.8150   21.7870   27.6620 C.3   999  PLP999      0.0342
      8  C5        25.2320   23.8700   28.2330 C.ar  999  PLP999      0.0261
      9  C6        25.4330   25.0240   28.9390 C.ar  999  PLP999      0.0965
     10  C5A       26.1580   23.6020   27.0350 C.3   999  PLP999      0.1815
     11  O4P       25.7060   24.3700   25.8980 O.3   999  PLP999     -0.2653
     12  P         26.7500   24.6350   24.6640 P.3   999  PLP999      0.5329
     13  O1P       26.0280   25.5060   23.7040 O.2   999  PLP999     -0.2224
     14  O2P       27.9730   25.4210   25.2660 O.3   999  PLP999     -0.1145
     15  O3P       27.3060   23.3570   24.1880 O.3   999  PLP999     -0.1145
@<TRIPOS>BOND
     1    13    12    2
     2    15    12    1
     3    12    14    1
     4    12    11    1
     5    11    10    1
     6    10     8    1
     7     7     6    1
     8     8     6   ar
     9     8     9   ar
    10     6     4   ar
    11     9     1   ar
    12     4     5    1
    13     4     2   ar
    14     1     2   ar
    15     2     3    1
