@<TRIPOS>MOLECULE
1bx4_ADN_A_1.pdb
 19 21 0 0 0
SMALL
GASTEIGER

@<TRIPOS>ATOM
      1  O5'       41.3040   18.5340   40.3360 O.3   350  ADN350     -0.2176
      2  C5'       40.2670   18.9680   39.4610 C.3   350  ADN350      0.2143
      3  C4'       40.4920   18.1240   38.2140 C.3   350  ADN350      0.1851
      4  O4'       40.4630   16.6960   38.5320 O.3   350  ADN350     -0.3134
      5  C3'       39.3230   18.2730   37.2350 C.3   350  ADN350      0.2186
      6  O3'       39.7720   19.1640   36.2050 O.3   350  ADN350     -0.2174
      7  C2'       39.0680   16.8620   36.6630 C.3   350  ADN350      0.2570
      8  O2'       38.9670   16.8260   35.2350 O.3   350  ADN350     -0.2130
      9  C1'       40.2330   16.0660   37.2800 C.3   350  ADN350      0.3186
     10  N9        40.0650   14.5980   37.3040 N.pl3 350  ADN350     -0.1439
     11  C8        39.1140   13.8710   38.0350 C.3   350  ADN350      0.3377
     12  N7        39.1670   12.5710   37.8550 N.2   350  ADN350     -0.2095
     13  C5        40.2220   12.4080   36.9420 C.2   350  ADN350      0.2526
     14  C6        40.8060   11.2500   36.3090 C.2   350  ADN350      0.4393
     15  N6        40.3840   10.0000   36.5210 N.pl3 350  ADN350      0.2180
     16  N1        41.8340   11.4670   35.4560 N.2   350  ADN350      0.0021
     17  C2        42.2670   12.7170   35.2400 C.3   350  ADN350      0.5254
     18  N3        41.8080   13.8670   35.7620 N.2   350  ADN350     -0.0055
     19  C4        40.7820   13.6410   36.6060 C.2   350  ADN350      0.3518
@<TRIPOS>BOND
     1     8     7    1
     2    17    16    1
     3    17    18    1
     4    16    14    2
     5    18    19    2
     6     6     5    1
     7    14    15    1
     8    14    13    1
     9    19    13    1
    10    19    10    1
    11     7     5    1
    12     7     9    1
    13    13    12    2
    14     5     3    1
    15     9    10    1
    16     9     4    1
    17    10    11    1
    18    12    11    1
    19     3     4    1
    20     3     2    1
    21     2     1    1
