@<TRIPOS>MOLECULE
1bx6_BA1_A_1.pdb
 40 43 0 0 0
SMALL
GASTEIGER

@<TRIPOS>ATOM
      1  C1'       11.9140   40.9050   18.5720 C.2   351  BA1351      0.2649
      2  C2'       13.4280   40.7010   18.7730 C.ar  351  BA1351      0.0552
      3  C3'       14.1850   41.8670   18.9130 C.ar  351  BA1351      0.0078
      4  C4'       15.5710   41.8170   19.0700 C.ar  351  BA1351      0.0422
      5  C5'       16.2780   40.6210   19.0950 C.ar  351  BA1351      0.1957
      6  O5'       17.7100   40.6120   19.2680 O.3   351  BA1351     -0.2866
      7  C6'       15.5480   39.4270   18.9990 C.ar  351  BA1351      0.0422
      8  C7'       14.1120   39.4750   18.8250 C.ar  351  BA1351      0.0078
      9  O1'       11.4970   41.9660   18.9720 O.2   351  BA1351     -0.2684
     10  N1'       11.0050   40.0300   18.0950 N.am  351  BA1351     -0.1976
     11  N1         8.3460   41.1350   20.3510 N.2   351  BA1351     -0.2716
     12  C2         9.3280   40.3180   19.6560 C.3   351  BA1351      0.1504
     13  C3         9.6640   40.5130   18.1860 C.3   351  BA1351      0.1596
     14  C4         8.5780   39.7190   17.4620 C.3   351  BA1351      0.1913
     15  C5         7.5490   39.1630   18.4220 C.3   351  BA1351      0.0518
     16  C6         6.4890   39.9300   19.2020 C.3   351  BA1351      0.0503
     17  C7         6.9610   40.9370   20.2640 C.2   351  BA1351      0.0669
     18  OAC        7.8630   40.5310   16.5160 O.3   351  BA1351     -0.4473
     19  C1B        8.5600   41.0240   15.3660 C.2   351  BA1351      0.3414
     20  OBC        9.5310   40.4110   14.9110 O.2   351  BA1351     -0.2449
     21  C2B        8.0370   42.2080   14.7460 C.ar  351  BA1351      0.0820
     22  C3B        7.5920   42.0580   13.4480 C.ar  351  BA1351      0.0488
     23  C4B        7.0430   43.1410   12.7890 C.ar  351  BA1351      0.2021
     24  O4'        6.5810   43.0170   11.4930 O.3   351  BA1351     -0.2864
     25  C5B        6.9390   44.3480   13.4330 C.ar  351  BA1351      0.1167
     26  C6B        7.3410   44.4970   14.7530 C.ar  351  BA1351      0.2021
     27  O6'        7.2130   45.7040   15.3670 O.3   351  BA1351     -0.2864
     28  C7B        7.8970   43.4260   15.4300 C.ar  351  BA1351      0.0488
     29  C8'        6.2890   45.4210   12.7140 C.2   351  BA1351      0.2051
     30  O8'        6.1410   45.2400   11.5360 O.2   351  BA1351     -0.2862
     31  C9'        5.7070   46.6420   13.2750 C.ar  351  BA1351      0.0844
     32  CXU        6.5860   47.6740   13.4300 C.ar  351  BA1351      0.1989
     33  OXU        7.8430   47.4040   12.9980 O.3   351  BA1351     -0.2865
     34  CX4        6.1970   48.9120   13.9500 C.ar  351  BA1351      0.0421
     35  CXE        4.8610   48.9940   14.3710 C.ar  351  BA1351      0.0035
     36  CXO        3.9580   47.9010   14.2620 C.ar  351  BA1351      0.0069
     37  CXY        4.3850   46.6920   13.7110 C.ar  351  BA1351      0.0860
     38  CX8        3.4820   45.5600   13.5420 C.2   351  BA1351      0.3880
     39  OX8        2.2070   45.7330   13.7880 O.co2 351  BA1351     -0.2405
     40  OXI        3.8410   44.4190   13.1840 O.co2 351  BA1351     -0.2405
@<TRIPOS>BOND
     1    24    23    1
     2    30    29    2
     3    29    31    1
     4    29    25    1
     5    23    25   ar
     6    23    22   ar
     7    33    32    1
     8    40    38   ar
     9    31    32   ar
    10    31    37   ar
    11    32    34   ar
    12    25    26   ar
    13    22    21   ar
    14    38    37    1
    15    38    39   ar
    16    37    36   ar
    17    34    35   ar
    18    36    35   ar
    19    21    19    1
    20    21    28   ar
    21    26    27    1
    22    26    28   ar
    23    20    19    2
    24    19    18    1
    25    18    14    1
    26    14    13    1
    27    14    15    1
    28    10    13    1
    29    10     1   am
    30    13    12    1
    31    15    16    1
    32     1     2    1
    33     1     9    2
    34     2     8   ar
    35     2     3   ar
    36     8     7   ar
    37     3     4   ar
    38     7     5   ar
    39     4     5   ar
    40     5     6    1
    41    16    17    1
    42    12    11    1
    43    17    11    2
