@<TRIPOS>MOLECULE
1bx9_III_B_1.pdb
 34 34 0 0 0
SMALL
GASTEIGER

@<TRIPOS>ATOM
      1  N         22.5270   25.6420   23.6660 N.3   101  GGL101     -0.1208
      2  CA        21.0470   25.6310   23.8390 C.3   101  GGL101      0.1948
      3  C         20.4150   24.4420   23.1250 C.2   101  GGL101      0.3819
      4  O         19.4540   23.8790   23.6820 O.co2 101  GGL101     -0.2441
      5  CB        20.4490   26.9170   23.2920 C.3   101  GGL101      0.0402
      6  CG        18.9600   27.0070   23.4620 C.3   101  GGL101      0.0889
      7  CD        18.3940   28.2990   22.9410 C.2   101  GGL101      0.2418
      8  OE1       19.0250   29.0050   22.1540 O.2   101  GGL101     -0.2733
      9  OXT       20.9050   24.0690   22.0410 O.co2 101  GGL101     -0.2441
     10  N         17.1790   28.5970   23.3800 N.am  102  CYS102     -0.1969
     11  CA        16.4920   29.7850   22.9940 C.3   102  CYS102      0.1834
     12  C         15.7330   30.2310   24.2280 C.2   102  CYS102      0.2626
     13  O         15.0080   29.4390   24.8320 O.2   102  CYS102     -0.2714
     14  CB        15.5180   29.4760   21.8650 C.3   102  CYS102      0.0891
     15  SG        15.2930   30.8420   20.7760 S.3   102  CYS102     -0.1283
     16  C1        16.2200   30.0780   19.4090 C.3   102  CYS102      0.1430
     17  C2        16.5530   30.7200   18.0200 C.2   102  CYS102      0.2403
     18  O3        17.2420   29.9950   17.3020 O.2   102  CYS102     -0.2736
     19  N4        16.1720   31.9090   17.5460 N.am  102  CYS102     -0.2596
     20  C5        16.2540   33.7750   15.8630 C.3   102  CYS102      0.0219
     21  C6        16.7180   32.3530   16.2090 C.3   102  CYS102      0.0799
     22  C7        18.2590   32.4210   16.2600 C.3   102  CYS102      0.0219
     23  C8        14.5430   34.5010   19.5710 C.ar  102  CYS102      0.0309
     24  C9        15.5630   33.7460   18.9590 C.ar  102  CYS102      0.0172
     25  C10       15.2220   32.6440   18.1400 C.ar  102  CYS102      0.0539
     26  C11       13.8620   32.3140   17.9360 C.ar  102  CYS102      0.0172
     27  C12       12.8500   33.0690   18.5490 C.ar  102  CYS102      0.0309
     28  C13       13.1860   34.1600   19.3630 C.ar  102  CYS102      0.1402
     29  F14       12.1870   34.8960   19.9650 F     102  CYS102     -0.2042
     30  N         15.9490   31.4810   24.6320 N.am  103  GLY103     -0.1917
     31  CA        15.2660   32.0100   25.7980 C.3   103  GLY103      0.2285
     32  C         16.0850   33.0250   26.5680 C.2   103  GLY103      0.3865
     33  O         17.1650   32.6610   27.0820 O.co2 103  GLY103     -0.2437
     34  OXT       15.6350   34.1850   26.6700 O.co2 103  GLY103     -0.2437
@<TRIPOS>BOND
     1    20    21    1
     2    21    22    1
     3    21    19    1
     4    18    17    2
     5    19    17   am
     6    19    25    1
     7    26    25   ar
     8    26    27   ar
     9    17    16    1
    10    25    24   ar
    11    27    28   ar
    12    24    23   ar
    13    28    23   ar
    14    28    29    1
    15    16    15    1
    16    15    14    1
    17    14    11    1
    18     9     3   ar
    19     8     7    2
    20     7    10   am
    21     7     6    1
    22    11    10    1
    23    11    12    1
    24     3     4   ar
    25     3     2    1
    26     5     6    1
    27     5     2    1
    28     1     2    1
    29    12    30   am
    30    12    13    2
    31    30    31    1
    32    31    32    1
    33    32    34   ar
    34    32    33   ar
