@<TRIPOS>MOLECULE
1bxd_ANP_A_1.pdb
 45 47 0 0 0
SMALL
GASTEIGER

@<TRIPOS>ATOM
      1  PG       -16.4020    7.7220  -11.3020 P.3   451  ANP451      0.4415
      2  O1G      -17.2260    8.7510  -10.6290 O.3   451  ANP451     -0.1266
      3  O2G      -16.9260    7.1580  -12.5660 O.2   451  ANP451     -0.2372
      4  O3G      -16.3160    6.4860  -10.2760 O.3   451  ANP451     -0.3105
      5  PB       -14.4770    8.0910  -13.0740 P.3   451  ANP451      0.4494
      6  O1B      -15.4870    8.7330  -13.9470 O.2   451  ANP451     -0.2367
      7  O2B      -13.0620    8.4900  -13.2690 O.3   451  ANP451     -0.1263
      8  N3B      -14.8930    8.2650  -11.5170 N.3   451  ANP451     -0.1219
      9  PA       -13.3530    5.4570  -13.6820 P.3   451  ANP451      0.2213
     10  O1A      -12.3060    6.1350  -14.4790 O.2   451  ANP451     -0.5170
     11  O2A      -13.0030    4.8310  -12.3890 O.3   451  ANP451     -0.4371
     12  O3A      -14.5370    6.5130  -13.4180 O.3   451  ANP451     -0.2370
     13  O5'      -14.0530    4.3340  -14.6100 O.3   451  ANP451     -0.3245
     14  C5'      -14.8870    4.6950  -15.7170 C.3   451  ANP451      0.0836
     15  C4'      -14.3080    5.8450  -16.5200 C.3   451  ANP451      0.1131
     16  O4'      -13.1330    5.4000  -17.1880 O.3   451  ANP451     -0.3474
     17  C3'      -15.2880    6.2980  -17.5940 C.3   451  ANP451      0.1133
     18  O3'      -15.4600    7.7230  -17.5760 O.3   451  ANP451     -0.3864
     19  C2'      -14.6910    5.8470  -18.8780 C.3   451  ANP451      0.1266
     20  O2'      -14.2260    6.9690  -19.6400 O.3   451  ANP451     -0.3849
     21  C1'      -13.5310    4.9550  -18.4720 C.3   451  ANP451      0.1617
     22  N9       -13.9140    3.5150  -18.3650 N.pl3 451  ANP451     -0.2234
     23  C8       -15.0730    2.8720  -18.6830 C.2   451  ANP451      0.1451
     24  N7       -15.1770    1.6370  -18.3640 N.2   451  ANP451     -0.3871
     25  C5       -13.9440    1.3900  -17.7510 C.2   451  ANP451      0.2211
     26  C6       -13.3960    0.2490  -17.1660 C.2   451  ANP451      0.2227
     27  N6       -14.0350   -0.9170  -17.1020 N.pl3 451  ANP451     -0.3300
     28  N1       -12.1560    0.3510  -16.6540 N.2   451  ANP451     -0.3296
     29  C2       -11.4920    1.5140  -16.7090 C.1   451  ANP451      0.0930
     30  N3       -11.9210    2.6600  -17.2420 N.2   451  ANP451     -0.3287
     31  C4       -13.1650    2.5270  -17.7480 C.2   451  ANP451      0.2354
     32 HOG3      -16.2950    6.8530   -9.3890 H     451  ANP451      0.2211
     33 HNB1      -14.2660    7.7370  -10.9430 H     451  ANP451      0.1457
     34 H5'1      -14.9810    3.8310  -16.3860 H     451  ANP451      0.0591
     35 H5'2      -15.8740    4.9700  -15.3470 H     451  ANP451      0.0591
     36  H4'      -14.0650    6.6630  -15.8820 H     451  ANP451      0.0647
     37  H3'      -16.2530    5.8010  -17.4500 H     451  ANP451      0.0647
     38 HO3'      -16.3830    7.8970  -17.3650 H     451  ANP451      0.2100
     39  H2'      -15.4170    5.2930  -19.4460 H     451  ANP451      0.0663
     40 HO2'      -14.9970    7.4840  -19.8890 H     451  ANP451      0.2101
     41  H1'      -12.7250    5.0750  -19.1610 H     451  ANP451      0.0841
     42  H8       -15.8920    3.3820  -19.1640 H     451  ANP451      0.1149
     43 HN61      -14.9630   -1.0060  -17.4880 H     451  ANP451      0.1448
     44 HN62      -13.5920   -1.7120  -16.6630 H     451  ANP451      0.1448
     45  H2       -10.4950    1.5230  -16.2710 H     451  ANP451      0.1751
@<TRIPOS>BOND
     1    40    20    1
     2    20    19    1
     3    39    19    1
     4    42    23    1
     5    41    21    1
     6    19    21    1
     7    19    17    1
     8    23    22    1
     9    23    24    2
    10    21    22    1
    11    21    16    1
    12    22    31    1
    13    24    25    2
    14    25    31    1
    15    25    26    1
    16    31    30    2
    17    17    18    1
    18    17    37    1
    19    17    15    1
    20    18    38    1
    21    43    27    1
    22    30    29    2
    23    16    15    1
    24    26    27    1
    25    26    28    2
    26    27    44    1
    27    29    28    2
    28    29    45    1
    29    15    36    1
    30    15    14    1
    31    34    14    1
    32    14    35    1
    33    14    13    1
    34    13     9    1
    35    10     9    2
    36     6     5    2
    37     9    12    1
    38     9    11    1
    39    12     5    1
    40     7     5    1
    41     5     8    1
    42     3     1    2
    43     8     1    1
    44     8    33    1
    45     1     2    1
    46     1     4    1
    47     4    32    1
