@<TRIPOS>MOLECULE
1bxg_HCI_A_1.pdb
 11 11 0 0 0
SMALL
GASTEIGER

@<TRIPOS>ATOM
      1  C1        33.1040  -12.2390   14.2230 C.2   361  HCI361      0.3652
      2  O1        33.3670  -10.9810   14.1130 O.co2 361  HCI361     -0.2456
      3  O2        33.6450  -13.1110   13.6160 O.co2 361  HCI361     -0.2456
      4  C2        32.0100  -12.4220   15.2670 C.3   361  HCI361      0.1187
      5  C3        31.1820  -13.6690   15.0700 C.3   361  HCI361      0.0382
      6  C1'       29.7640  -13.4810   14.5440 C.ar  361  HCI361     -0.0216
      7  C2'       28.9080  -12.5210   15.0590 C.ar  361  HCI361     -0.0043
      8  C3'       27.6260  -12.4420   14.5710 C.ar  361  HCI361     -0.0003
      9  C4'       27.2050  -13.2530   13.5320 C.ar  361  HCI361     -0.0000
     10  C5'       28.0440  -14.1960   13.0150 C.ar  361  HCI361     -0.0003
     11  C6'       29.2850  -14.2940   13.5150 C.ar  361  HCI361     -0.0043
@<TRIPOS>BOND
     1    10    11   ar
     2    10     9   ar
     3    11     6   ar
     4     9     8   ar
     5     3     1   ar
     6     2     1   ar
     7     1     4    1
     8     6     7   ar
     9     6     5    1
    10     8     7   ar
    11     5     4    1
