@<TRIPOS>MOLECULE
1bxg_NAD_A_1.pdb
 44 48 0 0 0
SMALL
GASTEIGER

@<TRIPOS>ATOM
      1  PA        36.1260   -8.6720   25.2240 P.3   360  NAD360      0.2189
      2  O1A       35.4610   -7.4490   25.7560 O.2   360  NAD360     -0.5170
      3  O2A       35.9930   -9.8410   26.1760 O.3   360  NAD360     -0.4371
      4  O5B       37.7050   -8.4650   25.1550 O.3   360  NAD360     -0.3112
      5  C5B       38.2800   -7.1670   25.0790 C.3   360  NAD360      0.1813
      6  C4B       39.3120   -7.1550   26.1690 C.3   360  NAD360      0.1821
      7  O4B       40.3680   -6.2830   25.7400 O.3   360  NAD360     -0.3135
      8  C3B       38.8660   -6.6670   27.5490 C.3   360  NAD360      0.2184
      9  O3B       39.3330   -7.4750   28.6560 O.3   360  NAD360     -0.2174
     10  C2B       39.4040   -5.2570   27.5440 C.3   360  NAD360      0.2570
     11  O2B       39.7460   -4.8680   28.8860 O.3   360  NAD360     -0.2130
     12  C1B       40.6460   -5.3340   26.6600 C.3   360  NAD360      0.3186
     13  N9A       41.0030   -4.0870   25.9460 N.pl3 360  NAD360     -0.1439
     14  C8A       40.1950   -3.1180   25.4130 C.3   360  NAD360      0.3377
     15  N7A       40.8570   -2.0100   25.0230 N.2   360  NAD360     -0.2095
     16  C5A       42.1850   -2.3470   25.2490 C.2   360  NAD360      0.2526
     17  C6A       43.3760   -1.6290   24.9790 C.2   360  NAD360      0.4393
     18  N6A       43.4090   -0.4030   24.4540 N.pl3 360  NAD360      0.2180
     19  N1A       44.5470   -2.2640   25.3070 N.2   360  NAD360      0.0021
     20  C2A       44.5000   -3.5320   25.8590 C.3   360  NAD360      0.5254
     21  N3A       43.4520   -4.2820   26.1090 N.2   360  NAD360     -0.0055
     22  C4A       42.3090   -3.6200   25.7870 C.2   360  NAD360      0.3518
     23  O3        35.6500   -9.0130   23.7630 O.3   360  NAD360     -0.2703
     24  PN        35.9970  -10.2150   22.6720 P.3   360  NAD360      0.2189
     25  O1N       34.6760  -10.7070   22.1960 O.2   360  NAD360     -0.5170
     26  O2N       36.8740  -11.3290   23.1690 O.3   360  NAD360     -0.4371
     27  O5D       36.7150   -9.3160   21.5860 O.3   360  NAD360     -0.3112
     28  C5D       37.9860   -9.7950   21.1410 C.3   360  NAD360      0.1813
     29  C4D       38.3500   -9.2340   19.7910 C.3   360  NAD360      0.1799
     30  O4D       38.2170  -10.3610   18.9220 O.3   360  NAD360     -0.3327
     31  C3D       37.4910   -8.0790   19.2250 C.3   360  NAD360      0.2158
     32  O3D       38.1330   -6.9460   18.5520 O.3   360  NAD360     -0.2175
     33  C2D       36.6540   -8.7990   18.1780 C.3   360  NAD360      0.2309
     34  O2D       36.4300   -7.7680   17.1580 O.3   360  NAD360     -0.2158
     35  C1D       37.5140  -10.0050   17.7790 C.3   360  NAD360      0.2263
     36  N1N       36.7150  -11.1730   17.4970 N.pl3 360  NAD360     -0.2787
     37  C2N       36.0940  -11.8340   18.5520 C.3   360  NAD360      0.1244
     38  C3N       35.1420  -12.8880   18.3280 C.2   360  NAD360      0.0544
     39  C7N       34.3210  -13.6320   19.2690 C.2   360  NAD360      0.2818
     40  O7N       34.3520  -13.4230   20.5140 O.2   360  NAD360     -0.2670
     41  N7N       33.5830  -14.5410   18.6950 N.am  360  NAD360     -0.0839
     42  C4N       35.0410  -13.4120   16.9670 C.2   360  NAD360      0.0033
     43  C5N       35.7200  -12.6740   15.9530 C.2   360  NAD360      0.0157
     44  C6N       36.6080  -11.6640   16.2150 C.2   360  NAD360      0.0633
@<TRIPOS>BOND
     1    43    44    2
     2    43    42    1
     3    44    36    1
     4    42    38    2
     5    34    33    1
     6    36    35    1
     7    36    37    1
     8    35    33    1
     9    35    30    1
    10    33    31    1
    11    38    37    1
    12    38    39    1
    13    32    31    1
    14    41    39   am
    15    30    29    1
    16    31    29    1
    17    39    40    2
    18    29    28    1
    19    28    27    1
    20    27    24    1
    21    25    24    2
    22    24    26    1
    23    24    23    1
    24    23     1    1
    25    18    17    1
    26    17    16    1
    27    17    19    2
    28    15    16    2
    29    15    14    1
    30     5     4    1
    31     5     6    1
    32     4     1    1
    33     1     2    2
    34     1     3    1
    35    16    22    1
    36    19    20    1
    37    14    13    1
    38     7     6    1
    39     7    12    1
    40    22    13    1
    41    22    21    2
    42    20    21    1
    43    13    12    1
    44     6     8    1
    45    12    10    1
    46    10     8    1
    47    10    11    1
    48     8     9    1
