@<TRIPOS>MOLECULE
1bxh_AMG_A_1.pdb
 11 11 0 0 0
SMALL
GASTEIGER

@<TRIPOS>ATOM
      1  C1        48.8340   49.6510    8.1090 C.3   241  AMG241      0.1777
      2  C2        48.5490   49.9420    9.5670 C.3   241  AMG241      0.2141
      3  C3        48.4940   48.6090   10.3070 C.3   241  AMG241      0.2173
      4  C4        47.3670   47.7600    9.7080 C.3   241  AMG241      0.2142
      5  C5        47.6030   47.5650    8.2190 C.3   241  AMG241      0.1810
      6  C6        46.4360   46.8880    7.5540 C.3   241  AMG241      0.2141
      7  O2        47.3010   50.6050    9.6640 O.3   241  AMG241     -0.2176
      8  O3        48.2960   48.8250   11.6990 O.3   241  AMG241     -0.2175
      9  O4        47.3180   46.5000   10.3350 O.3   241  AMG241     -0.2176
     10  O5        47.7810   48.8440    7.5700 O.3   241  AMG241     -0.3481
     11  O6        45.2500   47.6610    7.6920 O.3   241  AMG241     -0.2176
@<TRIPOS>BOND
     1     6    11    1
     2     6     5    1
     3    10     1    1
     4    10     5    1
     5     1     2    1
     6     5     4    1
     7     2     7    1
     8     2     3    1
     9     4     3    1
    10     4     9    1
    11     3     8    1
