@<TRIPOS>MOLECULE
1bxh_MMA_A_1.pdb
 13 13 0 0 0
SMALL
GASTEIGER

@<TRIPOS>ATOM
      1  C1        50.3780   47.8170    5.9530 C.3   242  MMA242      0.2695
      2  C2        50.7450   49.0760    6.7350 C.3   242  MMA242      0.2406
      3  C3        52.2530   49.1360    6.9480 C.3   242  MMA242      0.2198
      4  C4        52.7120   47.8540    7.6540 C.3   242  MMA242      0.2144
      5  C5        52.2810   46.6310    6.8530 C.3   242  MMA242      0.1835
      6  C6        52.6000   45.3420    7.5830 C.3   242  MMA242      0.2142
      7  C7        49.9860   47.3750    3.7220 C.3   242  MMA242      0.1769
      8  O1        50.9420   47.8540    4.6900 O.3   242  MMA242     -0.3259
      9  O2        50.0930   49.0410    8.0190 O.3   242  MMA242     -0.2149
     10  O3        52.5610   50.2690    7.7520 O.3   242  MMA242     -0.2174
     11  O4        54.1230   47.8530    7.7910 O.3   242  MMA242     -0.2176
     12  O5        50.8510   46.6460    6.6380 O.3   242  MMA242     -0.3256
     13  O6        52.2110   44.2090    6.8150 O.3   242  MMA242     -0.2176
@<TRIPOS>BOND
     1     7     8    1
     2     8     1    1
     3     1    12    1
     4     1     2    1
     5    12     5    1
     6     2     3    1
     7     2     9    1
     8    13     6    1
     9     5     6    1
    10     5     4    1
    11     3     4    1
    12     3    10    1
    13     4    11    1
