@<TRIPOS>MOLECULE
1bxk_NAD_A_1.pdb
 44 48 0 0 0
SMALL
GASTEIGER

@<TRIPOS>ATOM
      1  PA        15.2250   21.8200   16.8810 P.3   380  NAD380      0.2189
      2  O1A       15.9810   21.5210   18.0710 O.3   380  NAD380     -0.4371
      3  O2A       14.0200   21.0610   16.6820 O.2   380  NAD380     -0.5170
      4  O5B       16.0400   21.7900   15.5300 O.3   380  NAD380     -0.3112
      5  C5B       17.4060   22.2320   15.5460 C.3   380  NAD380      0.1813
      6  C4B       17.8540   21.9930   14.1600 C.3   380  NAD380      0.1821
      7  O4B       19.1540   22.5850   13.9770 O.3   380  NAD380     -0.3135
      8  C3B       18.1410   20.4780   13.9460 C.3   380  NAD380      0.2184
      9  O3B       17.5640   20.0770   12.7090 O.3   380  NAD380     -0.2174
     10  C2B       19.6780   20.3890   14.0420 C.3   380  NAD380      0.2570
     11  O2B       20.1660   19.3560   13.1890 O.3   380  NAD380     -0.2130
     12  C1B       20.0840   21.7460   13.4070 C.3   380  NAD380      0.3186
     13  N9A       21.3480   22.1630   13.9110 N.pl3 380  NAD380     -0.1439
     14  C8A       21.7170   22.1660   15.2300 C.3   380  NAD380      0.3377
     15  N7A       22.9890   22.5180   15.3910 N.2   380  NAD380     -0.2095
     16  C5A       23.4050   22.8810   14.0980 C.2   380  NAD380      0.2526
     17  C6A       24.6690   23.4030   13.6280 C.2   380  NAD380      0.4393
     18  N6A       25.7920   23.6930   14.3250 N.pl3 380  NAD380      0.2180
     19  N1A       24.7770   23.5000   12.3110 N.2   380  NAD380      0.0021
     20  C2A       23.6680   23.1720   11.5420 C.3   380  NAD380      0.5254
     21  N3A       22.4780   22.6970   11.8580 N.2   380  NAD380     -0.0055
     22  C4A       22.4410   22.5410   13.1850 C.2   380  NAD380      0.3518
     23  O3        14.7840   23.3540   16.9300 O.3   380  NAD380     -0.2703
     24  PN        13.3330   24.1220   17.0190 P.3   380  NAD380      0.2189
     25  O1N       12.6280   23.7600   18.2520 O.3   380  NAD380     -0.4371
     26  O2N       12.5840   23.9560   15.7550 O.2   380  NAD380     -0.5170
     27  O5D       13.8180   25.6450   17.1690 O.3   380  NAD380     -0.3112
     28  C5D       14.2920   26.2660   15.9310 C.3   380  NAD380      0.1813
     29  C4D       14.4630   27.7580   16.2660 C.3   380  NAD380      0.1799
     30  O4D       13.2300   28.2030   16.9340 O.3   380  NAD380     -0.3327
     31  C3D       15.5980   28.0110   17.2290 C.3   380  NAD380      0.2158
     32  O3D       16.5000   29.0630   16.9080 O.3   380  NAD380     -0.2175
     33  C2D       14.8600   28.1740   18.5760 C.3   380  NAD380      0.2309
     34  O2D       15.5890   28.9610   19.5540 O.3   380  NAD380     -0.2158
     35  C1D       13.5760   28.8200   18.1360 C.3   380  NAD380      0.2263
     36  N1N       12.5890   28.6860   19.1680 N.pl3 380  NAD380     -0.2787
     37  C2N       12.0650   27.4480   19.2640 C.3   380  NAD380      0.1244
     38  C3N       10.9890   27.3250   20.1030 C.2   380  NAD380      0.0544
     39  C7N       10.1450   26.1020   20.4130 C.2   380  NAD380      0.2818
     40  O7N        9.2030   26.0940   21.1460 O.2   380  NAD380     -0.2670
     41  N7N       10.6060   25.0390   19.7340 N.am  380  NAD380     -0.0839
     42  C4N       10.5010   28.3620   20.9760 C.2   380  NAD380      0.0033
     43  C5N       11.2030   29.5750   20.8020 C.2   380  NAD380      0.0157
     44  C6N       12.2290   29.7810   19.9350 C.2   380  NAD380      0.0633
@<TRIPOS>BOND
     1    20    21    1
     2    20    19    1
     3    21    22    2
     4    19    17    2
     5     9     8    1
     6    22    13    1
     7    22    16    1
     8    11    10    1
     9    12    13    1
    10    12     7    1
    11    12    10    1
    12    17    16    1
    13    17    18    1
    14    13    14    1
    15     8    10    1
    16     8     6    1
    17     7     6    1
    18    16    15    2
    19     6     5    1
    20    14    15    1
    21     4     5    1
    22     4     1    1
    23    26    24    2
    24    28    29    1
    25    28    27    1
    26    29    30    1
    27    29    31    1
    28     3     1    2
    29     1    23    1
    30     1     2    1
    31    32    31    1
    32    23    24    1
    33    30    35    1
    34    24    27    1
    35    24    25    1
    36    31    33    1
    37    35    33    1
    38    35    36    1
    39    33    34    1
    40    36    37    1
    41    36    44    1
    42    37    38    1
    43    41    39   am
    44    44    43    2
    45    38    39    1
    46    38    42    2
    47    39    40    2
    48    43    42    1
