@<TRIPOS>MOLECULE
1bxo_MAN_A_1.pdb
 22 22 0 0 0
SMALL
GASTEIGER

@<TRIPOS>ATOM
      1  C1        29.9970   27.8790   -0.5230 C.3   328  MAN328      0.1161
      2  C2        29.9740   27.4790   -1.9470 C.3   328  MAN328      0.1121
      3  C3        31.3750   27.6870   -2.6250 C.3   328  MAN328      0.1118
      4  C4        31.8440   29.1330   -2.4090 C.3   328  MAN328      0.1117
      5  C5        31.7700   29.4860   -0.9610 C.3   328  MAN328      0.1105
      6  C6        32.0540   30.9370   -0.6050 C.3   328  MAN328      0.0729
      7  O2        28.9590   28.2120   -2.6450 O.3   328  MAN328     -0.3865
      8  O3        31.3540   27.4000   -4.0180 O.3   328  MAN328     -0.3865
      9  O4        33.1820   29.3240   -2.8430 O.3   328  MAN328     -0.3865
     10  O5        30.4520   29.2490   -0.3800 O.3   328  MAN328     -0.3631
     11  O6        31.2860   31.9180   -1.2910 O.3   328  MAN328     -0.3924
     12  H1        29.1030   27.7800   -0.1330 H     328  MAN328      0.0650
     13  H2        29.7500   26.5260   -1.9940 H     328  MAN328      0.0647
     14  H3        32.0190   27.0860   -2.1950 H     328  MAN328      0.0647
     15  H4        31.2580   29.7350   -2.9130 H     328  MAN328      0.0647
     16  H5        32.4160   28.9260   -0.4820 H     328  MAN328      0.0646
     17  H61       31.9070   31.0490    0.3470 H     328  MAN328      0.0584
     18  H62       32.9920   31.1130   -0.7760 H     328  MAN328      0.0584
     19  HO2       28.9530   27.9880   -3.4340 H     328  MAN328      0.2100
     20  HO3       31.1000   26.6290   -4.1340 H     328  MAN328      0.2100
     21  HO4       33.2410   29.1320   -3.6380 H     328  MAN328      0.2100
     22  HO6       31.5110   32.6660   -1.0400 H     328  MAN328      0.2095
@<TRIPOS>BOND
     1    20     8    1
     2     8     3    1
     3    21     9    1
     4    19     7    1
     5    15     4    1
     6     9     4    1
     7     7     2    1
     8     3     4    1
     9     3    14    1
    10     3     2    1
    11     4     5    1
    12    13     2    1
    13     2     1    1
    14    11    22    1
    15    11     6    1
    16     5     6    1
    17     5    16    1
    18     5    10    1
    19    18     6    1
    20     6    17    1
    21     1    10    1
    22     1    12    1
