@<TRIPOS>MOLECULE
1bxq_PP8_A_1.pdb
 43 43 0 0 0
SMALL
GASTEIGER

@<TRIPOS>ATOM
      1  NV2       17.8320    5.2860   18.4190 N.am  324  PP8324     -0.1978
      2  CV1       15.9120    4.0050   17.5700 C.3   324  PP8324      0.0868
      3  CV6       19.0790    5.6070   19.0680 C.3   324  PP8324      0.1726
      4  CV2       14.6320    3.8110   18.3760 C.3   324  PP8324      0.0091
      5  CV7       20.3030    5.5530   18.1680 C.3   324  PP8324      0.0290
      6  CV3       14.4710    4.9390   19.3820 C.3   324  PP8324      0.0005
      7  CV8       20.5040    4.1890   17.5240 C.3   324  PP8324      0.0023
      8  CV4       13.4430    3.8340   17.4010 C.3   324  PP8324      0.0005
      9  CV9       20.3630    6.6440   17.1180 C.3   324  PP8324      0.0023
     10  CV5       17.1080    4.1910   18.5110 C.2   324  PP8324      0.2418
     11  CR        18.9500    7.0010   19.7110 C.2   324  PP8324      0.2616
     12  OV1       17.4690    3.3090   19.2930 O.2   324  PP8324     -0.2733
     13  OV2       18.0990    7.8140   19.3640 O.2   324  PP8324     -0.2715
     14  N1        19.8370    7.2350   20.6840 N.am  324  PP8324     -0.1958
     15  C1        19.8160    8.4200   21.5280 C.3   324  PP8324      0.1819
     16  C2        18.9670    8.2870   22.7540 C.3   324  PP8324      0.1195
     17  C4        18.9430    9.4570   23.7210 C.2   324  PP8324      0.2630
     18  O2        18.8230    9.1030   24.9170 O.2   324  PP8324     -0.2716
     19  N2        19.0480   10.7380   23.4230 N.am  324  PP8324     -0.0877
     20  C3        21.2630    8.8130   21.7810 C.2   324  PP8324      0.2622
     21  O1        21.8280    8.4580   22.8110 O.2   324  PP8324     -0.2715
     22  NL        21.8590    9.5010   20.8020 N.am  324  PP8324     -0.1932
     23  CAL       23.2410    9.9210   20.7380 C.3   324  PP8324      0.2006
     24  CBL       23.9850    9.4030   19.5150 C.3   324  PP8324      0.0343
     25  CGL       23.7190    7.9470   19.1750 C.3   324  PP8324      0.0023
     26  CL1       24.4010    7.5330   17.8850 C.3   324  PP8324      0.0001
     27  CL2       24.1640    7.0130   20.3000 C.3   324  PP8324      0.0001
     28  P         23.4010   11.6970   20.9410 P.3   324  PP8324      0.3891
     29  O3        22.4630   12.3340   19.9930 O.2   324  PP8324     -0.2537
     30  O4        24.8440   12.0810   20.8150 O.3   324  PP8324     -0.1383
     31  O5        22.9220   12.0060   22.3990 O.3   324  PP8324     -0.2823
     32  C5        23.5630   12.9600   23.1660 C.3   324  PP8324      0.2262
     33  C6        22.5630   14.0090   23.7430 C.3   324  PP8324      0.0680
     34  C7        25.4640   12.8530   26.3700 C.3   324  PP8324      0.2557
     35  CE2       21.6500   13.5740   24.8720 C.ar  324  PP8324     -0.0192
     36  CZ        21.3300   14.4610   25.8960 C.ar  324  PP8324     -0.0042
     37  CD2       21.1210   12.3000   24.9100 C.ar  324  PP8324     -0.0042
     38  CE1       20.4960   14.0630   26.9270 C.ar  324  PP8324     -0.0003
     39  CD1       20.0140   12.7620   26.8840 C.ar  324  PP8324     -0.0000
     40  CG        20.2840   11.8200   25.8950 C.ar  324  PP8324     -0.0003
     41  CT        24.3240   12.3790   24.3790 C.2   324  PP8324      0.3454
     42  OT1       24.7470   13.2270   25.2110 O.3   324  PP8324     -0.4427
     43  OT2       24.4260   11.1470   24.5140 O.2   324  PP8324     -0.2474
@<TRIPOS>BOND
     1     9     5    1
     2     8     4    1
     3     7     5    1
     4     2     4    1
     5     2    10    1
     6    26    25    1
     7     5     3    1
     8     4     6    1
     9     1    10   am
    10     1     3    1
    11    10    12    2
    12     3    11    1
    13    25    24    1
    14    25    27    1
    15    13    11    2
    16    24    23    1
    17    11    14   am
    18    29    28    2
    19    14    15    1
    20    23    22    1
    21    23    28    1
    22    22    20   am
    23    30    28    1
    24    28    31    1
    25    15    20    1
    26    15    16    1
    27    20    21    2
    28    31    32    1
    29    16    17    1
    30    32    33    1
    31    32    41    1
    32    19    17   am
    33    17    18    2
    34    33    35    1
    35    41    43    2
    36    41    42    1
    37    35    37   ar
    38    35    36   ar
    39    37    40   ar
    40    42    34    1
    41    40    39   ar
    42    36    38   ar
    43    39    38   ar
