@<TRIPOS>MOLECULE
1bxq_MAN_A_1.pdb
 11 11 0 0 0
SMALL
GASTEIGER

@<TRIPOS>ATOM
      1  C1        25.3990   15.1230   -1.8760 C.3   332  MAN332      0.1777
      2  C2        25.9850   16.4030   -2.4020 C.3   332  MAN332      0.2141
      3  C3        24.9130   17.3750   -2.7680 C.3   332  MAN332      0.2173
      4  C4        23.5450   16.7680   -3.1800 C.3   332  MAN332      0.2142
      5  C5        23.4190   15.2480   -3.1710 C.3   332  MAN332      0.1810
      6  C6        22.9600   14.6820   -4.5060 C.3   332  MAN332      0.2141
      7  O2        26.8380   16.0720   -3.5120 O.3   332  MAN332     -0.2176
      8  O3        25.4370   18.4380   -3.5390 O.3   332  MAN332     -0.2175
      9  O4        22.9390   17.3530   -4.3000 O.3   332  MAN332     -0.2176
     10  O5        24.6560   14.5450   -2.9330 O.3   332  MAN332     -0.3481
     11  O6        23.8710   13.6910   -4.9800 O.3   332  MAN332     -0.2176
@<TRIPOS>BOND
     1    11     6    1
     2     6     5    1
     3     9     4    1
     4     8     3    1
     5     7     2    1
     6     4     5    1
     7     4     3    1
     8     5    10    1
     9    10     1    1
    10     3     2    1
    11     2     1    1
