@<TRIPOS>MOLECULE
1bxr_ANP_A_1.pdb
 31 33 0 0 0
SMALL
GASTEIGER

@<TRIPOS>ATOM
      1  PG        20.7420   29.4160   71.6650 P.3   1083  ANP1083     0.4884
      2  O1G       21.5970   29.0350   70.4450 O.2   1083  ANP1083    -0.2331
      3  O2G       21.4680   30.4410   72.4470 O.3   1083  ANP1083    -0.1240
      4  O3G       20.5270   28.1650   72.6600 O.3   1083  ANP1083    -0.1240
      5  PB        17.9740   29.1110   70.7120 P.3   1083  ANP1083     0.4669
      6  O1B       18.3140   28.3020   69.4830 O.2   1083  ANP1083    -0.2351
      7  O2B       17.4090   28.2610   71.8170 O.3   1083  ANP1083    -0.1253
      8  N3B       19.2880   29.9350   71.2370 N.3   1083  ANP1083    -0.0163
      9  PA        16.2510   31.3200   71.0760 P.3   1083  ANP1083     0.2220
     10  O1A       15.2010   30.8060   72.0270 O.3   1083  ANP1083    -0.4370
     11  O2A       17.3890   31.9090   71.8580 O.2   1083  ANP1083    -0.5170
     12  O3A       16.8310   30.1010   70.2470 O.3   1083  ANP1083    -0.2360
     13  O5'       15.6130   32.4080   70.0710 O.3   1083  ANP1083    -0.3111
     14  C5'       16.4020   32.8080   68.9130 C.3   1083  ANP1083     0.1813
     15  C4'       16.2000   34.2750   68.5030 C.3   1083  ANP1083     0.1821
     16  O4'       14.8860   34.4730   67.9180 O.3   1083  ANP1083    -0.3135
     17  C3'       16.3140   35.3230   69.6070 C.3   1083  ANP1083     0.2184
     18  O3'       17.6850   35.6840   69.8610 O.3   1083  ANP1083    -0.2174
     19  C2'       15.3520   36.4310   69.1340 C.3   1083  ANP1083     0.2570
     20  O2'       16.0400   37.5370   68.5280 O.3   1083  ANP1083    -0.2130
     21  C1'       14.4090   35.7560   68.1460 C.3   1083  ANP1083     0.3186
     22  N9        13.0470   35.6550   68.6980 N.pl3 1083  ANP1083    -0.1439
     23  C8        12.5860   34.7950   69.6380 C.3   1083  ANP1083     0.3377
     24  N7        11.2790   34.9230   69.8850 N.2   1083  ANP1083    -0.2095
     25  C5        10.8660   35.9480   69.0720 C.2   1083  ANP1083     0.2526
     26  C6         9.5790   36.5350   68.9260 C.2   1083  ANP1083     0.4393
     27  N6         8.5250   36.2230   69.5420 N.pl3 1083  ANP1083     0.2180
     28  N1         9.6240   37.5490   68.0120 N.2   1083  ANP1083     0.0021
     29  C2        10.7340   37.9740   67.3150 C.3   1083  ANP1083     0.5254
     30  N3        11.9220   37.4480   67.4500 N.2   1083  ANP1083    -0.0055
     31  C4        11.9430   36.4300   68.3430 C.2   1083  ANP1083     0.3518
@<TRIPOS>BOND
     1    29    30    1
     2    29    28    1
     3    30    31    2
     4    16    21    1
     5    16    15    1
     6    28    26    2
     7    21    22    1
     8    21    19    1
     9    31    22    1
    10    31    25    1
    11    15    14    1
    12    15    17    1
    13    20    19    1
    14    22    23    1
    15    14    13    1
    16    26    25    1
    17    26    27    1
    18    25    24    2
    19    19    17    1
    20     6     5    2
    21    17    18    1
    22    23    24    1
    23    13     9    1
    24    12     5    1
    25    12     9    1
    26     2     1    2
    27     5     8    1
    28     5     7    1
    29     9    11    2
    30     9    10    1
    31     8     1    1
    32     1     3    1
    33     1     4    1
