@<TRIPOS>MOLECULE
1bxs_NAD_A_1.pdb
 44 48 0 0 0
SMALL
GASTEIGER

@<TRIPOS>ATOM
      1  PA        32.2330   80.4920   48.8910 P.3   550  NAD550      0.2189
      2  O1A       33.5520   79.8020   48.8440 O.2   550  NAD550     -0.5170
      3  O2A       32.1200   81.8660   49.4520 O.3   550  NAD550     -0.4371
      4  O5B       31.0750   79.5480   49.4760 O.3   550  NAD550     -0.3112
      5  C5B       31.1240   78.1430   49.7780 C.3   550  NAD550      0.1813
      6  C4B       30.6590   77.8720   51.2200 C.3   550  NAD550      0.1821
      7  O4B       31.5560   78.3810   52.2400 O.3   550  NAD550     -0.3135
      8  C3B       29.2880   78.3940   51.6700 C.3   550  NAD550      0.2184
      9  O3B       28.7370   77.5010   52.6450 O.3   550  NAD550     -0.2174
     10  C2B       29.6130   79.7220   52.3540 C.3   550  NAD550      0.2570
     11  O2B       28.6600   80.3410   53.2310 O.3   550  NAD550     -0.2130
     12  C1B       30.9310   79.4030   53.0560 C.3   550  NAD550      0.3186
     13  N9A       31.8050   80.5830   53.3930 N.pl3 550  NAD550     -0.1439
     14  C8A       31.8280   81.7940   52.7890 C.3   550  NAD550      0.3377
     15  N7A       32.5840   82.6710   53.4300 N.2   550  NAD550     -0.2095
     16  C5A       33.0370   81.9650   54.4440 C.2   550  NAD550      0.2526
     17  C6A       33.9560   82.4090   55.4080 C.2   550  NAD550      0.4393
     18  N6A       34.3420   83.6700   55.4980 N.pl3 550  NAD550      0.2180
     19  N1A       34.3950   81.5030   56.3200 N.2   550  NAD550      0.0021
     20  C2A       33.9850   80.2230   56.3270 C.3   550  NAD550      0.5254
     21  N3A       33.0890   79.8020   55.4200 N.2   550  NAD550     -0.0055
     22  C4A       32.5990   80.6460   54.4600 C.2   550  NAD550      0.3518
     23  O3        31.6680   80.6530   47.4050 O.3   550  NAD550     -0.2703
     24  PN        30.7900   81.8430   46.7720 P.3   550  NAD550      0.2189
     25  O1N       31.2420   83.1570   47.3700 O.3   550  NAD550     -0.4371
     26  O2N       29.3830   81.4020   46.9530 O.2   550  NAD550     -0.5170
     27  O5D       31.1850   81.7460   45.2020 O.3   550  NAD550     -0.3112
     28  C5D       32.1140   82.6330   44.5110 C.3   550  NAD550      0.1813
     29  C4D       33.1520   81.9450   43.5970 C.3   550  NAD550      0.1799
     30  O4D       33.6840   80.7610   44.2650 O.3   550  NAD550     -0.3327
     31  C3D       32.5290   81.3680   42.3290 C.3   550  NAD550      0.2158
     32  O3D       32.2860   82.2430   41.2130 O.3   550  NAD550     -0.2175
     33  C2D       33.4330   80.1610   42.0670 C.3   550  NAD550      0.2309
     34  O2D       34.6050   80.5550   41.3420 O.3   550  NAD550     -0.2158
     35  C1D       33.7750   79.5580   43.4360 C.3   550  NAD550      0.2263
     36  N1N       33.0890   78.2970   43.9400 N.pl3 550  NAD550     -0.2787
     37  C2N       33.6760   77.0480   43.5740 C.3   550  NAD550      0.1244
     38  C3N       32.9540   75.8810   43.9040 C.2   550  NAD550      0.0544
     39  C7N       33.5300   74.4690   43.7750 C.2   550  NAD550      0.2818
     40  O7N       32.8040   73.5230   43.4870 O.2   550  NAD550     -0.2670
     41  N7N       34.8300   74.2890   43.9670 N.am  550  NAD550     -0.0839
     42  C4N       31.6620   75.9910   44.4850 C.2   550  NAD550      0.0033
     43  C5N       31.0420   77.1950   44.8700 C.2   550  NAD550      0.0157
     44  C6N       31.8050   78.3310   44.6380 C.2   550  NAD550      0.0633
@<TRIPOS>BOND
     1    32    31    1
     2    34    33    1
     3    33    31    1
     4    33    35    1
     5    31    29    1
     6    35    36    1
     7    35    30    1
     8    40    39    2
     9    37    38    1
    10    37    36    1
    11    29    30    1
    12    29    28    1
    13    39    38    1
    14    39    41   am
    15    38    42    2
    16    36    44    1
    17    42    43    1
    18    28    27    1
    19    44    43    2
    20    27    24    1
    21    24    26    2
    22    24    25    1
    23    24    23    1
    24    23     1    1
    25     2     1    2
    26     1     3    1
    27     1     4    1
    28     4     5    1
    29     5     6    1
    30     6     8    1
    31     6     7    1
    32     8    10    1
    33     8     9    1
    34     7    12    1
    35    10    12    1
    36    10    11    1
    37    14    13    1
    38    14    15    1
    39    12    13    1
    40    13    22    1
    41    15    16    2
    42    16    22    1
    43    16    17    1
    44    22    21    2
    45    17    18    1
    46    17    19    2
    47    21    20    1
    48    19    20    1
