@<TRIPOS>MOLECULE
1bxw_C8E_A_1.pdb
 21 20 0 0 0
SMALL
GASTEIGER

@<TRIPOS>ATOM
      1  C1        34.4420   22.2270   50.8300 C.3   172  C8E172      0.0000
      2  C2        34.8380   23.6330   50.9740 C.3   172  C8E172      0.0000
      3  C3        36.0760   23.9710   50.3100 C.3   172  C8E172      0.0000
      4  C4        37.1000   23.9090   51.3640 C.3   172  C8E172      0.0000
      5  C5        38.3750   23.6870   50.6380 C.3   172  C8E172      0.0001
      6  C6        39.2600   24.8100   50.8490 C.3   172  C8E172      0.0026
      7  C7        40.5600   24.1530   50.7810 C.3   172  C8E172      0.0321
      8  C8        41.5840   25.1940   51.0050 C.3   172  C8E172      0.1423
      9  O9        42.9850   24.9590   50.9610 O.3   172  C8E172     -0.3511
     10  C10       43.5500   24.5420   49.7440 C.3   172  C8E172      0.1741
     11  C11       45.0390   24.5390   49.8340 C.3   172  C8E172      0.1743
     12  O12       45.5590   25.8500   49.5050 O.3   172  C8E172     -0.3471
     13  C13       46.8510   26.1910   50.0600 C.3   172  C8E172      0.1894
     14  C14       48.1860   26.7030   49.4080 C.3   172  C8E172      0.2376
     15  O15       49.0000   27.8770   49.6790 O.2   172  C8E172     -0.4666
     16  C16       50.3690   27.5910   50.0070 C.2   172  C8E172      0.2124
     17  C17       51.4430   28.4330   49.3410 C.2   172  C8E172      0.2124
     18  O18       52.8790   28.3550   49.5090 O.2   172  C8E172     -0.4665
     19  C19       53.3950   28.7500   50.8160 C.3   172  C8E172      0.2411
     20  C20       54.6900   29.6450   50.9660 C.3   172  C8E172      0.2292
     21  O21       55.9040   29.1610   50.3570 O.3   172  C8E172     -0.2162
@<TRIPOS>BOND
     1    17    18    1
     2    17    16    2
     3    14    15    1
     4    14    13    1
     5    12    11    1
     6    12    13    1
     7    18    19    1
     8    15    16    1
     9    10    11    1
    10    10     9    1
    11     3     2    1
    12     3     4    1
    13    21    20    1
    14     5     6    1
    15     5     4    1
    16     7     6    1
    17     7     8    1
    18    19    20    1
    19     1     2    1
    20     9     8    1
