@<TRIPOS>MOLECULE
1by5_III_B_1.pdb
 48 48 0 0 0
SMALL
GASTEIGER

@<TRIPOS>ATOM
      1  C1       117.1960   46.3680   17.0050 C.1   801  ALA801      0.1502
      2  C2       117.0990   46.1480   18.4900 C.3   801  ALA801      0.2191
      3  C3       116.8950   44.6780   18.8610 C.3   801  ALA801      0.0441
      4  C4       117.4640   44.3670   20.2500 C.3   801  ALA801      0.0252
      5  C5       116.9620   43.0120   20.8130 C.3   801  ALA801      0.0978
      6  C6       114.7150   41.8240   20.7250 C.2   801  ALA801      0.0679
      7  C7       115.2310   40.4890   20.4210 C.3   801  ALA801      0.0561
      8  N1       116.0370   46.9380   19.1450 N.2   801  ALA801     -0.1897
      9  N2       115.5040   42.8930   20.8900 N.am  801  ALA801     -0.2845
     10  O1       117.7130   45.5330   16.2880 O.2   801  ALA801     -0.2250
     11  O2       114.8750   44.1200   21.1970 O.3   801  ALA801     -0.4197
     12  O3       113.4730   42.0110   20.8480 O.2   801  ALA801     -0.5413
     13  C1       116.3200   47.9400   20.0550 C.1   802  ALA802      0.1501
     14  C2       115.1200   48.6450   20.8090 C.3   802  ALA802      0.2191
     15  C3       114.8800   47.8180   22.0670 C.3   802  ALA802      0.0441
     16  C4       113.7560   48.2540   23.0340 C.3   802  ALA802      0.0252
     17  C5       112.2790   47.9190   22.6640 C.3   802  ALA802      0.0978
     18  C6       111.4910   45.5210   22.9730 C.2   802  ALA802      0.0679
     19  C7       110.8830   45.7080   24.3680 C.3   802  ALA802      0.0561
     20  N1       113.8410   48.6610   19.9850 N.2   802  ALA802     -0.1897
     21  N2       112.0720   46.4910   22.2920 N.am  802  ALA802     -0.2845
     22  O1       117.4470   48.2590   20.3620 O.2   802  ALA802     -0.2250
     23  O2       112.5720   46.2060   21.0580 O.3   802  ALA802     -0.4197
     24  O3       111.4280   44.3580   22.4540 O.2   802  ALA802     -0.5413
     25  C1       113.7520   49.3950   18.8000 C.1   803  ALA803      0.1501
     26  C2       112.3510   49.2450   18.1540 C.3   803  ALA803      0.2191
     27  C3       111.9580   47.7480   17.8350 C.3   803  ALA803      0.0441
     28  C4       112.8680   47.0910   16.7970 C.3   803  ALA803      0.0252
     29  C5       112.5460   45.6450   16.4330 C.3   803  ALA803      0.0978
     30  C6       111.1860   44.1370   17.9840 C.2   803  ALA803      0.0679
     31  C7       109.9380   44.0140   17.0860 C.3   803  ALA803      0.0561
     32  N1       112.3630   50.0400   16.9250 N.2   803  ALA803     -0.1896
     33  N2       112.2640   44.8500   17.6390 N.am  803  ALA803     -0.2845
     34  O1       114.6680   50.0730   18.3630 O.2   803  ALA803     -0.2250
     35  O2       113.3240   44.8720   18.5390 O.3   803  ALA803     -0.4197
     36  O3       111.1730   43.5200   19.1200 O.2   803  ALA803     -0.5413
     37  N        112.7140   51.2900   14.4900 N.2   804  GLY804     -0.1863
     38  CA       111.3980   51.3060   15.0440 C.3   804  GLY804      0.2578
     39  C        111.2420   50.5610   16.3260 C.1   804  GLY804      0.1533
     40  O        110.0870   50.3800   16.8380 O.2   804  GLY804     -0.2249
     41  N        115.5100   49.3240   13.6240 N.2   805  GLY805     -0.1863
     42  CA       114.6690   50.4440   13.2900 C.3   805  GLY805      0.2578
     43  C        113.2000   50.2100   13.7730 C.1   805  GLY805      0.1534
     44  O        112.5670   49.1890   13.5510 O.2   805  GLY805     -0.2249
     45  N        116.7110   47.4920   16.5280 N.2   806  GLY806     -0.1863
     46  CA       116.7320   47.8680   15.1010 C.3   806  GLY806      0.2578
     47  C        115.8520   49.0690   14.8720 C.1   806  GLY806      0.1534
     48  O        115.5080   49.7240   15.8540 O.2   806  GLY806     -0.2249
@<TRIPOS>BOND
     1    42    41    1
     2    42    43    1
     3    44    43    2
     4    41    47    2
     5    43    37    2
     6    37    38    1
     7    47    46    1
     8    47    48    2
     9    38    39    1
    10    46    45    1
    11    10     1    2
    12    39    40    2
    13    39    32    2
    14    29    28    1
    15    29    33    1
    16    45     1    2
    17    28    27    1
    18    32    26    1
    19     1     2    1
    20    31    30    1
    21    33    30   am
    22    33    35    1
    23    27    26    1
    24    30    36    2
    25    26    25    1
    26    34    25    2
    27     2     3    1
    28     2     8    1
    29    25    20    2
    30     3     4    1
    31     8    13    2
    32    20    14    1
    33    13    22    2
    34    13    14    1
    35     4     5    1
    36     7     6    1
    37     6    12    2
    38     6     9   am
    39    14    15    1
    40     5     9    1
    41     9    11    1
    42    23    21    1
    43    15    16    1
    44    21    17    1
    45    21    18   am
    46    24    18    2
    47    17    16    1
    48    18    19    1
