@<TRIPOS>MOLECULE
1byb_GLC_A_1.pdb
 11 11 0 0 0
SMALL
GASTEIGER

@<TRIPOS>ATOM
      1  C1         1.1440   29.6280   21.9920 C.3   496  GLC496      0.1777
      2  C2         1.9650   28.3740   21.7090 C.3   496  GLC496      0.2141
      3  C3         3.3010   28.7850   21.1550 C.3   496  GLC496      0.2173
      4  C4         3.1440   29.6420   19.9090 C.3   496  GLC496      0.2142
      5  C5         2.3060   30.8640   20.2160 C.3   496  GLC496      0.1810
      6  C6         1.9210   31.5340   18.8880 C.3   496  GLC496      0.2141
      7  O2         2.1410   27.5020   22.8410 O.3   496  GLC496     -0.2176
      8  O3         4.0440   27.6430   20.8950 O.3   496  GLC496     -0.2175
      9  O4         4.4350   30.0480   19.4900 O.3   496  GLC496     -0.2176
     10  O5         1.0740   30.4720   20.7870 O.3   496  GLC496     -0.3481
     11  O6         1.1310   30.7840   17.9410 O.3   496  GLC496     -0.2176
@<TRIPOS>BOND
     1    11     6    1
     2     6     5    1
     3     9     4    1
     4     4     5    1
     5     4     3    1
     6     5    10    1
     7    10     1    1
     8     8     3    1
     9     3     2    1
    10     2     1    1
    11     2     7    1
