@<TRIPOS>MOLECULE
1byc_BGC_A_1.pdb
 12 12 0 0 0
SMALL
GASTEIGER

@<TRIPOS>ATOM
      1  C2        -3.2990   31.0930   33.5320 C.3   499  BGC499      0.2434
      2  C3        -2.6630   31.8530   32.3660 C.3   499  BGC499      0.2199
      3  C4        -1.4950   31.0410   31.8150 C.3   499  BGC499      0.2144
      4  C5        -1.7280   29.5330   31.7210 C.3   499  BGC499      0.1836
      5  C6        -0.3630   28.9650   31.8920 C.3   499  BGC499      0.2142
      6  C1        -3.7170   29.7630   32.9710 C.3   499  BGC499      0.3024
      7  O1        -4.7410   29.1210   33.7130 O.3   499  BGC499     -0.1869
      8  O2        -4.4130   31.7430   34.0770 O.3   499  BGC499     -0.2148
      9  O3        -2.1980   33.1310   32.7020 O.3   499  BGC499     -0.2174
     10  O4        -1.0130   31.5420   30.5650 O.3   499  BGC499     -0.2176
     11  O5        -2.5120   29.0100   32.8190 O.3   499  BGC499     -0.3236
     12  O6        -0.0010   27.9930   30.9960 O.3   499  BGC499     -0.2176
@<TRIPOS>BOND
     1    10     3    1
     2    12     5    1
     3     4     3    1
     4     4     5    1
     5     4    11    1
     6     3     2    1
     7     2     9    1
     8     2     1    1
     9    11     6    1
    10     6     1    1
    11     6     7    1
    12     1     8    1
