@<TRIPOS>MOLECULE
1byc_GLC_A_1.pdb
 11 11 0 0 0
SMALL
GASTEIGER

@<TRIPOS>ATOM
      1  C1         1.2940   29.7940   22.0310 C.3   496  GLC496      0.1777
      2  C2         2.0350   28.5160   21.6930 C.3   496  GLC496      0.2141
      3  C3         3.3800   28.8200   21.1290 C.3   496  GLC496      0.2173
      4  C4         3.2260   29.6500   19.8530 C.3   496  GLC496      0.2142
      5  C5         2.3970   30.9160   20.1870 C.3   496  GLC496      0.1810
      6  C6         1.9570   31.6240   18.9080 C.3   496  GLC496      0.2141
      7  O2         2.1440   27.5690   22.7450 O.3   496  GLC496     -0.2176
      8  O3         4.0390   27.6040   20.9220 O.3   496  GLC496     -0.2175
      9  O4         4.5520   30.0030   19.4160 O.3   496  GLC496     -0.2176
     10  O5         1.1590   30.5760   20.8190 O.3   496  GLC496     -0.3481
     11  O6         1.1870   30.8470   17.9930 O.3   496  GLC496     -0.2176
@<TRIPOS>BOND
     1    11     6    1
     2     6     5    1
     3     9     4    1
     4     4     5    1
     5     4     3    1
     6     5    10    1
     7    10     1    1
     8     8     3    1
     9     3     2    1
    10     2     1    1
    11     2     7    1
