@<TRIPOS>MOLECULE
1byd_DOM_A_1.pdb
 22 23 0 0 0
SMALL
GASTEIGER

@<TRIPOS>ATOM
      1  C1         1.0820   29.6460   21.8500 C.3   496  DOM496      0.2695
      2  C2         1.9520   28.4020   21.5660 C.3   496  DOM496      0.2406
      3  C3         3.2900   28.8470   21.0860 C.3   496  DOM496      0.2198
      4  C4         3.1320   29.6670   19.8160 C.3   496  DOM496      0.2144
      5  C5         2.3020   30.9330   20.1620 C.3   496  DOM496      0.1835
      6  C6         1.9020   31.6130   18.8430 C.3   496  DOM496      0.2142
      7  O1         1.7690   30.4340   22.7920 O.3   496  DOM496     -0.3258
      8  O2         2.1610   27.6010   22.7020 O.3   496  DOM496     -0.2149
      9  O3         4.0980   27.7080   20.9170 O.3   496  DOM496     -0.2174
     10  O4         4.4670   29.9900   19.3130 O.3   496  DOM496     -0.2176
     11  O5         1.0390   30.5380   20.6730 O.3   496  DOM496     -0.3256
     12  O6         1.2580   30.7880   17.8640 O.3   496  DOM496     -0.2176
     13  C1'        0.0390   33.7750   24.7740 C.3   496  DOM496      0.2716
     14  C2'       -0.8520   32.6940   24.3410 C.3   496  DOM496      0.0998
     15  C3'       -0.0280   31.4640   24.1950 C.3   496  DOM496      0.1866
     16  C4'        1.0640   31.6600   23.1040 C.3   496  DOM496      0.1778
     17  C5'        2.0550   32.5700   23.8540 C.3   496  DOM496      0.1802
     18  C6'        3.0550   33.0000   22.8050 C.3   496  DOM496      0.2141
     19  O1'       -0.6660   34.9650   24.4970 O.3   496  DOM496     -0.1898
     20  O3'       -0.8980   30.3570   24.0210 O.3   496  DOM496     -0.2203
     21  O5'        1.3270   33.7940   24.1450 O.3   496  DOM496     -0.3256
     22  O6'        2.4240   33.8230   21.8390 O.3   496  DOM496     -0.2176
@<TRIPOS>BOND
     1    12     6    1
     2     6     5    1
     3    10     4    1
     4     4     5    1
     5     4     3    1
     6     5    11    1
     7    11     1    1
     8     9     3    1
     9     3     2    1
    10     2     1    1
    11     2     8    1
    12    22    18    1
    13     1     7    1
    14     7    16    1
    15    18    17    1
    16    16    17    1
    17    16    15    1
    18    17    21    1
    19    20    15    1
    20    21    13    1
    21    15    14    1
    22    14    13    1
    23    19    13    1
