@<TRIPOS>MOLECULE
1bye_ATA_A_1.pdb
 33 33 0 0 0
SMALL
GASTEIGER

@<TRIPOS>ATOM
      1  N'        -4.0360    1.0320   15.8990 N.3   1001  ATA1001    -0.1208
      2  CA'       -4.7400    1.6280   14.7240 C.3   1001  ATA1001     0.1948
      3  CB'       -3.7590    2.0090   13.6120 C.3   1001  ATA1001     0.0402
      4  CG'       -4.0000    1.2370   12.3110 C.3   1001  ATA1001     0.0889
      5  CC'       -5.7470    0.6240   14.1430 C.2   1001  ATA1001     0.3819
      6  O1'       -6.4700    1.0130   13.2060 O.co2 1001  ATA1001    -0.2441
      7  O2'       -5.8450   -0.4830   14.7050 O.co2 1001  ATA1001    -0.2441
      8  C'        -2.7310    0.5220   11.8570 C.2   1001  ATA1001     0.2418
      9  O'        -2.0060    0.0590   12.7550 O.2   1001  ATA1001    -0.2733
     10  N5         0.2650   -5.2180    6.1280 N.2   1001  ATA1001    -0.2439
     11  C6        -0.7070   -5.8570    6.7810 C.1   1001  ATA1001     0.2413
     12  N1        -1.2460   -5.4670    7.9310 N.2   1001  ATA1001    -0.2528
     13  C2        -1.1200   -4.1400    8.1530 C.1   1001  ATA1001     0.1916
     14  N3        -0.4520   -3.3050    7.3220 N.2   1001  ATA1001    -0.2528
     15  C4         0.4550   -3.9590    6.5670 C.1   1001  ATA1001     0.2413
     16  N         -2.8150   -0.1800   10.7090 N.am  1001  ATA1001    -0.1968
     17  CA        -1.6030   -0.8690   10.2450 C.3   1001  ATA1001     0.1845
     18  C         -1.4530   -0.7490    8.7210 C.2   1001  ATA1001     0.2627
     19  O         -1.3160   -1.7980    8.0770 O.2   1001  ATA1001    -0.2714
     20  CB        -1.6220   -2.3710   10.6240 C.3   1001  ATA1001     0.1055
     21  SG        -2.2390   -3.4470    9.3070 S.3   1001  ATA1001    -0.0143
     22  N7         1.7520   -3.3550    6.1130 N.pl3 1001  ATA1001    -0.1524
     23  N11       -1.2870   -7.0370    6.0870 N.pl3 1001  ATA1001    -0.1506
     24  C12       -0.3790   -7.4090    4.9490 C.3   1001  ATA1001     0.1263
     25  C13       -1.0250   -8.5080    4.0830 C.3   1001  ATA1001     0.0261
     26  C8         2.2670   -3.8360    4.7890 C.3   1001  ATA1001     0.1058
     27  C9         1.4880   -5.0660    4.2800 C.3   1001  ATA1001     0.0243
     28  C10        2.3600   -2.8180    3.6310 C.3   1001  ATA1001     0.0243
     29  ND        -2.0050    0.3510    8.2200 N.am  1001  ATA1001    -0.1917
     30  CAD       -1.2670    1.1900    7.2930 C.3   1001  ATA1001     0.2285
     31  CD        -1.4820    2.6760    7.5210 C.2   1001  ATA1001     0.3865
     32  OD        -2.2000    3.3130    6.7160 O.co2 1001  ATA1001    -0.2437
     33  OT'       -0.7970    3.2400    8.4100 O.co2 1001  ATA1001    -0.2437
@<TRIPOS>BOND
     1    28    26    1
     2    25    24    1
     3    27    26    1
     4    26    22    1
     5    24    23    1
     6    23    11    1
     7    22    15    1
     8    10    15    2
     9    10    11    2
    10    15    14    2
    11    32    31   ar
    12    11    12    2
    13    30    31    1
    14    30    29    1
    15    14    13    2
    16    31    33   ar
    17    12    13    2
    18    19    18    2
    19    13    21    1
    20    29    18   am
    21    18    17    1
    22    21    20    1
    23    17    20    1
    24    17    16    1
    25    16     8   am
    26     8     4    1
    27     8     9    2
    28     4     3    1
    29     6     5   ar
    30     3     2    1
    31     5     7   ar
    32     5     2    1
    33     2     1    1
