@<TRIPOS>MOLECULE
1byg_STU_A_1.pdb
 35 42 0 0 0
SMALL
GASTEIGER

@<TRIPOS>ATOM
      1  O4        28.9730   42.6140   12.4530 O.3   501  STU501     -0.3186
      2  C25       29.0290   43.1500   13.7450 C.3   501  STU501      0.2078
      3  C24       28.0070   42.5670   14.7140 C.3   501  STU501      0.0739
      4  C23       27.1320   41.4700   14.1100 C.3   501  STU501      0.1086
      5  C22       26.5480   42.1640   12.8670 C.3   501  STU501      0.1761
      6  C21       27.6530   42.5330   11.8320 C.3   501  STU501      0.1915
      7  C26       27.8420   41.3310   10.8910 C.3   501  STU501      0.0566
      8  N2        27.3890   43.8280   11.1230 N.ar  501  STU501     -0.3054
      9  C18       27.8880   45.0490   11.5020 C.ar  501  STU501      0.0774
     10  C19       28.6570   45.4100   12.6180 C.ar  501  STU501      0.0783
     11  C6        28.9300   46.7550   12.9240 C.ar  501  STU501      0.0293
     12  C7        28.4470   47.7470   12.0570 C.ar  501  STU501      0.0822
     13  C10       27.7600   47.3920   10.9210 C.ar  501  STU501      0.0154
     14  C11       27.4330   46.0580   10.6540 C.ar  501  STU501      0.0173
     15  C12       26.6090   45.4270    9.6890 C.ar  501  STU501      0.0171
     16  C17       26.5940   44.0460    9.9940 C.ar  501  STU501      0.0617
     17  C16       25.8460   43.1570    9.1920 C.ar  501  STU501      0.0172
     18  C15       25.1180   43.6860    8.1270 C.ar  501  STU501      0.0015
     19  C14       25.1440   45.0640    7.8090 C.ar  501  STU501      0.0001
     20  C13       25.8850   45.9480    8.5850 C.ar  501  STU501      0.0015
     21  C9        27.5030   48.6340   10.1080 C.3   501  STU501      0.1650
     22  N1        28.0240   49.6650   10.9460 N.2   501  STU501     -0.1976
     23  C8        28.5730   49.2120   12.0930 C.1   501  STU501      0.1501
     24  O5        29.1450   49.8970   12.9830 O.2   501  STU501     -0.2222
     25  C5        29.6300   46.7740   14.1420 C.ar  501  STU501      0.0180
     26  C20       29.7680   45.4230   14.5400 C.ar  501  STU501      0.0618
     27  C1        30.4100   44.9700   15.7100 C.ar  501  STU501      0.0172
     28  C2        30.9220   46.0330   16.4410 C.ar  501  STU501      0.0015
     29  C3        30.8190   47.3890   16.0690 C.ar  501  STU501      0.0001
     30  C4        30.1600   47.8340   14.9260 C.ar  501  STU501      0.0015
     31  N3        29.1530   44.6050   13.5930 N.ar  501  STU501     -0.3039
     32  O6        26.1010   43.4140   13.3870 O.3   501  STU501     -0.3478
     33  C27       24.6840   43.6240   13.3080 C.3   501  STU501      0.1743
     34  N4        26.0180   40.9370   14.9190 N.3   501  STU501     -0.2152
     35  C28       26.4200   40.4900   16.2770 C.3   501  STU501      0.1075
@<TRIPOS>BOND
     1    19    18   ar
     2    19    20   ar
     3    18    17   ar
     4    20    15   ar
     5    17    16   ar
     6    15    16   ar
     7    15    14   ar
     8    16     8   ar
     9    21    13    1
    10    21    22    1
    11    14    13   ar
    12    14     9   ar
    13     7     6    1
    14    13    12   ar
    15    22    23    2
    16     8     9   ar
    17     8     6    1
    18     9    10   ar
    19     6     1    1
    20     6     5    1
    21    12    23    1
    22    12    11   ar
    23    23    24    2
    24     1     2    1
    25    10    11   ar
    26    10    31   ar
    27     5    32    1
    28     5     4    1
    29    11    25   ar
    30    33    32    1
    31    31     2    1
    32    31    26   ar
    33     2     3    1
    34     4     3    1
    35     4    34    1
    36    25    26   ar
    37    25    30   ar
    38    26    27   ar
    39    34    35    1
    40    30    29   ar
    41    27    28   ar
    42    29    28   ar
