@<TRIPOS>MOLECULE
1byh_BGC_A_1.pdb
 12 12 0 0 0
SMALL
GASTEIGER

@<TRIPOS>ATOM
      1  C2        11.6240   17.2750    5.8250 C.3   216  BGC216      0.2434
      2  C3        10.9160   16.4830    4.6650 C.3   216  BGC216      0.2199
      3  C4        11.7580   16.0620    3.4020 C.3   216  BGC216      0.2144
      4  C5        13.2400   15.7650    3.6910 C.3   216  BGC216      0.1836
      5  C6        14.1920   15.7820    2.4850 C.3   216  BGC216      0.2142
      6  C1        13.0770   16.7780    5.9170 C.3   216  BGC216      0.3024
      7  O1        13.8250   17.6540    6.8240 O.3   216  BGC216     -0.1869
      8  O2        10.9880   17.0860    7.1060 O.3   216  BGC216     -0.2148
      9  O3         9.9080   17.2700    4.0750 O.3   216  BGC216     -0.2174
     10  O4        11.1760   14.8570    2.9630 O.3   216  BGC216     -0.2176
     11  O5        13.7040   16.7520    4.6240 O.3   216  BGC216     -0.3236
     12  O6        14.6550   17.1160    2.1670 O.3   216  BGC216     -0.2176
@<TRIPOS>BOND
     1    12     5    1
     2     5     4    1
     3    10     3    1
     4     3     4    1
     5     3     2    1
     6     4    11    1
     7     9     2    1
     8    11     6    1
     9     2     1    1
    10     1     6    1
    11     1     8    1
    12     6     7    1
