@<TRIPOS>MOLECULE
1byk_T6P_A_1.pdb
 27 28 0 0 0
SMALL
GASTEIGER

@<TRIPOS>ATOM
      1  C1        27.0220  -11.6140   27.6150 C.3   317  T6P317      0.2713
      2  C2        27.1210  -12.5450   28.8240 C.3   317  T6P317      0.2406
      3  C3        26.3150  -13.7810   28.4800 C.3   317  T6P317      0.2198
      4  C4        24.9040  -13.2570   28.3350 C.3   317  T6P317      0.2144
      5  C5        24.8380  -12.2340   27.1810 C.3   317  T6P317      0.1835
      6  C6        23.4900  -11.6500   26.9610 C.3   317  T6P317      0.2142
      7  O1        27.7520  -10.4360   27.6280 O.3   317  T6P317     -0.3016
      8  O2        28.4330  -12.8560   29.1420 O.3   317  T6P317     -0.2149
      9  O3        26.3650  -14.6910   29.5280 O.3   317  T6P317     -0.2174
     10  O4        24.0400  -14.2710   28.0100 O.3   317  T6P317     -0.2176
     11  O5        25.7040  -11.1550   27.3610 O.3   317  T6P317     -0.3256
     12  O6        23.6220  -10.6900   25.9270 O.3   317  T6P317     -0.2176
     13  C1P       28.3020  -10.4900   26.2910 C.3   317  T6P317      0.2713
     14  C2P       28.6040  -10.9840   24.8520 C.3   317  T6P317      0.2406
     15  C3P       29.9940  -11.5870   24.7980 C.3   317  T6P317      0.2198
     16  C4P       30.9370  -10.4470   25.1070 C.3   317  T6P317      0.2143
     17  C5P       30.5520   -9.8720   26.5180 C.3   317  T6P317      0.1807
     18  C6P       31.3720   -8.6770   26.9240 C.3   317  T6P317      0.1859
     19  O2P       27.6680  -11.9450   24.4900 O.3   317  T6P317     -0.2149
     20  O3P       30.2220  -12.0630   23.5140 O.3   317  T6P317     -0.2174
     21  O4P       32.2530  -10.8860   25.0930 O.3   317  T6P317     -0.2176
     22  O5P       29.2000   -9.4380   26.4580 O.3   317  T6P317     -0.3257
     23  O6P       30.8700   -7.5720   26.2240 O.3   317  T6P317     -0.2675
     24  P         31.0070   -6.1480   26.8050 P.3   317  T6P317      0.5327
     25  O7P       31.3530   -5.2300   25.5970 O.2   317  T6P317     -0.2224
     26  O8P       32.1440   -6.2450   27.8480 O.3   317  T6P317     -0.1145
     27  O9P       29.6210   -5.8630   27.4160 O.3   317  T6P317     -0.1145
@<TRIPOS>BOND
     1    20    15    1
     2    19    14    1
     3    15    14    1
     4    15    16    1
     5    14    13    1
     6    21    16    1
     7    16    17    1
     8    25    24    2
     9    12     6    1
    10    23    24    1
    11    23    18    1
    12    13    22    1
    13    13     7    1
    14    22    17    1
    15    17    18    1
    16    24    27    1
    17    24    26    1
    18     6     5    1
    19     5    11    1
    20     5     4    1
    21    11     1    1
    22     1     7    1
    23     1     2    1
    24    10     4    1
    25     4     3    1
    26     3     2    1
    27     3     9    1
    28     2     8    1
