@<TRIPOS>MOLECULE
1byq_ADP_A_1.pdb
 27 29 0 0 0
SMALL
GASTEIGER

@<TRIPOS>ATOM
      1  PB        41.1190  -47.1340   69.0220 P.3   2001  ADP2001     0.5373
      2  O1B       40.0440  -46.1490   68.5640 O.3   2001  ADP2001    -0.1143
      3  O2B       42.4530  -46.9630   68.3800 O.2   2001  ADP2001    -0.2221
      4  O3B       41.1510  -47.2930   70.5700 O.3   2001  ADP2001    -0.1143
      5  PA        39.5040  -49.0820   67.5750 P.3   2001  ADP2001     0.2231
      6  O1A       38.2800  -48.2550   67.8400 O.3   2001  ADP2001    -0.4370
      7  O2A       39.3820  -50.5440   67.6480 O.2   2001  ADP2001    -0.5169
      8  O3A       40.6380  -48.5740   68.6270 O.3   2001  ADP2001    -0.2261
      9  O5'       40.1220  -48.6040   66.1740 O.3   2001  ADP2001    -0.3111
     10  C5'       41.3080  -49.2610   65.6650 C.3   2001  ADP2001     0.1813
     11  C4'       42.0720  -48.3870   64.7010 C.3   2001  ADP2001     0.1821
     12  O4'       41.3580  -48.4380   63.3970 O.3   2001  ADP2001    -0.3135
     13  C3'       42.0460  -46.9040   65.0190 C.3   2001  ADP2001     0.2184
     14  O3'       43.1290  -46.5780   65.9140 O.3   2001  ADP2001    -0.2174
     15  C2'       42.3600  -46.2520   63.6100 C.3   2001  ADP2001     0.2570
     16  O2'       43.7760  -46.4020   63.2830 O.3   2001  ADP2001    -0.2130
     17  C1'       41.5870  -47.2220   62.6810 C.3   2001  ADP2001     0.3186
     18  N9        40.2300  -46.6740   62.2490 N.pl3 2001  ADP2001    -0.1439
     19  C8        39.0510  -47.0980   62.6590 C.3   2001  ADP2001     0.3377
     20  N7        38.0910  -46.3950   62.1940 N.2   2001  ADP2001    -0.2095
     21  C5        38.7010  -45.4160   61.4120 C.2   2001  ADP2001     0.2526
     22  C6        38.2180  -44.3030   60.6450 C.2   2001  ADP2001     0.4393
     23  N6        36.8980  -43.9280   60.6090 N.pl3 2001  ADP2001     0.2180
     24  N1        39.1260  -43.5490   60.0160 N.2   2001  ADP2001     0.0021
     25  C2        40.4010  -43.8410   60.1370 C.3   2001  ADP2001     0.5254
     26  N3        40.9430  -44.8340   60.8360 N.2   2001  ADP2001    -0.0055
     27  C4        40.0340  -45.5890   61.4500 C.2   2001  ADP2001     0.3518
@<TRIPOS>BOND
     1    24    25    1
     2    24    22    2
     3    25    26    1
     4    23    22    1
     5    22    21    1
     6    26    27    2
     7    21    27    1
     8    21    20    2
     9    27    18    1
    10    20    19    1
    11    18    19    1
    12    18    17    1
    13    17    12    1
    14    17    15    1
    15    16    15    1
    16    12    11    1
    17    15    13    1
    18    11    13    1
    19    11    10    1
    20    13    14    1
    21    10     9    1
    22     9     5    1
    23     5     7    2
    24     5     6    1
    25     5     8    1
    26     3     1    2
    27     2     1    1
    28     8     1    1
    29     1     4    1
