@<TRIPOS>MOLECULE
1byu_GDP_A_1.pdb
 28 30 0 0 0
SMALL
GASTEIGER

@<TRIPOS>ATOM
      1  PB         0.9210   38.0950   26.9360 P.3   220  GDP220      0.5373
      2  O1B       -0.4690   37.6510   26.6260 O.2   220  GDP220     -0.2221
      3  O2B        0.8410   39.0130   28.1100 O.3   220  GDP220     -0.1143
      4  O3B        1.6960   36.9010   27.3280 O.3   220  GDP220     -0.1143
      5  O3A        1.4920   38.8410   25.6130 O.3   220  GDP220     -0.2261
      6  PA         1.0140   39.8990   24.5460 P.3   220  GDP220      0.2231
      7  O1A        0.4510   39.1020   23.4170 O.2   220  GDP220     -0.5169
      8  O2A        0.0800   40.8150   25.2330 O.3   220  GDP220     -0.4370
      9  O5'        2.3620   40.6120   24.1220 O.3   220  GDP220     -0.3111
     10  C5'        3.1520   41.4290   24.9860 C.3   220  GDP220      0.1813
     11  C4'        4.1680   42.2660   24.1730 C.3   220  GDP220      0.1799
     12  O4'        5.1280   41.3750   23.5170 O.3   220  GDP220     -0.3326
     13  C3'        3.5310   43.1030   23.0740 C.3   220  GDP220      0.2158
     14  O3'        4.1060   44.4070   22.9450 O.3   220  GDP220     -0.2175
     15  C2'        3.7970   42.2880   21.8110 C.3   220  GDP220      0.2310
     16  O2'        3.6300   43.1480   20.6870 O.3   220  GDP220     -0.2158
     17  C1'        5.2190   41.6860   22.1220 C.3   220  GDP220      0.2293
     18  N9         5.4660   40.4460   21.3370 N.pl3 220  GDP220     -0.2354
     19  C8         4.8420   39.2180   21.5180 C.3   220  GDP220      0.2246
     20  N7         5.2020   38.3000   20.6590 N.2   220  GDP220     -0.2322
     21  C5         6.1300   38.9330   19.8430 C.2   220  GDP220      0.2182
     22  C6         6.8640   38.3980   18.7470 C.1   220  GDP220      0.2372
     23  O6         6.7010   37.3220   18.1470 O.2   220  GDP220     -0.2069
     24  N1         7.7040   39.3790   18.1970 N.2   220  GDP220     -0.2485
     25  C2         7.8000   40.6940   18.6750 C.1   220  GDP220      0.2531
     26  N2         8.6580   41.4580   18.0130 N.pl3 220  GDP220     -0.0226
     27  N3         7.1140   41.1810   19.7040 N.2   220  GDP220     -0.3074
     28  C4         6.2920   40.2480   20.2580 C.2   220  GDP220      0.2300
@<TRIPOS>BOND
     1    26    25    1
     2    23    22    2
     3    24    25    2
     4    24    22    2
     5    25    27    2
     6    22    21    1
     7    27    28    2
     8    21    28    1
     9    21    20    2
    10    28    18    1
    11    20    19    1
    12    16    15    1
    13    18    19    1
    14    18    17    1
    15    15    17    1
    16    15    13    1
    17    17    12    1
    18    14    13    1
    19    13    11    1
    20     7     6    2
    21    12    11    1
    22     9     6    1
    23     9    10    1
    24    11    10    1
    25     6     8    1
    26     6     5    1
    27     5     1    1
    28     2     1    2
    29     1     4    1
    30     1     3    1
