@<TRIPOS>MOLECULE
1byv_NAG_A_1.pdb
 28 28 0 0 0
SMALL
GASTEIGER

@<TRIPOS>ATOM
      1  C1         5.7040  -14.7390    3.3370 C.3   300  NAG300      0.1078
      2  C2         4.5880  -15.2530    4.2500 C.3   300  NAG300      0.0801
      3  C3         3.1860  -15.0490    3.6660 C.3   300  NAG300      0.1043
      4  C4         3.0120  -13.6100    3.1920 C.3   300  NAG300      0.1110
      5  C5         4.1440  -13.2590    2.2230 C.3   300  NAG300      0.1104
      6  C6         4.0330  -11.8430    1.6490 C.3   300  NAG300      0.0729
      7  C7         4.8060  -17.6750    3.7460 C.2   300  NAG300      0.2103
      8  C8         5.0350  -19.0630    4.3330 C.3   300  NAG300      0.0122
      9  N2         4.7980  -16.6500    4.6120 N.am  300  NAG300     -0.3075
     10  O3         2.2090  -15.3610    4.6370 O.3   300  NAG300     -0.3872
     11  O4         1.7570  -13.4580    2.5650 O.3   300  NAG300     -0.3865
     12  O5         5.3990  -13.4100    2.8950 O.3   300  NAG300     -0.3639
     13  O6         3.9900  -10.8780    2.6770 O.3   300  NAG300     -0.3924
     14  O7         4.6420  -17.5440    2.5340 O.2   300  NAG300     -0.2761
     15  H1         5.8090  -15.3710    2.4450 H     300  NAG300      0.0642
     16  H2         4.6530  -14.6450    5.1590 H     300  NAG300      0.0551
     17  H3         3.0570  -15.7050    2.7940 H     300  NAG300      0.0639
     18  H4         3.0740  -12.9440    4.0650 H     300  NAG300      0.0646
     19  H5         4.1320  -13.9720    1.3860 H     300  NAG300      0.0646
     20  H61        3.1270  -11.7700    1.0460 H     300  NAG300      0.0584
     21  H62        4.8960  -11.6570    1.0100 H     300  NAG300      0.0584
     22  H81        6.0630  -19.1440    4.6860 H     300  NAG300      0.0322
     23  H82        4.3470  -19.2330    5.1610 H     300  NAG300      0.0322
     24  H83        4.8640  -19.8220    3.5680 H     300  NAG300      0.0322
     25  HN2        4.9430  -16.8480    5.5910 H     300  NAG300      0.1491
     26  HO3        2.3190  -16.2850    4.9180 H     300  NAG300      0.2100
     27  HO4        1.6360  -12.5280    2.3090 H     300  NAG300      0.2100
     28  HO6        3.9350  -10.0060    2.2790 H     300  NAG300      0.2095
@<TRIPOS>BOND
     1    21     6    1
     2    20     6    1
     3    19     5    1
     4     6     5    1
     5     6    13    1
     6     5    12    1
     7     5     4    1
     8    28    13    1
     9    27    11    1
    10    15     1    1
    11    14     7    2
    12    11     4    1
    13    17     3    1
    14    12     1    1
    15     4     3    1
    16     4    18    1
    17     1     2    1
    18    24     8    1
    19     3     2    1
    20     3    10    1
    21     7     8    1
    22     7     9   am
    23     2     9    1
    24     2    16    1
    25     8    22    1
    26     8    23    1
    27     9    25    1
    28    10    26    1
