@<TRIPOS>MOLECULE
1bz0_HEM_A_1.pdb
 43 50 0 0 0
SMALL
GASTEIGER

@<TRIPOS>ATOM
      1 FE         18.3330   18.4440   23.7690 Fe    142  HEM142      0.0000
      2  CHA       18.6990   18.6440   20.2860 C.2   142  HEM142      0.0000
      3  CHB       20.9730   20.6480   24.0900 C.2   142  HEM142      0.0000
      4  CHC       18.5640   17.7430   27.1710 C.2   142  HEM142      0.0000
      5  CHD       16.6400   15.4280   23.3610 C.2   142  HEM142      0.0000
      6  NA        19.5720   19.4450   22.4580 N.2   142  HEM142      0.0000
      7  C1A       19.5260   19.4080   21.0750 C.2   142  HEM142      0.0000
      8  C2A       20.5700   20.2850   20.5540 C.2   142  HEM142      0.0000
      9  C3A       21.2100   20.8450   21.5640 C.2   142  HEM142      0.0000
     10  C4A       20.5970   20.3340   22.7850 C.2   142  HEM142      0.0000
     11  CMA       22.3710   21.8590   21.5670 C.3   142  HEM142      0.0000
     12  CAA       20.7760   20.4760   19.0270 C.3   142  HEM142      0.0000
     13  CBA       20.0070   21.7000   18.4940 C.3   142  HEM142      0.0000
     14  CGA       20.1850   21.9760   17.0080 C.2   142  HEM142      0.0000
     15  O1A       19.6940   23.0470   16.5490 O.co2 142  HEM142      0.0000
     16  O2A       20.7920   21.1270   16.3100 O.co2 142  HEM142      0.0000
     17  NB        19.5970   19.0250   25.3200 N.ar  142  HEM142      0.0000
     18  C1B       20.5360   20.0320   25.2700 C.ar  142  HEM142      0.0000
     19  C2B       21.0160   20.3310   26.6020 C.ar  142  HEM142      0.0000
     20  C3B       20.3360   19.5400   27.4400 C.ar  142  HEM142      0.0000
     21  C4B       19.4560   18.6930   26.6430 C.ar  142  HEM142      0.0000
     22  CMB       22.0740   21.4330   26.8730 C.3   142  HEM142      0.0000
     23  CAB       20.3540   19.4350   28.9880 C.2   142  HEM142      0.0000
     24  CBB       21.4720   19.6750   29.6810 C.2   142  HEM142      0.0000
     25  NC        17.7030   16.9050   25.0060 N.2   142  HEM142      0.0000
     26  C1C       17.8440   16.8290   26.3940 C.2   142  HEM142      0.0000
     27  C2C       17.2100   15.6330   26.8890 C.2   142  HEM142      0.0000
     28  C3C       16.7180   14.9570   25.8200 C.2   142  HEM142      0.0000
     29  C4C       17.0130   15.7550   24.6430 C.2   142  HEM142      0.0000
     30  CMC       17.1460   15.2080   28.3670 C.3   142  HEM142      0.0000
     31  CAC       15.9380   13.6280   25.7790 C.2   142  HEM142      0.0000
     32  CBC       16.1150   12.6650   26.6700 C.2   142  HEM142      0.0000
     33  ND        17.8070   17.2730   22.1860 N.ar  142  HEM142      0.0000
     34  C1D       17.0220   16.1310   22.2350 C.ar  142  HEM142      0.0000
     35  C2D       16.7120   15.6990   20.8720 C.ar  142  HEM142      0.0000
     36  C3D       17.3000   16.5930   20.0560 C.ar  142  HEM142      0.0000
     37  C4D       18.0060   17.5710   20.8270 C.ar  142  HEM142      0.0000
     38  CMD       15.8700   14.4590   20.4850 C.3   142  HEM142      0.0000
     39  CAD       17.2510   16.5420   18.5090 C.3   142  HEM142      0.0000
     40  CBD       18.3410   15.5600   18.0020 C.3   142  HEM142      0.0000
     41  CGD       18.5010   15.5760   16.4760 C.2   142  HEM142      0.0000
     42  O1D       19.6020   16.0030   16.0500 O.co2 142  HEM142      0.0000
     43  O2D       17.5010   15.1730   15.8820 O.co2 142  HEM142      0.0000
@<TRIPOS>BOND
     1    43    41   ar
     2    42    41   ar
     3    16    14   ar
     4    41    40    1
     5    15    14   ar
     6    14    13    1
     7    40    39    1
     8    13    12    1
     9    39    36    1
    10    12     8    1
    11    36    37   ar
    12    36    35   ar
    13     2    37    2
    14     2     7    1
    15    38    35    1
    16     8     7    1
    17     8     9    2
    18    37    33   ar
    19    35    34   ar
    20     7     6    2
    21     9    11    1
    22     9    10    1
    23    33    34   ar
    24    33     1    1
    25    34     5    2
    26     6    10    1
    27     6     1    1
    28    10     3    2
    29     5    29    1
    30     1    25    1
    31     1    17    1
    32     3    18    1
    33    29    25    2
    34    29    28    1
    35    25    26    1
    36    18    17   ar
    37    18    19   ar
    38    17    21   ar
    39    31    28    1
    40    31    32    2
    41    28    27    2
    42    26    27    1
    43    26     4    2
    44    19    22    1
    45    19    20   ar
    46    21     4    1
    47    21    20   ar
    48    27    30    1
    49    20    23    1
    50    23    24    2
