@<TRIPOS>MOLECULE
1bz1_HEM_A_1.pdb
 43 50 0 0 0
SMALL
GASTEIGER

@<TRIPOS>ATOM
      1 FE         18.3640   18.4240   23.7040 Fe    143  HEM143      0.0000
      2  CHA       18.7290   18.6450   20.2550 C.2   143  HEM143      0.0000
      3  CHB       21.0070   20.6180   24.0600 C.2   143  HEM143      0.0000
      4  CHC       18.5700   17.7040   27.0860 C.2   143  HEM143      0.0000
      5  CHD       16.6360   15.4170   23.2800 C.2   143  HEM143      0.0000
      6  NA        19.6100   19.4320   22.4100 N.2   143  HEM143      0.0000
      7  C1A       19.5760   19.3990   21.0280 C.2   143  HEM143      0.0000
      8  C2A       20.6150   20.2880   20.5180 C.2   143  HEM143      0.0000
      9  C3A       21.2680   20.8240   21.5390 C.2   143  HEM143      0.0000
     10  C4A       20.6410   20.3060   22.7510 C.2   143  HEM143      0.0000
     11  CMA       22.4210   21.8350   21.5390 C.3   143  HEM143      0.0000
     12  CAA       20.8590   20.5120   18.9990 C.3   143  HEM143      0.0000
     13  CBA       20.1490   21.7440   18.4330 C.3   143  HEM143      0.0000
     14  CGA       20.2380   21.9480   16.9260 C.2   143  HEM143      0.0000
     15  O1A       19.6340   22.9430   16.4320 O.co2 143  HEM143      0.0000
     16  O2A       20.8810   21.1080   16.2480 O.co2 143  HEM143      0.0000
     17  NB        19.6060   18.9960   25.2520 N.ar  143  HEM143      0.0000
     18  C1B       20.5430   20.0020   25.2240 C.ar  143  HEM143      0.0000
     19  C2B       21.0040   20.3030   26.5700 C.ar  143  HEM143      0.0000
     20  C3B       20.3160   19.4980   27.3850 C.ar  143  HEM143      0.0000
     21  C4B       19.4500   18.6550   26.5800 C.ar  143  HEM143      0.0000
     22  CMB       22.0630   21.3980   26.8480 C.3   143  HEM143      0.0000
     23  CAB       20.3200   19.3630   28.9320 C.2   143  HEM143      0.0000
     24  CBB       21.4330   19.5320   29.6390 C.2   143  HEM143      0.0000
     25  NC        17.7120   16.8900   24.9230 N.2   143  HEM143      0.0000
     26  C1C       17.8650   16.7910   26.3180 C.2   143  HEM143      0.0000
     27  C2C       17.2200   15.5970   26.7900 C.2   143  HEM143      0.0000
     28  C3C       16.7140   14.9480   25.7200 C.2   143  HEM143      0.0000
     29  C4C       17.0240   15.7530   24.5520 C.2   143  HEM143      0.0000
     30  CMC       17.1690   15.1350   28.2730 C.3   143  HEM143      0.0000
     31  CAC       15.9080   13.6330   25.6510 C.2   143  HEM143      0.0000
     32  CBC       16.1260   12.6660   26.5360 C.2   143  HEM143      0.0000
     33  ND        17.8490   17.2480   22.1340 N.ar  143  HEM143      0.0000
     34  C1D       17.0500   16.1240   22.1750 C.ar  143  HEM143      0.0000
     35  C2D       16.7470   15.6960   20.8000 C.ar  143  HEM143      0.0000
     36  C3D       17.3140   16.6000   20.0030 C.ar  143  HEM143      0.0000
     37  C4D       18.0280   17.5750   20.7710 C.ar  143  HEM143      0.0000
     38  CMD       15.9020   14.4590   20.4290 C.3   143  HEM143      0.0000
     39  CAD       17.2960   16.5630   18.4520 C.3   143  HEM143      0.0000
     40  CBD       18.2950   15.4920   17.9560 C.3   143  HEM143      0.0000
     41  CGD       18.5260   15.5730   16.4390 C.2   143  HEM143      0.0000
     42  O1D       19.6720   15.9720   16.1270 O.co2 143  HEM143      0.0000
     43  O2D       17.5190   15.2510   15.7790 O.co2 143  HEM143      0.0000
@<TRIPOS>BOND
     1    43    41   ar
     2    42    41   ar
     3    16    14   ar
     4    15    14   ar
     5    41    40    1
     6    14    13    1
     7    40    39    1
     8    13    12    1
     9    39    36    1
    10    12     8    1
    11    36    37   ar
    12    36    35   ar
    13     2    37    2
    14     2     7    1
    15    38    35    1
    16     8     7    1
    17     8     9    2
    18    37    33   ar
    19    35    34   ar
    20     7     6    2
    21     9    11    1
    22     9    10    1
    23    33    34   ar
    24    33     1    1
    25    34     5    2
    26     6    10    1
    27     6     1    1
    28    10     3    2
    29     5    29    1
    30     1    25    1
    31     1    17    1
    32     3    18    1
    33    29    25    2
    34    29    28    1
    35    25    26    1
    36    18    17   ar
    37    18    19   ar
    38    17    21   ar
    39    31    28    1
    40    31    32    2
    41    28    27    2
    42    26    27    1
    43    26     4    2
    44    19    22    1
    45    19    20   ar
    46    21     4    1
    47    21    20   ar
    48    27    30    1
    49    20    23    1
    50    23    24    2
