@<TRIPOS>MOLECULE
1bz6_HEM_A_1.pdb
 43 50 0 0 0
SMALL
GASTEIGER

@<TRIPOS>ATOM
      1 FE         -0.5590    9.3770   15.5140 Fe    154  HEM154      0.0000
      2  CHA       -0.5020   12.4640   16.9410 C.2   154  HEM154      0.0000
      3  CHB       -3.9660    9.3200   15.7930 C.2   154  HEM154      0.0000
      4  CHC       -0.6400    6.1810   14.2950 C.2   154  HEM154      0.0000
      5  CHD        2.8320    9.3070   15.4660 C.2   154  HEM154      0.0000
      6  NA        -1.9610   10.6430   16.2280 N.2   154  HEM154      0.0000
      7  C1A       -1.7320   11.9210   16.7270 C.2   154  HEM154      0.0000
      8  C2A       -3.0110   12.5450   16.9980 C.2   154  HEM154      0.0000
      9  C3A       -3.9910   11.6620   16.7010 C.2   154  HEM154      0.0000
     10  C4A       -3.3290   10.4690   16.2190 C.2   154  HEM154      0.0000
     11  CMA       -5.4870   11.8430   16.8140 C.3   154  HEM154      0.0000
     12  CAA       -3.2210   13.9880   17.4950 C.3   154  HEM154      0.0000
     13  CBA       -3.6910   14.9260   16.3420 C.3   154  HEM154      0.0000
     14  CGA       -2.7210   14.9420   15.1790 C.2   154  HEM154      0.0000
     15  O1A       -3.1530   14.4710   14.0500 O.co2 154  HEM154      0.0000
     16  O2A       -1.5830   15.3530   15.3690 O.co2 154  HEM154      0.0000
     17  NB        -2.0160    8.0030   15.1170 N.ar  154  HEM154      0.0000
     18  C1B       -3.3770    8.1820   15.2710 C.ar  154  HEM154      0.0000
     19  C2B       -4.0920    7.0260   14.8030 C.ar  154  HEM154      0.0000
     20  C3B       -3.1540    6.1230   14.3780 C.ar  154  HEM154      0.0000
     21  C4B       -1.8500    6.7480   14.5830 C.ar  154  HEM154      0.0000
     22  CMB       -5.6030    6.8570   14.7780 C.3   154  HEM154      0.0000
     23  CAB       -3.3580    4.7380   13.8620 C.2   154  HEM154      0.0000
     24  CBB       -4.2430    3.8720   14.2530 C.2   154  HEM154      0.0000
     25  NC         0.8400    8.0280   14.8960 N.2   154  HEM154      0.0000
     26  C1C        0.6160    6.7350   14.4760 C.2   154  HEM154      0.0000
     27  C2C        1.8730    6.0430   14.3120 C.2   154  HEM154      0.0000
     28  C3C        2.8450    6.9120   14.6840 C.2   154  HEM154      0.0000
     29  C4C        2.1890    8.1700   15.0330 C.2   154  HEM154      0.0000
     30  CMC        1.9830    4.5950   13.8740 C.3   154  HEM154      0.0000
     31  CAC        4.3260    6.7020   14.8390 C.2   154  HEM154      0.0000
     32  CBC        4.9990    5.6170   14.6260 C.2   154  HEM154      0.0000
     33  ND         0.8910   10.6620   16.0390 N.ar  154  HEM154      0.0000
     34  C1D        2.2480   10.4730   15.9180 C.ar  154  HEM154      0.0000
     35  C2D        2.9620   11.6070   16.4850 C.ar  154  HEM154      0.0000
     36  C3D        2.0180   12.4650   16.9290 C.ar  154  HEM154      0.0000
     37  C4D        0.7290   11.8920   16.6440 C.ar  154  HEM154      0.0000
     38  CMD        4.4650   11.7110   16.5630 C.3   154  HEM154      0.0000
     39  CAD        2.2510   13.7440   17.7590 C.3   154  HEM154      0.0000
     40  CBD        2.4000   13.4450   19.2560 C.3   154  HEM154      0.0000
     41  CGD        2.7430   14.5820   20.1450 C.2   154  HEM154      0.0000
     42  O1D        3.9440   14.9130   20.2370 O.co2 154  HEM154      0.0000
     43  O2D        1.8070   15.1510   20.7560 O.co2 154  HEM154      0.0000
@<TRIPOS>BOND
     1    23    24    2
     2    23    20    1
     3    30    27    1
     4    15    14   ar
     5     4    26    2
     6     4    21    1
     7    27    26    1
     8    27    28    2
     9    20    21   ar
    10    20    19   ar
    11    26    25    1
    12    21    17   ar
    13    32    31    2
    14    28    31    1
    15    28    29    1
    16    22    19    1
    17    19    18   ar
    18    25    29    2
    19    25     1    1
    20    29     5    1
    21    17    18   ar
    22    17     1    1
    23    14    16   ar
    24    14    13    1
    25    18     3    1
    26     5    34    2
    27     1    33    1
    28     1     6    1
    29     3    10    2
    30    34    33   ar
    31    34    35   ar
    32    33    37   ar
    33    10     6    1
    34    10     9    1
    35     6     7    2
    36    13    12    1
    37    35    38    1
    38    35    36   ar
    39    37    36   ar
    40    37     2    2
    41     9    11    1
    42     9     8    2
    43     7     2    1
    44     7     8    1
    45    36    39    1
    46     8    12    1
    47    39    40    1
    48    40    41    1
    49    41    42   ar
    50    41    43   ar
