@<TRIPOS>MOLECULE
1bzb_NAG_A_1.pdb
 26 26 0 0 0
SMALL
GASTEIGER

@<TRIPOS>ATOM
      1  C1        -8.8430    1.3690    0.1240 C.3    33  NAG33       0.1077
      2  C2        -9.9960    0.6610    0.8430 C.3    33  NAG33       0.0779
      3  C3       -10.8800   -0.0690   -0.1660 C.3    33  NAG33       0.0817
      4  C4       -11.3470    0.8960   -1.2580 C.3    33  NAG33       0.0229
      5  C5       -10.1320    1.5750   -1.9040 C.3    33  NAG33       0.0878
      6  C6       -10.5050    2.5960   -2.9800 C.3    33  NAG33       0.0708
      7  C7        -9.3010    0.0340    3.1250 C.2    33  NAG33       0.2103
      8  C8        -8.8580   -1.0990    4.0460 C.3    33  NAG33       0.0122
      9  N2        -9.5030   -0.2810    1.8380 N.am   33  NAG33      -0.3076
     10  O3       -11.9940   -0.6390    0.4880 O.3    33  NAG33      -0.3895
     11  O5        -9.3700    2.2350   -0.8870 O.3    33  NAG33      -0.3662
     12  O6       -10.9300    1.9460   -4.1550 O.3    33  NAG33      -0.3924
     13  O7        -9.4560    1.1690    3.5740 O.2    33  NAG33      -0.2761
     14  H1        -8.2040    0.6240   -0.3690 H      33  NAG33       0.0642
     15  H2       -10.6030    1.4300    1.3340 H      33  NAG33       0.0550
     16  H3       -10.2870   -0.8640   -0.6390 H      33  NAG33       0.0616
     17  H4       -11.9580    1.6780   -0.7840 H      33  NAG33       0.0356
     18  H5        -9.4830    0.8090   -2.3530 H      33  NAG33       0.0623
     19  H61       -9.6260    3.1960   -3.2150 H      33  NAG33       0.0583
     20  H62      -11.2960    3.2460   -2.6030 H      33  NAG33       0.0583
     21  H81       -7.8370   -1.3950    3.8060 H      33  NAG33       0.0322
     22  H82       -8.8980   -0.7690    5.0840 H      33  NAG33       0.0322
     23  H83       -9.5210   -1.9560    3.9200 H      33  NAG33       0.0322
     24  HN2       -9.3370   -1.2310    1.5380 H      33  NAG33       0.1491
     25  HO3      -12.5600   -1.0800   -0.1670 H      33  NAG33       0.2099
     26  HO6      -11.1830    2.6120   -4.7990 H      33  NAG33       0.2095
@<TRIPOS>BOND
     1    26    12    1
     2    12     6    1
     3    19     6    1
     4     6    20    1
     5     6     5    1
     6    18     5    1
     7     5     4    1
     8     5    11    1
     9     4    17    1
    10     4     3    1
    11    11     1    1
    12    16     3    1
    13    14     1    1
    14    25    10    1
    15     3    10    1
    16     3     2    1
    17     1     2    1
    18     2    15    1
    19     2     9    1
    20    24     9    1
    21     9     7   am
    22     7    13    2
    23     7     8    1
    24    21     8    1
    25    23     8    1
    26     8    22    1
