@<TRIPOS>MOLECULE
1bzc_TPI_A_1.pdb
 29 30 0 0 0
SMALL
GASTEIGER

@<TRIPOS>ATOM
      1  P        -20.5280   58.4430   12.0690 P.3   902  TPI902      0.1831
      2  O1       -20.4410   56.9790   11.4600 O.3   902  TPI902     -0.3533
      3  O2       -21.3340   59.3230   11.1980 O.2   902  TPI902     -0.4543
      4  O3       -19.0690   59.0410   12.2460 O.3   902  TPI902     -0.3533
      5  C1       -21.3330   58.3720   13.6690 C.3   902  TPI902      0.3249
      6  F1       -21.4420   59.6270   14.1640 F     902  TPI902     -0.1920
      7  F2       -22.5530   57.8710   13.4660 F     902  TPI902     -0.1920
      8  C2       -20.8740   56.1310   14.8470 C.ar  902  TPI902      0.0014
      9  C3       -20.6170   57.5140   14.7150 C.ar  902  TPI902      0.0444
     10  C4       -19.7250   58.1450   15.6010 C.ar  902  TPI902      0.0014
     11  C5       -19.1000   57.4250   16.6180 C.ar  902  TPI902     -0.0001
     12  C6       -18.7540   55.3570   17.8170 C.ar  902  TPI902      0.0046
     13  C7       -18.9980   53.9910   18.0000 C.ar  902  TPI902      0.0551
     14  C8       -19.8620   53.3130   17.1080 C.ar  902  TPI902      0.0046
     15  C9       -20.4890   54.0160   16.0500 C.ar  902  TPI902      0.0001
     16  C10      -20.2440   55.3950   15.8790 C.ar  902  TPI902     -0.0001
     17  C11      -19.3650   56.0590   16.7660 C.ar  902  TPI902      0.0001
     18  C12      -18.3240   53.2680   19.1560 C.2   902  TPI902      0.2652
     19  O4       -17.6080   53.9250   19.9000 O.2   902  TPI902     -0.2684
     20  N1       -18.5390   51.8320   19.3520 N.am  902  TPI902     -0.1939
     21  C13      -17.8240   51.2530   20.5000 C.3   902  TPI902      0.1752
     22  C14      -16.3230   51.4180   20.5180 C.2   902  TPI902      0.2806
     23  N2       -15.7240   52.0710   21.6630 N.am  902  TPI902     -0.0863
     24  O5       -15.6210   50.9870   19.6170 O.2   902  TPI902     -0.2698
     25  C15      -18.1420   49.7480   20.6410 C.3   902  TPI902      0.0430
     26  C16      -19.6280   49.5050   20.9440 C.3   902  TPI902      0.1163
     27  C17      -19.8660   48.0310   21.0820 C.2   902  TPI902      0.3649
     28  O6       -21.1390   47.6770   21.2330 O.co2 902  TPI902     -0.2457
     29  O7       -18.9550   47.2040   21.0680 O.co2 902  TPI902     -0.2457
@<TRIPOS>BOND
     1     3     1    2
     2     2     1    1
     3     1     4    1
     4     1     5    1
     5     7     5    1
     6     5     6    1
     7     5     9    1
     8     9     8   ar
     9     9    10   ar
    10     8    16   ar
    11    10    11   ar
    12    16    15   ar
    13    16    17   ar
    14    15    14   ar
    15    11    17   ar
    16    17    12   ar
    17    14    13   ar
    18    12    13   ar
    19    13    18    1
    20    18    20   am
    21    18    19    2
    22    20    21    1
    23    24    22    2
    24    21    22    1
    25    21    25    1
    26    22    23   am
    27    25    26    1
    28    26    27    1
    29    29    27   ar
    30    27    28   ar
