@<TRIPOS>MOLECULE
1bzj_PIC_A_1.pdb
 20 21 0 0 0
SMALL
GASTEIGER

@<TRIPOS>ATOM
      1  C1        46.4480   15.8550    4.2270 C.3   301  PIC301      0.3249
      2  C2        45.8550   14.9180    3.2840 C.ar  301  PIC301      0.0444
      3  C3        44.7470   15.2970    2.4980 C.ar  301  PIC301      0.0014
      4  C7        44.6670   10.9800    0.3540 C.ar  301  PIC301      0.0798
      5  C8        45.7820   10.6110    1.1300 C.ar  301  PIC301      0.0066
      6  C9        46.3650   11.4670    2.0570 C.ar  301  PIC301      0.0002
      7  C10       45.8450   12.7410    2.2120 C.ar  301  PIC301     -0.0001
      8  C11       46.4100   13.6320    3.1300 C.ar  301  PIC301      0.0014
      9  C12       44.0620   10.0090   -0.6600 C.2   301  PIC301      0.3878
     10  C4        44.1660   14.4320    1.5820 C.ar  301  PIC301     -0.0001
     11  C5        44.7070   13.1440    1.4220 C.ar  301  PIC301      0.0002
     12  C6        44.1320   12.2430    0.5070 C.ar  301  PIC301      0.0066
     13  O1        43.0550   10.3370   -1.3530 O.co2 301  PIC301     -0.2406
     14  O2        44.5790    8.8700   -0.7610 O.co2 301  PIC301     -0.2406
     15  F1        46.5800   17.0870    3.6580 F     301  PIC301     -0.1920
     16  F2        47.6970   15.4340    4.5350 F     301  PIC301     -0.1920
     17  P         45.4230   16.0660    5.7000 P.3   301  PIC301      0.1831
     18  OP1       46.0640   17.0350    6.6250 O.3   301  PIC301     -0.3533
     19  OP2       45.3680   14.8540    6.5690 O.3   301  PIC301     -0.3533
     20  OP3       43.8470   16.5390    5.4750 O.2   301  PIC301     -0.4543
@<TRIPOS>BOND
     1    13     9   ar
     2    14     9   ar
     3     9     4    1
     4     4    12   ar
     5     4     5   ar
     6    12    11   ar
     7     5     6   ar
     8    11    10   ar
     9    11     7   ar
    10    10     3   ar
    11     6     7   ar
    12     7     8   ar
    13     3     2   ar
    14     8     2   ar
    15     2     1    1
    16    15     1    1
    17     1    16    1
    18     1    17    1
    19    20    17    2
    20    17    19    1
    21    17    18    1
