@<TRIPOS>MOLECULE
1bzl_GCG_A_1.pdb
 48 48 0 0 0
SMALL
GASTEIGER

@<TRIPOS>ATOM
      1  C1        26.8630   14.1680   -4.0330 C.2   603  GCG603      0.3819
      2  CA1       27.5410   13.2940   -5.0980 C.3   603  GCG603      0.1948
      3  O11       27.4180   15.2240   -3.6870 O.co2 603  GCG603     -0.2441
      4  O21       25.7810   13.8110   -3.5700 O.co2 603  GCG603     -0.2441
      5  CB1       28.2070   12.0430   -4.4600 C.3   603  GCG603      0.0402
      6  N1        28.5800   14.1670   -5.7130 N.3   603  GCG603     -0.1208
      7  CG1       27.2490   10.8760   -4.1440 C.3   603  GCG603      0.0889
      8  CD1       26.4640   10.4510   -5.3540 C.2   603  GCG603      0.2424
      9  OD1       27.0380   10.1080   -6.3870 O.2   603  GCG603     -0.2733
     10  N2        25.1670   10.4630   -5.2320 N.am  603  GCG603     -0.1892
     11  CA2       24.2240   10.1150   -6.2860 C.3   603  GCG603      0.2116
     12  C2        23.1700   11.2160   -6.2610 C.1   603  GCG603      0.1477
     13  O2        22.7040   11.5780   -5.1770 O.2   603  GCG603     -0.2253
     14  CB2       23.5760    8.7480   -6.0050 C.3   603  GCG603      0.1073
     15  SG2       24.0330    7.3540   -7.1280 S.3   603  GCG603     -0.0790
     16  N3        22.8040   11.7370   -7.4400 N.2   603  GCG603     -0.1865
     17  CA3       21.8260   12.8110   -7.5260 C.3   603  GCG603      0.2577
     18  C3        20.5460   12.6270   -6.7310 C.1   603  GCG603      0.1524
     19  O3        20.0420   11.5090   -6.5870 O.2   603  GCG603     -0.2250
     20  N1S       20.0100   13.7480   -6.2230 N.2   603  GCG603     -0.2046
     21  C2S       18.7810   13.8020   -5.4330 C.3   603  GCG603      0.1377
     22  C3S       18.9760   14.0180   -3.9310 C.3   603  GCG603      0.0292
     23  C4S       18.9100   12.7070   -3.1660 C.3   603  GCG603      0.0284
     24  C5S       20.1160   11.7600   -3.2840 C.3   603  GCG603      0.1252
     25  C7S       18.5890    9.9160   -2.5250 C.2   603  GCG603      0.0688
     26  N6S       19.7400   10.3410   -3.3330 N.2   603  GCG603     -0.2735
     27  C8S       18.2850    8.4100   -2.5350 C.3   603  GCG603      0.0737
     28  C9S       19.2690    7.6430   -1.6620 C.3   603  GCG603      0.1439
     29  N11       20.1820    6.7060   -2.3140 N.2   603  GCG603     -0.2042
     30  C5        21.2270    7.0670   -3.0770 C.1   603  GCG603      0.1524
     31  N5        23.3800    6.4660   -3.9620 N.2   603  GCG603     -0.1865
     32  CA5       22.0690    5.9430   -3.6450 C.3   603  GCG603      0.2577
     33  O5        21.5060    8.2460   -3.3290 O.2   603  GCG603     -0.2250
     34  C6        24.4840    5.7260   -3.8750 C.1   603  GCG603      0.1477
     35  N6        26.7130    6.5340   -3.1490 N.am  603  GCG603     -0.1892
     36  CA6       25.7620    6.4540   -4.2590 C.3   603  GCG603      0.2116
     37  O6        24.4980    4.5550   -3.4840 O.2   603  GCG603     -0.2253
     38  CB6       26.3590    5.8090   -5.5010 C.3   603  GCG603      0.1073
     39  SG6       25.9590    6.7160   -7.0640 S.3   603  GCG603     -0.0790
     40  CD7       28.0030    6.9450   -3.1600 C.2   603  GCG603      0.2424
     41  C7        31.4700    4.3090   -1.3180 C.2   603  GCG603      0.3819
     42  CA7       30.0880    4.9530   -1.2410 C.3   603  GCG603      0.1948
     43  O17       32.0810    4.1340   -0.2510 O.co2 603  GCG603     -0.2441
     44  O27       31.9160    3.9550   -2.4110 O.co2 603  GCG603     -0.2441
     45  CB7       30.0890    6.3140   -1.8730 C.3   603  GCG603      0.0402
     46  N7        29.6910    5.0720    0.1860 N.3   603  GCG603     -0.1208
     47  CG7       28.7220    6.9700   -1.8280 C.3   603  GCG603      0.0889
     48  OD7       28.6040    7.2440   -4.1900 O.2   603  GCG603     -0.2733
@<TRIPOS>BOND
     1    17    16    1
     2    17    18    1
     3    16    12    2
     4    15    39    1
     5    15    14    1
     6    39    38    1
     7    18    19    2
     8    18    20    2
     9     9     8    2
    10    11    12    1
    11    11    14    1
    12    11    10    1
    13    12    13    2
    14    20    21    1
    15     6     2    1
    16    38    36    1
    17    21    22    1
    18     8    10   am
    19     8     7    1
    20     2     5    1
    21     2     1    1
    22     5     7    1
    23    36    34    1
    24    36    35    1
    25    48    40    2
    26     1     3   ar
    27     1     4   ar
    28    31    34    2
    29    31    32    1
    30    22    23    1
    31    34    37    2
    32    32    30    1
    33    26    24    1
    34    26    25    2
    35    33    30    2
    36    24    23    1
    37    40    35   am
    38    40    47    1
    39    30    29    2
    40    27    25    1
    41    27    28    1
    42    44    41   ar
    43    29    28    1
    44    45    47    1
    45    45    42    1
    46    41    42    1
    47    41    43   ar
    48    42    46    1
