@<TRIPOS>MOLECULE
1bzm_MZM_A_1.pdb
 14 14 0 0 0
SMALL
GASTEIGER

@<TRIPOS>ATOM
      1  N1        36.3600   17.8050  -15.7860 N.3   262  MZM262      0.0413
      2  S1        34.9080   17.3530  -16.1370 S.O2  262  MZM262      0.1177
      3  O1        34.6790   16.0280  -15.6410 O.2   262  MZM262     -0.1483
      4  O2        34.0480   18.4260  -15.8230 O.2   262  MZM262     -0.1483
      5  C1        34.8760   17.1320  -17.9080 C.ar  262  MZM262      0.2570
      6  S2        34.2110   15.7370  -18.6070 S.2   262  MZM262     -0.0108
      7  C2        34.3950   16.5430  -20.0990 C.ar  262  MZM262      0.1856
      8  N2        34.9250   17.7320  -20.0140 N.ar  262  MZM262     -0.2269
      9  C5        35.2870   18.6210  -21.1220 C.3   262  MZM262      0.1558
     10  N3        35.1730   18.1010  -18.7010 N.ar  262  MZM262     -0.1404
     11  N4        33.5060   16.0660  -21.0220 N.am  262  MZM262     -0.1545
     12  C3        32.7970   15.0930  -21.1080 C.2   262  MZM262      0.2478
     13  O3        32.7640   14.2200  -20.2590 O.2   262  MZM262     -0.2729
     14  C4        31.9350   14.8680  -22.2870 C.3   262  MZM262      0.0969
@<TRIPOS>BOND
     1    14    12    1
     2     9     8    1
     3    12    11    1
     4    12    13    2
     5    11     7    2
     6     7     8   ar
     7     7     6   ar
     8     8    10   ar
     9    10     5   ar
    10     6     5   ar
    11     5     2    1
    12     2     4    2
    13     2     1    1
    14     2     3    2
