@<TRIPOS>MOLECULE
1bzp_HEM_A_1.pdb
 43 50 0 0 0
SMALL
GASTEIGER

@<TRIPOS>ATOM
      1 FE         -0.7570    9.4300   15.2930 Fe    154  HEM154      0.0000
      2  CHA       -0.7040   12.4480   16.9290 C.2   154  HEM154      0.0000
      3  CHB       -4.1390    9.3460   15.6590 C.2   154  HEM154      0.0000
      4  CHC       -0.7720    6.1210   14.3170 C.2   154  HEM154      0.0000
      5  CHD        2.6880    9.2740   15.5570 C.2   154  HEM154      0.0000
      6  NA        -2.1530   10.6650   16.1430 N.2   154  HEM154      0.0000
      7  C1A       -1.9530   11.9400   16.6790 C.2   154  HEM154      0.0000
      8  C2A       -3.2410   12.5640   16.9430 C.2   154  HEM154      0.0000
      9  C3A       -4.1990   11.6900   16.5970 C.2   154  HEM154      0.0000
     10  C4A       -3.5300   10.5010   16.0970 C.2   154  HEM154      0.0000
     11  CMA       -5.7380   11.8290   16.6570 C.3   154  HEM154      0.0000
     12  CAA       -3.3970   14.0350   17.3900 C.3   154  HEM154      0.0000
     13  CBA       -3.8800   14.9720   16.2190 C.3   154  HEM154      0.0000
     14  CGA       -2.9080   15.0390   15.0780 C.2   154  HEM154      0.0000
     15  O1A       -3.3190   14.6550   13.9220 O.co2 154  HEM154      0.0000
     16  O2A       -1.7570   15.4310   15.3290 O.co2 154  HEM154      0.0000
     17  NB        -2.1920    7.9830   15.0680 N.ar  154  HEM154      0.0000
     18  C1B       -3.5390    8.1860   15.1860 C.ar  154  HEM154      0.0000
     19  C2B       -4.2540    6.9980   14.7290 C.ar  154  HEM154      0.0000
     20  C3B       -3.3130    6.0930   14.3680 C.ar  154  HEM154      0.0000
     21  C4B       -2.0050    6.7080   14.5890 C.ar  154  HEM154      0.0000
     22  CMB       -5.7940    6.8630   14.6510 C.3   154  HEM154      0.0000
     23  CAB       -3.4830    4.6720   13.8840 C.2   154  HEM154      0.0000
     24  CBB       -4.3200    3.7680   14.2540 C.2   154  HEM154      0.0000
     25  NC         0.6840    7.9990   14.9490 N.2   154  HEM154      0.0000
     26  C1C        0.4750    6.7020   14.5410 C.2   154  HEM154      0.0000
     27  C2C        1.7630    5.9870   14.4360 C.2   154  HEM154      0.0000
     28  C3C        2.7270    6.8710   14.7800 C.2   154  HEM154      0.0000
     29  C4C        2.0550    8.1180   15.1320 C.2   154  HEM154      0.0000
     30  CMC        1.8940    4.5250   13.9780 C.3   154  HEM154      0.0000
     31  CAC        4.2240    6.6710   14.9880 C.2   154  HEM154      0.0000
     32  CBC        4.8850    5.5620   14.8270 C.2   154  HEM154      0.0000
     33  ND         0.7170   10.6430   16.0880 N.ar  154  HEM154      0.0000
     34  C1D        2.0990   10.4260   16.0290 C.ar  154  HEM154      0.0000
     35  C2D        2.7800   11.6190   16.5190 C.ar  154  HEM154      0.0000
     36  C3D        1.8200   12.4560   16.9400 C.ar  154  HEM154      0.0000
     37  C4D        0.5320   11.8650   16.6770 C.ar  154  HEM154      0.0000
     38  CMD        4.3020   11.7390   16.6380 C.3   154  HEM154      0.0000
     39  CAD        2.0210   13.7670   17.7520 C.3   154  HEM154      0.0000
     40  CBD        2.0060   13.5280   19.2910 C.3   154  HEM154      0.0000
     41  CGD        2.4020   14.7280   20.0980 C.2   154  HEM154      0.0000
     42  O1D        3.6290   15.0250   20.1310 O.co2 154  HEM154      0.0000
     43  O2D        1.4870   15.3720   20.6820 O.co2 154  HEM154      0.0000
@<TRIPOS>BOND
     1    23    24    2
     2    23    20    1
     3    15    14   ar
     4    30    27    1
     5     4    26    2
     6     4    21    1
     7    20    21   ar
     8    20    19   ar
     9    27    26    1
    10    27    28    2
    11    26    25    1
    12    21    17   ar
    13    22    19    1
    14    19    18   ar
    15    28    31    1
    16    28    29    1
    17    32    31    2
    18    25    29    2
    19    25     1    1
    20    17    18   ar
    21    17     1    1
    22    14    16   ar
    23    14    13    1
    24    29     5    1
    25    18     3    1
    26     1    33    1
    27     1     6    1
    28     5    34    2
    29     3    10    2
    30    34    33   ar
    31    34    35   ar
    32    33    37   ar
    33    10     6    1
    34    10     9    1
    35     6     7    2
    36    13    12    1
    37    35    38    1
    38    35    36   ar
    39     9    11    1
    40     9     8    2
    41    37     2    2
    42    37    36   ar
    43     7     2    1
    44     7     8    1
    45    36    39    1
    46     8    12    1
    47    39    40    1
    48    40    41    1
    49    41    42   ar
    50    41    43   ar
