@<TRIPOS>MOLECULE
1bzr_HEM_A_1.pdb
 43 50 0 0 0
SMALL
GASTEIGER

@<TRIPOS>ATOM
      1 FE         -0.5540    9.2650   15.5680 Fe    154  HEM154      0.0000
      2  CHA       -0.4740   12.3740   17.0350 C.2   154  HEM154      0.0000
      3  CHB       -3.9560    9.2640   15.7780 C.2   154  HEM154      0.0000
      4  CHC       -0.6200    6.1460   14.2030 C.2   154  HEM154      0.0000
      5  CHD        2.8460    9.2830   15.4190 C.2   154  HEM154      0.0000
      6  NA        -1.9320   10.5450   16.2580 N.2   154  HEM154      0.0000
      7  C1A       -1.7070   11.8190   16.8020 C.2   154  HEM154      0.0000
      8  C2A       -2.9830   12.4280   17.1070 C.2   154  HEM154      0.0000
      9  C3A       -3.9460   11.5580   16.7880 C.2   154  HEM154      0.0000
     10  C4A       -3.2870   10.3740   16.2530 C.2   154  HEM154      0.0000
     11  CMA       -5.4690   11.7120   16.9080 C.3   154  HEM154      0.0000
     12  CAA       -3.1590   13.8830   17.6220 C.3   154  HEM154      0.0000
     13  CBA       -3.6220   14.8680   16.4900 C.3   154  HEM154      0.0000
     14  CGA       -2.6770   14.8950   15.3070 C.2   154  HEM154      0.0000
     15  O1A       -3.0690   14.5110   14.1550 O.co2 154  HEM154      0.0000
     16  O2A       -1.5380   15.3200   15.5530 O.co2 154  HEM154      0.0000
     17  NB        -1.9810    7.9730   15.0650 N.ar  154  HEM154      0.0000
     18  C1B       -3.3460    8.1510   15.2240 C.ar  154  HEM154      0.0000
     19  C2B       -4.0420    6.9680   14.7820 C.ar  154  HEM154      0.0000
     20  C3B       -3.1330    6.1010   14.3030 C.ar  154  HEM154      0.0000
     21  C4B       -1.8380    6.7410   14.4930 C.ar  154  HEM154      0.0000
     22  CMB       -5.5810    6.8210   14.7760 C.3   154  HEM154      0.0000
     23  CAB       -3.3010    4.6770   13.8000 C.2   154  HEM154      0.0000
     24  CBB       -4.1790    3.8010   14.1930 C.2   154  HEM154      0.0000
     25  NC         0.8320    8.0070   14.8680 N.2   154  HEM154      0.0000
     26  C1C        0.6130    6.7150   14.3720 C.2   154  HEM154      0.0000
     27  C2C        1.8800    6.0300   14.2160 C.2   154  HEM154      0.0000
     28  C3C        2.8390    6.9030   14.5860 C.2   154  HEM154      0.0000
     29  C4C        2.1690    8.1350   14.9840 C.2   154  HEM154      0.0000
     30  CMC        2.0010    4.5740   13.7430 C.3   154  HEM154      0.0000
     31  CAC        4.3240    6.6830   14.7630 C.2   154  HEM154      0.0000
     32  CBC        4.9990    5.6130   14.5940 C.2   154  HEM154      0.0000
     33  ND         0.9000   10.6000   16.0380 N.ar  154  HEM154      0.0000
     34  C1D        2.2490   10.4070   15.9070 C.ar  154  HEM154      0.0000
     35  C2D        2.9610   11.5580   16.4530 C.ar  154  HEM154      0.0000
     36  C3D        2.0380   12.3950   16.9430 C.ar  154  HEM154      0.0000
     37  C4D        0.7270   11.8220   16.6840 C.ar  154  HEM154      0.0000
     38  CMD        4.4850   11.6640   16.5270 C.3   154  HEM154      0.0000
     39  CAD        2.2260   13.6560   17.7960 C.3   154  HEM154      0.0000
     40  CBD        2.3530   13.3820   19.3180 C.3   154  HEM154      0.0000
     41  CGD        2.6660   14.5460   20.1860 C.2   154  HEM154      0.0000
     42  O1D        3.8190   15.0240   20.1340 O.co2 154  HEM154      0.0000
     43  O2D        1.7330   14.9940   20.9200 O.co2 154  HEM154      0.0000
@<TRIPOS>BOND
     1    30    27    1
     2    23    24    2
     3    23    20    1
     4    15    14   ar
     5     4    26    2
     6     4    21    1
     7    27    26    1
     8    27    28    2
     9    20    21   ar
    10    20    19   ar
    11    26    25    1
    12    21    17   ar
    13    28    31    1
    14    28    29    1
    15    32    31    2
    16    22    19    1
    17    19    18   ar
    18    25    29    2
    19    25     1    1
    20    29     5    1
    21    17    18   ar
    22    17     1    1
    23    18     3    1
    24    14    16   ar
    25    14    13    1
    26     5    34    2
    27     1    33    1
    28     1     6    1
    29     3    10    2
    30    34    33   ar
    31    34    35   ar
    32    33    37   ar
    33    10     6    1
    34    10     9    1
    35     6     7    2
    36    35    38    1
    37    35    36   ar
    38    13    12    1
    39    37    36   ar
    40    37     2    2
    41     9    11    1
    42     9     8    2
    43     7     2    1
    44     7     8    1
    45    36    39    1
    46     8    12    1
    47    39    40    1
    48    40    41    1
    49    42    41   ar
    50    41    43   ar
