@<TRIPOS>MOLECULE
1bzs_BSI_A_1.pdb
 28 31 0 0 0
SMALL
GASTEIGER

@<TRIPOS>ATOM
      1  C1        30.3900   59.3230   55.7800 C.ar  250  BSI250     -0.0003
      2  C2        30.4040   59.0550   54.3880 C.ar  250  BSI250     -0.0032
      3  C3        29.4640   59.6780   53.5540 C.ar  250  BSI250     -0.0084
      4  C7        29.5570   59.4040   52.1020 C.3   250  BSI250      0.1224
      5  C9        27.1290   60.3290   52.0360 C.3   250  BSI250      0.1868
      6  C10       27.4340   61.2220   53.2390 C.3   250  BSI250      0.0553
      7  C16       27.6250   58.3170   49.3640 C.ar  250  BSI250      0.1222
      8  C19       26.4710   55.9070   48.3830 C.ar  250  BSI250      0.0001
      9  C20       27.7630   55.9340   49.0370 C.ar  250  BSI250      0.0014
     10  C21       28.3570   57.1120   49.5420 C.ar  250  BSI250      0.0199
     11  C22       26.0010   54.6670   47.7170 C.ar  250  BSI250      0.0000
     12  C24       24.7090   53.5400   45.9710 C.ar  250  BSI250      0.0000
     13  C27       26.4680   53.3980   48.1780 C.ar  250  BSI250      0.0000
     14  O28       29.8250   59.6520   49.3690 O.2   250  BSI250     -0.1528
     15  C4        28.4930   60.5630   54.0960 C.ar  250  BSI250     -0.0228
     16  C5        28.4960   60.8580   55.4930 C.ar  250  BSI250     -0.0045
     17  C6        29.4510   60.2230   56.3240 C.ar  250  BSI250     -0.0003
     18  N8        28.4190   59.9900   51.3650 N.3   250  BSI250     -0.1412
     19  S15       28.4470   59.8400   49.7700 S.O2  250  BSI250      0.0640
     20  C17       26.3100   58.3200   48.8060 C.ar  250  BSI250      0.0199
     21  C18       25.7260   57.1190   48.3240 C.ar  250  BSI250      0.0014
     22  C23       25.1270   54.7500   46.6090 C.ar  250  BSI250      0.0000
     23  C25       25.1650   52.2760   46.4320 C.ar  250  BSI250      0.0000
     24  C26       26.0530   52.2050   47.5400 C.ar  250  BSI250      0.0000
     25  O29       27.6780   60.9140   49.2150 O.2   250  BSI250     -0.1528
     26  C43       26.3880   59.0790   52.4950 C.2   250  BSI250      0.3809
     27  O45       25.1420   59.0600   52.5280 O.co2 250  BSI250     -0.2441
     28  O46       27.0290   58.0640   52.8840 O.co2 250  BSI250     -0.2441
@<TRIPOS>BOND
     1    12    23   ar
     2    12    22   ar
     3    23    24   ar
     4    22    11   ar
     5    24    13   ar
     6    11    13   ar
     7    11     8    1
     8    21     8   ar
     9    21    20   ar
    10     8     9   ar
    11    20     7   ar
    12     9    10   ar
    13    25    19    2
    14     7    10   ar
    15     7    19    1
    16    14    19    2
    17    19    18    1
    18    18     5    1
    19    18     4    1
    20     5    26    1
    21     5     6    1
    22     4     3    1
    23    26    27   ar
    24    26    28   ar
    25     6    15    1
    26     3    15   ar
    27     3     2   ar
    28    15    16   ar
    29     2     1   ar
    30    16    17   ar
    31     1    17   ar
