@<TRIPOS>MOLECULE
1bzw_GAL_A_1.pdb
 11 11 0 0 0
SMALL
GASTEIGER

@<TRIPOS>ATOM
      1  C1        54.9370   26.5360   64.1090 C.3   400  GAL400      0.1777
      2  C2        53.4860   26.3950   63.7250 C.3   400  GAL400      0.2141
      3  C3        53.0480   24.9530   63.7460 C.3   400  GAL400      0.2173
      4  C4        53.9840   24.1140   62.8470 C.3   400  GAL400      0.2142
      5  C5        55.4250   24.3010   63.3970 C.3   400  GAL400      0.1810
      6  C6        56.6190   23.5380   62.8570 C.3   400  GAL400      0.2141
      7  O2        52.7600   27.0960   64.6770 O.3   400  GAL400     -0.2176
      8  O3        51.7040   24.8880   63.2970 O.3   400  GAL400     -0.2175
      9  O4        53.8250   24.5290   61.5220 O.3   400  GAL400     -0.2176
     10  O5        55.7270   25.6840   63.2930 O.3   400  GAL400     -0.3481
     11  O6        57.7160   23.7750   63.7300 O.3   400  GAL400     -0.2176
@<TRIPOS>BOND
     1     9     4    1
     2     4     5    1
     3     4     3    1
     4     6     5    1
     5     6    11    1
     6    10     5    1
     7    10     1    1
     8     8     3    1
     9     2     3    1
    10     2     1    1
    11     2     7    1
