@<TRIPOS>MOLECULE
1bzw_BGC_C_1.pdb
 12 12 0 0 0
SMALL
GASTEIGER

@<TRIPOS>ATOM
      1  C2        56.4460  -16.2100   18.5180 C.3   405  BGC405      0.2434
      2  C3        55.2430  -15.7240   17.6980 C.3   405  BGC405      0.2199
      3  C4        55.6330  -14.3820   17.0940 C.3   405  BGC405      0.2144
      4  C5        56.9140  -14.4480   16.2170 C.3   405  BGC405      0.1836
      5  C6        57.4090  -13.0570   15.7150 C.3   405  BGC405      0.2142
      6  C1        57.6710  -16.3510   17.5540 C.3   405  BGC405      0.3024
      7  O1        58.7630  -16.8450   18.3190 O.3   405  BGC405     -0.1869
      8  O2        56.1020  -17.4000   19.2130 O.3   405  BGC405     -0.2148
      9  O3        54.1260  -15.6670   18.5600 O.3   405  BGC405     -0.2174
     10  O4        54.5080  -13.9230   16.2130 O.3   405  BGC405     -0.2176
     11  O5        57.9710  -15.0540   16.9870 O.3   405  BGC405     -0.3236
     12  O6        58.7120  -13.1580   15.2130 O.3   405  BGC405     -0.2176
@<TRIPOS>BOND
     1    12     5    1
     2     5     4    1
     3    10     3    1
     4     4    11    1
     5     4     3    1
     6    11     6    1
     7     3     2    1
     8     6     7    1
     9     6     1    1
    10     2     1    1
    11     2     9    1
    12     1     8    1
