@<TRIPOS>MOLECULE
1bzw_GLC_A_1.pdb
 12 12 0 0 0
SMALL
GASTEIGER

@<TRIPOS>ATOM
      1  C1        59.0340   29.7630   65.6550 C.3   401  GLC401      0.3024
      2  C2        59.0670   29.0280   64.2120 C.3   401  GLC401      0.2434
      3  C3        57.6890   28.6910   63.5370 C.3   401  GLC401      0.2199
      4  C4        56.7290   28.2340   64.5550 C.3   401  GLC401      0.2144
      5  C5        56.5110   29.3510   65.5840 C.3   401  GLC401      0.1836
      6  C6        55.7380   28.7830   66.8090 C.3   401  GLC401      0.2142
      7  O1        58.8440   30.9690   65.0810 O.3   401  GLC401     -0.1869
      8  O2        59.7300   29.7110   63.1100 O.3   401  GLC401     -0.2148
      9  O3        57.7770   27.6410   62.5650 O.3   401  GLC401     -0.2174
     10  O4        55.3880   27.9590   63.8910 O.3   401  GLC401     -0.2176
     11  O5        57.6820   29.8610   66.2380 O.3   401  GLC401     -0.3236
     12  O6        56.5350   27.7720   67.4320 O.3   401  GLC401     -0.2176
@<TRIPOS>BOND
     1     9     3    1
     2     8     2    1
     3     3     2    1
     4     3     4    1
     5    10     4    1
     6     2     1    1
     7     4     5    1
     8     7     1    1
     9     5    11    1
    10     5     6    1
    11     1    11    1
    12     6    12    1
