@<TRIPOS>MOLECULE
1bzy_IMU_A_1.pdb
 24 26 0 0 0
SMALL
GASTEIGER

@<TRIPOS>ATOM
      1  P         12.3300   82.9070   41.2670 P.3   300  IMU300      0.5326
      2  C2         4.9500   84.0600   46.5720 C.1   300  IMU300      0.2519
      3  O1P       13.4450   82.9870   42.2380 O.3   300  IMU300     -0.1145
      4  O2P       12.6420   83.4750   39.9510 O.2   300  IMU300     -0.2224
      5  O3P       11.8310   81.5140   41.1860 O.3   300  IMU300     -0.1145
      6  O5'       11.1220   83.6140   41.8860 O.3   300  IMU300     -0.2687
      7  C5'       11.1220   84.7260   42.7530 C.3   300  IMU300      0.1737
      8  C4'       10.0300   85.6060   42.2980 C.3   300  IMU300      0.1362
      9  N4'        8.8020   84.8890   42.2260 N.3   300  IMU300     -0.2084
     10  C3'        9.8970   86.7410   43.2480 C.3   300  IMU300      0.2022
     11  O3'        9.8970   87.9360   42.4840 O.3   300  IMU300     -0.2188
     12  C2'        8.5990   86.4460   43.9420 C.3   300  IMU300      0.2036
     13  O2'        7.7480   87.5890   43.9850 O.3   300  IMU300     -0.2185
     14  C1'        7.8720   85.2670   43.2330 C.3   300  IMU300      0.1320
     15  C9         7.7630   84.0950   44.2180 C.2   300  IMU300      0.0481
     16  C8         8.6610   83.0150   44.3300 C.2   300  IMU300      0.0996
     17  N7         8.3770   82.1430   45.2530 N.2   300  IMU300     -0.2292
     18  C5         7.2110   82.6350   45.8400 C.2   300  IMU300      0.2065
     19  C6         6.4410   82.0940   46.9260 C.1   300  IMU300      0.2362
     20  O6         6.6760   81.0690   47.5580 O.2   300  IMU300     -0.2069
     21  N1         5.3090   82.8660   47.2390 N.2   300  IMU300     -0.2486
     22  N2         3.8420   84.6860   46.9810 N.pl3 300  IMU300     -0.0226
     23  N3         5.6890   84.5850   45.5440 N.2   300  IMU300     -0.3232
     24  C4         6.8070   83.8290   45.2170 C.2   300  IMU300      0.1737
@<TRIPOS>BOND
     1     4     1    2
     2     5     1    1
     3     1     6    1
     4     1     3    1
     5     6     7    1
     6     9     8    1
     7     9    14    1
     8     8     7    1
     9     8    10    1
    10    11    10    1
    11    14    12    1
    12    14    15    1
    13    10    12    1
    14    12    13    1
    15    15    16    2
    16    15    24    1
    17    16    17    1
    18    24    23    2
    19    24    18    1
    20    17    18    2
    21    23     2    2
    22    18    19    1
    23     2    22    1
    24     2    21    2
    25    19    21    2
    26    19    20    2
