@<TRIPOS>MOLECULE
1bzz_HEM_A_1.pdb
 43 50 0 0 0
SMALL
GASTEIGER

@<TRIPOS>ATOM
      1 FE         18.3220   18.4300   23.7900 Fe    142  HEM142      0.0000
      2  CHA       18.6740   18.6340   20.3400 C.2   142  HEM142      0.0000
      3  CHB       20.9550   20.6590   24.1290 C.2   142  HEM142      0.0000
      4  CHC       18.5540   17.7420   27.2180 C.2   142  HEM142      0.0000
      5  CHD       16.6270   15.3990   23.3900 C.2   142  HEM142      0.0000
      6  NA        19.5520   19.4240   22.4780 N.2   142  HEM142      0.0000
      7  C1A       19.5110   19.3810   21.1090 C.2   142  HEM142      0.0000
      8  C2A       20.5670   20.2550   20.5910 C.2   142  HEM142      0.0000
      9  C3A       21.2170   20.8120   21.6170 C.2   142  HEM142      0.0000
     10  C4A       20.5780   20.3110   22.8230 C.2   142  HEM142      0.0000
     11  CMA       22.3940   21.8010   21.6210 C.3   142  HEM142      0.0000
     12  CAA       20.8290   20.4360   19.0890 C.3   142  HEM142      0.0000
     13  CBA       20.0810   21.6520   18.5110 C.3   142  HEM142      0.0000
     14  CGA       20.3960   21.7950   17.0200 C.2   142  HEM142      0.0000
     15  O1A       20.1090   22.8910   16.5060 O.co2 142  HEM142      0.0000
     16  O2A       20.9050   20.7990   16.4390 O.co2 142  HEM142      0.0000
     17  NB        19.5650   19.0370   25.3480 N.ar  142  HEM142      0.0000
     18  C1B       20.5080   20.0410   25.3060 C.ar  142  HEM142      0.0000
     19  C2B       20.9910   20.3310   26.6330 C.ar  142  HEM142      0.0000
     20  C3B       20.3150   19.5340   27.4710 C.ar  142  HEM142      0.0000
     21  C4B       19.4190   18.7020   26.6760 C.ar  142  HEM142      0.0000
     22  CMB       22.0600   21.4280   26.9290 C.3   142  HEM142      0.0000
     23  CAB       20.3440   19.4120   29.0130 C.2   142  HEM142      0.0000
     24  CBB       21.4420   19.7300   29.7210 C.2   142  HEM142      0.0000
     25  NC        17.7130   16.8920   25.0320 N.2   142  HEM142      0.0000
     26  C1C       17.8350   16.8310   26.4190 C.2   142  HEM142      0.0000
     27  C2C       17.1850   15.6380   26.9070 C.2   142  HEM142      0.0000
     28  C3C       16.7060   14.9620   25.8450 C.2   142  HEM142      0.0000
     29  C4C       17.0240   15.7670   24.6550 C.2   142  HEM142      0.0000
     30  CMC       17.1120   15.2110   28.3950 C.3   142  HEM142      0.0000
     31  CAC       15.8950   13.6530   25.7730 C.2   142  HEM142      0.0000
     32  CBC       16.1190   12.6400   26.6160 C.2   142  HEM142      0.0000
     33  ND        17.7660   17.2540   22.2350 N.ar  142  HEM142      0.0000
     34  C1D       17.0020   16.1040   22.2750 C.ar  142  HEM142      0.0000
     35  C2D       16.7110   15.6770   20.9260 C.ar  142  HEM142      0.0000
     36  C3D       17.2840   16.5830   20.0990 C.ar  142  HEM142      0.0000
     37  C4D       17.9780   17.5670   20.8820 C.ar  142  HEM142      0.0000
     38  CMD       15.9040   14.4380   20.4940 C.3   142  HEM142      0.0000
     39  CAD       17.2630   16.5660   18.5440 C.3   142  HEM142      0.0000
     40  CBD       18.2620   15.5390   18.0070 C.3   142  HEM142      0.0000
     41  CGD       18.5300   15.5800   16.4990 C.2   142  HEM142      0.0000
     42  O1D       19.6800   15.9580   16.1620 O.co2 142  HEM142      0.0000
     43  O2D       17.5620   15.2370   15.8040 O.co2 142  HEM142      0.0000
@<TRIPOS>BOND
     1    43    41   ar
     2    42    41   ar
     3    16    14   ar
     4    41    40    1
     5    15    14   ar
     6    14    13    1
     7    40    39    1
     8    13    12    1
     9    39    36    1
    10    12     8    1
    11    36    37   ar
    12    36    35   ar
    13     2    37    2
    14     2     7    1
    15    38    35    1
    16     8     7    1
    17     8     9    2
    18    37    33   ar
    19    35    34   ar
    20     7     6    2
    21     9    11    1
    22     9    10    1
    23    33    34   ar
    24    33     1    1
    25    34     5    2
    26     6    10    1
    27     6     1    1
    28    10     3    2
    29     5    29    1
    30     1    25    1
    31     1    17    1
    32     3    18    1
    33    29    25    2
    34    29    28    1
    35    25    26    1
    36    18    17   ar
    37    18    19   ar
    38    17    21   ar
    39    31    28    1
    40    31    32    2
    41    28    27    2
    42    26    27    1
    43    26     4    2
    44    19    22    1
    45    19    20   ar
    46    21     4    1
    47    21    20   ar
    48    27    30    1
    49    20    23    1
    50    23    24    2
