@<TRIPOS>MOLECULE
1c0a_AMP_A_1.pdb
 23 25 0 0 0
SMALL
GASTEIGER

@<TRIPOS>ATOM
      1  P         67.5000    2.4160  -22.7180 P.3   800  AMP800      0.5327
      2  O1P       67.5910    1.8140  -24.0820 O.2   800  AMP800     -0.2224
      3  O2P       66.1840    2.4720  -22.0210 O.3   800  AMP800     -0.1145
      4  O3P       68.5600    1.6940  -21.7700 O.3   800  AMP800     -0.1145
      5  O5'       68.0810    3.9000  -22.7650 O.3   800  AMP800     -0.2675
      6  C5'       69.4140    4.1630  -23.2360 C.3   800  AMP800      0.1860
      7  C4'       69.9460    5.4280  -22.6050 C.3   800  AMP800      0.1823
      8  O4'       69.1040    6.5400  -23.0120 O.3   800  AMP800     -0.3135
      9  C3'       69.9670    5.4550  -21.0800 C.3   800  AMP800      0.2184
     10  O3'       71.0010    6.3520  -20.6560 O.3   800  AMP800     -0.2174
     11  C2'       68.6240    6.0940  -20.7500 C.3   800  AMP800      0.2570
     12  O2'       68.5990    6.7090  -19.4750 O.3   800  AMP800     -0.2130
     13  C1'       68.4980    7.1200  -21.8750 C.3   800  AMP800      0.3186
     14  N9        67.1160    7.4350  -22.2230 N.pl3 800  AMP800     -0.1439
     15  C8        66.0460    6.5760  -22.3190 C.3   800  AMP800      0.3377
     16  N7        64.9260    7.1640  -22.6620 N.2   800  AMP800     -0.2095
     17  C5        65.2810    8.5020  -22.8020 C.2   800  AMP800      0.2526
     18  C6        64.5440    9.6480  -23.1570 C.2   800  AMP800      0.4393
     19  N6        63.2420    9.6270  -23.4530 N.pl3 800  AMP800      0.2180
     20  N1        65.2000   10.8290  -23.2000 N.2   800  AMP800      0.0021
     21  C2        66.5080   10.8480  -22.9110 C.3   800  AMP800      0.5254
     22  N3        67.3090    9.8410  -22.5700 N.2   800  AMP800     -0.0055
     23  C4        66.6260    8.6820  -22.5320 C.2   800  AMP800      0.3518
@<TRIPOS>BOND
     1     2     1    2
     2    19    18    1
     3     6     5    1
     4     6     7    1
     5    20    18    2
     6    20    21    1
     7    18    17    1
     8     8     7    1
     9     8    13    1
    10    21    22    1
    11    17    16    2
    12    17    23    1
    13     5     1    1
    14     1     3    1
    15     1     4    1
    16    16    15    1
    17     7     9    1
    18    22    23    2
    19    23    14    1
    20    15    14    1
    21    14    13    1
    22    13    11    1
    23     9    11    1
    24     9    10    1
    25    11    12    1
