@<TRIPOS>MOLECULE
1c0a_AMO_A_1.pdb
 31 33 0 0 0
SMALL
GASTEIGER

@<TRIPOS>ATOM
      1  P         53.5170   39.4400  -13.2110 P.3   831  AMO831      0.2723
      2  O1P       52.7870   38.0850  -13.3270 O.3   831  AMO831     -0.4273
      3  O2P       54.7080   39.7330  -14.1480 O.2   831  AMO831     -0.5082
      4  O3P       52.5720   40.5590  -14.0410 O.3   831  AMO831     -0.4091
      5  O5'       54.0020   39.6990  -11.6870 O.3   831  AMO831     -0.3024
      6  C5'       55.0030   40.7110  -11.3870 C.3   831  AMO831      0.1823
      7  C4'       56.1410   40.1260  -10.5740 C.3   831  AMO831      0.1822
      8  O4'       55.6530   39.7390   -9.2650 O.3   831  AMO831     -0.3135
      9  C1'       56.3770   38.6150   -8.7970 C.3   831  AMO831      0.3186
     10  N9        55.4170   37.5740   -8.4390 N.pl3 831  AMO831     -0.1439
     11  C4        55.3160   36.9210   -7.2330 C.2   831  AMO831      0.3518
     12  N3        56.0760   37.0940   -6.1410 N.2   831  AMO831     -0.0055
     13  C2        55.6740   36.2910   -5.1490 C.3   831  AMO831      0.5254
     14  N1        54.6720   35.4120   -5.1260 N.2   831  AMO831      0.0021
     15  C6        53.9140   35.2730   -6.2420 C.2   831  AMO831      0.4393
     16  N6        52.8780   34.4240   -6.2190 N.pl3 831  AMO831      0.2180
     17  C5        54.2510   36.0510   -7.3660 C.2   831  AMO831      0.2526
     18  N7        53.6980   36.1440   -8.6340 N.2   831  AMO831     -0.2095
     19  C8        54.4240   37.0560   -9.2290 C.3   831  AMO831      0.3377
     20  C2'       57.3820   38.2230   -9.8810 C.3   831  AMO831      0.2570
     21  C3'       56.7600   38.8500  -11.1220 C.3   831  AMO831      0.2184
     22  O3'       57.7540   39.0890  -12.1120 O.3   831  AMO831     -0.2174
     23  N         50.1030   42.8770  -14.6280 N.3   831  AMO831     -0.1204
     24  CA        51.4060   42.2170  -14.8320 C.3   831  AMO831      0.2015
     25  CB        52.5390   43.2500  -14.8870 C.3   831  AMO831      0.1444
     26  CG        52.4860   44.1010  -16.1390 C.2   831  AMO831      0.3669
     27  OD1       52.7550   45.3200  -16.0500 O.co2 831  AMO831     -0.2456
     28  OD2       52.1370   43.5570  -17.2070 O.co2 831  AMO831     -0.2456
     29  C         51.6710   41.2200  -13.7150 C.2   831  AMO831      0.3391
     30  O         50.9430   41.1440  -12.7250 O.2   831  AMO831     -0.2482
     31  O2'       58.6320   38.8030   -9.5970 O.3   831  AMO831     -0.2130
@<TRIPOS>BOND
     1    28    26   ar
     2    26    27   ar
     3    26    25    1
     4    25    24    1
     5    24    23    1
     6    24    29    1
     7     3     1    2
     8     4    29    1
     9     4     1    1
    10    29    30    2
    11     2     1    1
    12     1     5    1
    13    22    21    1
    14     5     6    1
    15     6     7    1
    16    21     7    1
    17    21    20    1
    18     7     8    1
    19    20    31    1
    20    20     9    1
    21     8     9    1
    22    19    18    1
    23    19    10    1
    24     9    10    1
    25    18    17    2
    26    10    11    1
    27    17    11    1
    28    17    15    1
    29    11    12    2
    30    15    16    1
    31    15    14    2
    32    12    13    1
    33    13    14    1
