@<TRIPOS>MOLECULE
1c0f_ATP_A_1.pdb
 31 33 0 0 0
SMALL
GASTEIGER

@<TRIPOS>ATOM
      1  PG        22.9330    2.7860   72.5460 P.3   376  ATP376      0.5373
      2  O1G       24.0650    2.6390   73.4610 O.3   376  ATP376     -0.1143
      3  O2G       23.4060    2.9210   71.1420 O.2   376  ATP376     -0.2221
      4  O3G       22.0540    1.6020   72.6810 O.3   376  ATP376     -0.1143
      5  PB        21.0230    4.9810   72.0270 P.3   376  ATP376      0.2277
      6  O1B       20.7620    4.6110   70.6390 O.2   376  ATP376     -0.5168
      7  O2B       19.7740    5.2300   72.7780 O.3   376  ATP376     -0.4368
      8  O3B       22.0700    4.1060   72.8590 O.3   376  ATP376     -0.2258
      9  PA        21.7540    7.5550   70.9380 P.3   376  ATP376      0.2189
     10  O1A       22.5950    7.4120   69.7210 O.2   376  ATP376     -0.5170
     11  O2A       20.3160    7.7930   70.5730 O.3   376  ATP376     -0.4371
     12  O3A       21.8900    6.3510   71.9550 O.3   376  ATP376     -0.2700
     13  O5'       22.3010    8.7870   71.7760 O.3   376  ATP376     -0.3112
     14  C5'       21.8150    9.0540   73.0870 C.3   376  ATP376      0.1813
     15  C4'       22.9500    9.5530   73.9450 C.3   376  ATP376      0.1821
     16  O4'       23.6210   10.6170   73.2550 O.3   376  ATP376     -0.3135
     17  C3'       22.5590   10.0230   75.3410 C.3   376  ATP376      0.2184
     18  O3'       23.5330    9.5540   76.3080 O.3   376  ATP376     -0.2174
     19  C2'       22.5330   11.5640   75.0920 C.3   376  ATP376      0.2570
     20  O2'       22.7380   12.2500   76.3250 O.3   376  ATP376     -0.2130
     21  C1'       23.7010   11.7180   74.1170 C.3   376  ATP376      0.3186
     22  N9        23.8410   12.9610   73.4160 N.pl3 376  ATP376     -0.1439
     23  C8        22.8940   13.5640   72.6410 C.3   376  ATP376      0.3377
     24  N7        23.1900   14.7040   72.1140 N.2   376  ATP376     -0.2095
     25  C5        24.3980   14.9230   72.5960 C.2   376  ATP376      0.2526
     26  C6        25.1940   16.0100   72.3960 C.2   376  ATP376      0.4393
     27  N6        24.8560   17.0770   71.6620 N.pl3 376  ATP376      0.2180
     28  N1        26.4070   15.9930   72.9890 N.2   376  ATP376      0.0021
     29  C2        26.8030   14.9170   73.7420 C.3   376  ATP376      0.5254
     30  N3        26.0730   13.8440   73.9830 N.2   376  ATP376     -0.0055
     31  C4        24.8590   13.9120   73.4060 C.2   376  ATP376      0.3518
@<TRIPOS>BOND
     1    10     9    2
     2    11     9    1
     3     6     5    2
     4     9    13    1
     5     9    12    1
     6     3     1    2
     7    27    26    1
     8    13    14    1
     9    12     5    1
    10     5     7    1
    11     5     8    1
    12    24    25    2
    13    24    23    1
    14    26    25    1
    15    26    28    2
    16     1     4    1
    17     1     8    1
    18     1     2    1
    19    25    31    1
    20    23    22    1
    21    28    29    1
    22    14    15    1
    23    16    15    1
    24    16    21    1
    25    31    22    1
    26    31    30    2
    27    22    21    1
    28    29    30    1
    29    15    17    1
    30    21    19    1
    31    19    17    1
    32    19    20    1
    33    17    18    1
