@<TRIPOS>MOLECULE
1c0g_ATP_A_1.pdb
 31 33 0 0 0
SMALL
GASTEIGER

@<TRIPOS>ATOM
      1  PG        22.5860    2.1680   71.5150 P.3   376  ATP376      0.5373
      2  O1G       23.6870    2.3030   72.4880 O.3   376  ATP376     -0.1143
      3  O2G       22.9940    2.2930   70.1240 O.2   376  ATP376     -0.2221
      4  O3G       21.7580    0.9770   71.7730 O.3   376  ATP376     -0.1143
      5  PB        20.7100    4.3450   70.9950 P.3   376  ATP376      0.2277
      6  O1B       19.4220    4.6160   71.7040 O.3   376  ATP376     -0.4368
      7  O2B       20.5590    3.8260   69.6410 O.2   376  ATP376     -0.5168
      8  O3B       21.6600    3.4670   71.8970 O.3   376  ATP376     -0.2258
      9  PA        21.4410    6.9160   69.8860 P.3   376  ATP376      0.2189
     10  O1A       20.0240    7.1570   69.5170 O.3   376  ATP376     -0.4371
     11  O2A       22.3570    6.7370   68.7220 O.2   376  ATP376     -0.5170
     12  O3A       21.5280    5.7180   70.9270 O.3   376  ATP376     -0.2700
     13  O5'       22.0490    8.0890   70.7760 O.3   376  ATP376     -0.3112
     14  C5'       21.4720    8.4230   72.0630 C.3   376  ATP376      0.1813
     15  C4'       22.5970    8.9630   72.9540 C.3   376  ATP376      0.1821
     16  O4'       23.2070   10.0250   72.2280 O.3   376  ATP376     -0.3135
     17  C3'       22.1750    9.5480   74.3100 C.3   376  ATP376      0.2184
     18  O3'       23.1940    9.2230   75.3020 O.3   376  ATP376     -0.2174
     19  C2'       22.2160   11.0650   74.0140 C.3   376  ATP376      0.2570
     20  O2'       22.4530   11.8280   75.2280 O.3   376  ATP376     -0.2130
     21  C1'       23.4030   11.1590   73.0440 C.3   376  ATP376      0.3186
     22  N9        23.4880   12.3610   72.2300 N.pl3 376  ATP376     -0.1439
     23  C8        22.5310   12.9050   71.4360 C.3   376  ATP376      0.3377
     24  N7        22.8190   14.0190   70.8610 N.2   376  ATP376     -0.2095
     25  C5        24.0280   14.2970   71.3110 C.2   376  ATP376      0.2526
     26  C6        24.8010   15.4080   71.0940 C.2   376  ATP376      0.4393
     27  N6        24.4470   16.4290   70.3290 N.pl3 376  ATP376      0.2180
     28  N1        26.0480   15.4400   71.6150 N.2   376  ATP376      0.0021
     29  C2        26.3920   14.4060   72.4450 C.3   376  ATP376      0.5254
     30  N3        25.6920   13.3200   72.7550 N.2   376  ATP376     -0.0055
     31  C4        24.4930   13.3260   72.1490 C.2   376  ATP376      0.3518
@<TRIPOS>BOND
     1    11     9    2
     2    10     9    1
     3     7     5    2
     4     9    13    1
     5     9    12    1
     6     3     1    2
     7    27    26    1
     8    13    14    1
     9    24    25    2
    10    24    23    1
    11    12     5    1
    12     5     6    1
    13     5     8    1
    14    26    25    1
    15    26    28    2
    16    25    31    1
    17    23    22    1
    18     1     4    1
    19     1     8    1
    20     1     2    1
    21    28    29    1
    22    14    15    1
    23    31    22    1
    24    31    30    2
    25    16    15    1
    26    16    21    1
    27    22    21    1
    28    29    30    1
    29    15    17    1
    30    21    19    1
    31    19    17    1
    32    19    20    1
    33    17    18    1
