@<TRIPOS>MOLECULE
1c0i_BE2_A_1.pdb
 10 10 0 0 0
SMALL
GASTEIGER

@<TRIPOS>ATOM
      1  C         35.2300  125.6270   23.1390 C.2   1364  BE21364     0.3891
      2  O1        36.2820  126.0660   22.7690 O.co2 1364  BE21364    -0.2405
      3  O2        35.0270  125.7770   24.3170 O.co2 1364  BE21364    -0.2405
      4  C1        34.3630  124.9690   22.1570 C.ar  1364  BE21364     0.0965
      5  C2        33.1510  124.4880   22.5220 C.ar  1364  BE21364     0.0954
      6  C3        32.2960  123.8640   21.6230 C.ar  1364  BE21364     0.0183
      7  N2        32.7300  124.6760   23.8700 N.pl3 1364  BE21364    -0.1278
      8  C4        32.6940  123.7090   20.3130 C.ar  1364  BE21364     0.0014
      9  C5        33.9270  124.2010   19.9260 C.ar  1364  BE21364     0.0003
     10  C6        34.7090  124.8020   20.8550 C.ar  1364  BE21364     0.0079
@<TRIPOS>BOND
     1     9     8   ar
     2     9    10   ar
     3     8     6   ar
     4    10     4   ar
     5     6     5   ar
     6     4     5   ar
     7     4     1    1
     8     5     7    1
     9     2     1   ar
    10     1     3   ar
