@<TRIPOS>MOLECULE
1c0n_PLP_A_1.pdb
 15 15 0 0 0
SMALL
GASTEIGER

@<TRIPOS>ATOM
      1  N1        25.4320   45.2960    7.0360 N.ar  500  PLP500     -0.2452
      2  C2        25.4670   46.5890    7.4600 C.ar  500  PLP500      0.0978
      3  C2A       24.5770   47.0190    8.6190 C.3   500  PLP500      0.0555
      4  C3        26.2960   47.4960    6.8370 C.ar  500  PLP500      0.2049
      5  O3        26.3400   48.7950    7.2680 O.3   500  PLP500     -0.2857
      6  C4        27.0850   47.1010    5.7840 C.ar  500  PLP500      0.0182
      7  C4A       27.9940   48.1250    5.0880 C.3   500  PLP500      0.0342
      8  C5        27.0360   45.7800    5.3600 C.ar  500  PLP500      0.0261
      9  C6        26.2110   44.8940    5.9930 C.ar  500  PLP500      0.0965
     10  C5A       27.8600   45.2890    4.1710 C.3   500  PLP500      0.1815
     11  O4P       29.2300   45.1000    4.5230 O.3   500  PLP500     -0.2653
     12  P         30.3370   44.8520    3.3790 P.3   500  PLP500      0.5329
     13  O1P       29.9690   45.6260    2.1700 O.2   500  PLP500     -0.2224
     14  O2P       30.1500   43.2900    3.0440 O.3   500  PLP500     -0.1145
     15  O3P       31.6630   45.0310    4.0000 O.3   500  PLP500     -0.1145
@<TRIPOS>BOND
     1    13    12    2
     2    14    12    1
     3    12    15    1
     4    12    11    1
     5    10    11    1
     6    10     8    1
     7     7     6    1
     8     8     6   ar
     9     8     9   ar
    10     6     4   ar
    11     9     1   ar
    12     4     5    1
    13     4     2   ar
    14     1     2   ar
    15     2     3    1
