@<TRIPOS>MOLECULE
1c0t_BM1_A_1.pdb
 20 23 0 0 0
SMALL
GASTEIGER

@<TRIPOS>ATOM
      1  S1         1.1710  -38.5670   25.9760 S.3   999  BM1999     -0.1135
      2  C2         2.3720  -39.5150   25.0780 C.3   999  BM1999      0.0812
      3  C3         3.2230  -38.6640   24.3820 C.3   999  BM1999      0.1067
      4  C5         1.5430  -37.0230   25.0430 C.3   999  BM1999      0.1384
      5  N4         2.4060  -37.5080   23.9760 N.am  999  BM1999     -0.2631
      6  C6         1.7690  -37.4540   22.7270 C.2   999  BM1999      0.2498
      7  OE         2.1700  -37.9460   21.6930 O.2   999  BM1999     -0.2699
      8  C7         0.5550  -36.6850   22.9360 C.ar  999  BM1999      0.0522
      9  C12        0.3580  -36.4930   24.2980 C.ar  999  BM1999      0.0117
     10  C8        -0.3590  -36.1790   22.0110 C.ar  999  BM1999      0.0043
     11  C9        -1.4820  -35.4730   22.4650 C.ar  999  BM1999      0.0001
     12  C10       -1.6860  -35.2780   23.8410 C.ar  999  BM1999     -0.0002
     13  C11       -0.7730  -35.7880   24.7590 C.ar  999  BM1999     -0.0014
     14  C13        2.1390  -35.9290   25.9630 C.ar  999  BM1999      0.0070
     15  C14        3.2900  -35.2310   25.5730 C.ar  999  BM1999     -0.0058
     16  C15        3.8310  -34.2140   26.3670 C.ar  999  BM1999     -0.0221
     17  CA         5.0610  -33.4940   25.9240 C.3   999  BM1999      0.0310
     18  C16        3.2010  -33.8860   27.5830 C.ar  999  BM1999     -0.0043
     19  C17        2.0470  -34.5740   27.9880 C.ar  999  BM1999     -0.0006
     20  C18        1.5200  -35.5940   27.1810 C.ar  999  BM1999     -0.0016
@<TRIPOS>BOND
     1     7     6    2
     2    10    11   ar
     3    10     8   ar
     4    11    12   ar
     5     6     8    1
     6     6     5   am
     7     8     9   ar
     8    12    13   ar
     9     5     3    1
    10     5     4    1
    11     9    13   ar
    12     9     4    1
    13     3     2    1
    14     4    14    1
    15     4     1    1
    16     2     1    1
    17    15    14   ar
    18    15    16   ar
    19    17    16    1
    20    14    20   ar
    21    16    18   ar
    22    20    19   ar
    23    18    19   ar
