@<TRIPOS>MOLECULE
1c0u_BM5_A_1.pdb
 23 26 0 0 0
SMALL
GASTEIGER

@<TRIPOS>ATOM
      1  S1        -1.3170  -36.8500   25.2960 S.3   999  BM5999     -0.1129
      2  C2        -0.0180  -37.7810   24.5530 C.3   999  BM5999      0.0910
      3  C3         0.9310  -36.8340   24.2120 C.3   999  BM5999      0.1868
      4  C5        -0.8010  -35.2680   24.4540 C.3   999  BM5999      0.1389
      5  N4         0.1250  -35.8040   23.4430 N.am  999  BM5999     -0.2548
      6  C6        -0.4810  -35.8620   22.1810 C.2   999  BM5999      0.2501
      7  OE        -0.1070  -36.5310   21.2480 O.2   999  BM5999     -0.2699
      8  C7        -1.6380  -34.9780   22.2540 C.ar  999  BM5999      0.0523
      9  C12       -1.8900  -34.6650   23.5940 C.ar  999  BM5999      0.0117
     10  C8        -2.4710  -34.4750   21.2320 C.ar  999  BM5999      0.0043
     11  C9        -3.5710  -33.6560   21.5610 C.ar  999  BM5999      0.0001
     12  C10       -3.8340  -33.3460   22.9120 C.ar  999  BM5999     -0.0002
     13  C11       -2.9940  -33.8490   23.9320 C.ar  999  BM5999     -0.0014
     14  C13       -0.1530  -34.1930   25.4060 C.ar  999  BM5999      0.0073
     15  C14        1.0340  -33.5190   25.0100 C.ar  999  BM5999     -0.0016
     16  C15        1.6730  -32.5680   25.8220 C.ar  999  BM5999     -0.0002
     17  C16        1.1010  -32.2780   27.0740 C.ar  999  BM5999     -0.0000
     18  C17       -0.0780  -32.9260   27.4940 C.ar  999  BM5999     -0.0002
     19  C18       -0.7020  -33.8790   26.6650 C.ar  999  BM5999     -0.0016
     20  CA         2.3890  -37.0520   23.7850 C.2   999  BM5999      0.3363
     21  OB         3.2110  -37.6690   24.4210 O.2   999  BM5999     -0.2482
     22  OC         2.6490  -36.4650   22.6050 O.3   999  BM5999     -0.4432
     23  CD         3.4710  -35.3090   22.7670 C.3   999  BM5999      0.2557
@<TRIPOS>BOND
     1    10    11   ar
     2    10     8   ar
     3     7     6    2
     4    11    12   ar
     5     6     8    1
     6     6     5   am
     7     8     9   ar
     8    22    23    1
     9    22    20    1
    10    12    13   ar
    11     5     3    1
    12     5     4    1
    13     9    13   ar
    14     9     4    1
    15    20     3    1
    16    20    21    2
    17     3     2    1
    18     4     1    1
    19     4    14    1
    20     2     1    1
    21    15    14   ar
    22    15    16   ar
    23    14    19   ar
    24    16    17   ar
    25    19    18   ar
    26    17    18   ar
