@<TRIPOS>MOLECULE
1c12_TRZ_A_1.pdb
 23 24 0 0 0
SMALL
GASTEIGER

@<TRIPOS>ATOM
      1  C1        26.9270   62.5030  -10.7570 C.ar  215  TRZ215     -0.0194
      2  C2        27.3010   62.1280   -9.4520 C.ar  215  TRZ215     -0.0088
      3  C3        26.7680   62.8270   -8.3510 C.ar  215  TRZ215     -0.0271
      4  C4        26.1900   64.0210   -8.5340 C.ar  215  TRZ215     -0.0264
      5  C5        25.7490   64.4160   -9.7970 C.ar  215  TRZ215     -0.0021
      6  C         26.1720   63.7000  -10.9170 C.ar  215  TRZ215      0.0304
      7  C9        27.2110   62.6640   -6.9720 C.3   215  TRZ215      0.0189
      8  C10       26.5000   63.5520   -6.1160 C.3   215  TRZ215      0.0078
      9  C11       25.7730   64.5420   -7.1260 C.3   215  TRZ215      0.0223
     10  C13       24.2910   64.4450   -6.8940 C.3   215  TRZ215      0.0040
     11  C12       23.5320   65.3830   -7.8170 C.3   215  TRZ215      0.0003
     12  C14       23.8930   64.9020   -5.5050 C.3   215  TRZ215      0.0003
     13  C15       27.4390   64.2050   -5.2340 C.3   215  TRZ215      0.0007
     14  C16       26.8290   61.3240   -6.2400 C.3   215  TRZ215      0.0044
     15  C17       28.6570   62.6070   -6.7370 C.3   215  TRZ215      0.0044
     16  C7        27.3990   61.6090  -11.8910 C.3   215  TRZ215      0.0311
     17  C8        24.6860   65.1520  -12.4320 C.3   215  TRZ215      0.0809
     18  C18       23.4560   64.4000  -12.8000 C.3   215  TRZ215      0.1222
     19  C19       23.2500   64.4530  -14.2690 C.2   215  TRZ215      0.3653
     20  O2        22.0780   64.5390  -14.7490 O.co2 215  TRZ215     -0.2456
     21  O3        24.2630   64.4030  -15.0280 O.co2 215  TRZ215     -0.2456
     22  C6        25.8390   64.1960  -12.1920 C.2   215  TRZ215      0.1733
     23  O         26.6210   63.9680  -13.1550 O.2   215  TRZ215     -0.2913
@<TRIPOS>BOND
     1    21    19   ar
     2    20    19   ar
     3    19    18    1
     4    23    22    2
     5    18    17    1
     6    17    22    1
     7    22     6    1
     8    16     1    1
     9     6     1   ar
    10     6     5   ar
    11     1     2   ar
    12     5     4   ar
    13     2     3   ar
    14     4     3   ar
    15     4     9    1
    16     3     7    1
    17    11    10    1
    18     9    10    1
    19     9     8    1
    20     7    15    1
    21     7    14    1
    22     7     8    1
    23    10    12    1
    24     8    13    1
