@<TRIPOS>MOLECULE
1c14_NAD_A_1.pdb
 44 48 0 0 0
SMALL
GASTEIGER

@<TRIPOS>ATOM
      1  PA         7.5960   15.1140  137.6420 P.3   501  NAD501      0.2189
      2  O1A        6.3670   14.2670  137.5770 O.3   501  NAD501     -0.4371
      3  O2A        8.8920   14.5670  137.1800 O.2   501  NAD501     -0.5170
      4  O5B        7.9000   15.5650  139.1650 O.3   501  NAD501     -0.3112
      5  C5B        6.8070   15.8240  140.0680 C.3   501  NAD501      0.1813
      6  C4B        7.4000   15.4560  141.4310 C.3   501  NAD501      0.1821
      7  O4B        6.5440   15.9070  142.5150 O.3   501  NAD501     -0.3135
      8  C3B        7.4800   13.9340  141.5200 C.3   501  NAD501      0.2184
      9  O3B        8.7550   13.4910  141.9610 O.3   501  NAD501     -0.2174
     10  C2B        6.4090   13.5460  142.5300 C.3   501  NAD501      0.2570
     11  O2B        6.9760   12.3800  143.1320 O.3   501  NAD501     -0.2130
     12  C1B        6.4530   14.8070  143.4000 C.3   501  NAD501      0.3186
     13  N9A        5.3420   15.0350  144.3320 N.pl3 501  NAD501     -0.1439
     14  C8A        4.0480   15.3410  144.0920 C.3   501  NAD501      0.3377
     15  N7A        3.2970   15.1420  145.1960 N.2   501  NAD501     -0.2095
     16  C5A        4.1930   14.7070  146.1060 C.2   501  NAD501      0.2526
     17  C6A        3.9880   14.5920  147.5010 C.2   501  NAD501      0.4393
     18  N6A        2.7740   14.5290  147.9930 N.pl3 501  NAD501      0.2180
     19  N1A        5.0780   14.4660  148.2990 N.2   501  NAD501      0.0021
     20  C2A        6.3140   14.4120  147.7500 C.3   501  NAD501      0.5254
     21  N3A        6.5310   14.4900  146.4300 N.2   501  NAD501     -0.0055
     22  C4A        5.4810   14.6700  145.5950 C.2   501  NAD501      0.3518
     23  O3         7.1830   16.5270  136.9090 O.3   501  NAD501     -0.2703
     24  PN         7.9450   17.9280  136.6510 P.3   501  NAD501      0.2189
     25  O1N        7.2440   18.5320  135.5140 O.2   501  NAD501     -0.5170
     26  O2N        9.3930   17.6360  136.6030 O.3   501  NAD501     -0.4371
     27  O5D        7.5900   18.9230  137.8750 O.3   501  NAD501     -0.3112
     28  C5D        8.5560   19.2690  138.8730 C.3   501  NAD501      0.1813
     29  C4D        8.1340   20.6120  139.3960 C.3   501  NAD501      0.1799
     30  O4D        8.3680   21.5070  138.3020 O.3   501  NAD501     -0.3327
     31  C3D        6.6430   20.8180  139.7030 C.3   501  NAD501      0.2158
     32  O3D        6.4160   21.8670  140.6690 O.3   501  NAD501     -0.2175
     33  C2D        6.0800   21.4220  138.4150 C.3   501  NAD501      0.2309
     34  O2D        4.9310   22.2410  138.6120 O.3   501  NAD501     -0.2158
     35  C1D        7.1930   22.3230  138.0420 C.3   501  NAD501      0.2263
     36  N1N        7.0210   22.8550  136.6790 N.pl3 501  NAD501     -0.2787
     37  C2N        6.8410   21.9550  135.6040 C.3   501  NAD501      0.1244
     38  C3N        6.9050   22.3960  134.2810 C.2   501  NAD501      0.0544
     39  C7N        6.9660   21.3600  133.1600 C.2   501  NAD501      0.2818
     40  O7N        6.5600   21.6570  132.0470 O.2   501  NAD501     -0.2670
     41  N7N        7.4660   20.1590  133.4200 N.am  501  NAD501     -0.0839
     42  C4N        7.0670   23.7630  134.0320 C.2   501  NAD501      0.0033
     43  C5N        7.1800   24.6840  135.0880 C.2   501  NAD501      0.0157
     44  C6N        7.1930   24.2370  136.4020 C.2   501  NAD501      0.0633
@<TRIPOS>BOND
     1    40    39    2
     2    39    41   am
     3    39    38    1
     4    42    38    2
     5    42    43    1
     6    38    37    1
     7    43    44    2
     8    25    24    2
     9    37    36    1
    10    44    36    1
    11    26    24    1
    12    24    23    1
    13    24    27    1
    14    36    35    1
    15    23     1    1
    16     3     1    2
    17     2     1    1
    18     1     4    1
    19    27    28    1
    20    35    30    1
    21    35    33    1
    22    30    29    1
    23    33    34    1
    24    33    31    1
    25    28    29    1
    26     4     5    1
    27    29    31    1
    28    31    32    1
    29     5     6    1
    30     6     8    1
    31     6     7    1
    32     8     9    1
    33     8    10    1
    34     7    12    1
    35    10    11    1
    36    10    12    1
    37    12    13    1
    38    14    13    1
    39    14    15    1
    40    13    22    1
    41    15    16    2
    42    22    16    1
    43    22    21    2
    44    16    17    1
    45    21    20    1
    46    17    18    1
    47    17    19    2
    48    20    19    1
