@<TRIPOS>MOLECULE
1c14_TCL_A_1.pdb
 17 18 0 0 0
SMALL
GASTEIGER

@<TRIPOS>ATOM
      1  C1         3.2070   23.0950  134.2020 C.ar  502  TCL502      0.0566
      2  C2         3.3860   22.4660  132.9630 C.ar  502  TCL502      0.0611
      3  C6         3.2250   22.3210  135.3850 C.ar  502  TCL502      0.2307
      4  C5         3.4200   20.9490  135.3160 C.ar  502  TCL502      0.1840
      5  C4         3.5940   20.3170  134.0830 C.ar  502  TCL502      0.0417
      6  C3         3.5710   21.0850  132.8990 C.ar  502  TCL502      0.0147
      7  C11        0.0820   18.6000  138.2000 C.ar  502  TCL502      0.0587
      8  C10        1.3590   18.3310  138.7610 C.ar  502  TCL502      0.0259
      9  C9         2.5070   18.8940  138.1790 C.ar  502  TCL502      0.0929
     10  C8         2.3740   19.7320  137.0330 C.ar  502  TCL502      0.1559
     11  C12       -0.0480   19.4350  137.0600 C.ar  502  TCL502      0.0146
     12  C13        1.1000   20.0010  136.4770 C.ar  502  TCL502      0.0392
     13  O7         3.5100   20.2460  136.4780 O.3   502  TCL502     -0.4494
     14 CL14        3.3890   23.3920  131.5180 Cl    502  TCL502     -0.0821
     15 CL15       -1.3260   17.8840  138.9020 Cl    502  TCL502     -0.0822
     16 CL16        4.0650   18.5300  138.8380 Cl    502  TCL502     -0.0790
     17  O17        3.0190   22.8910  136.6190 O.3   502  TCL502     -0.2833
@<TRIPOS>BOND
     1    14     2    1
     2     6     2   ar
     3     6     5   ar
     4     2     1   ar
     5     5     4   ar
     6     1     3   ar
     7     4     3   ar
     8     4    13    1
     9     3    17    1
    10    12    10   ar
    11    12    11   ar
    12    13    10    1
    13    10     9   ar
    14    11     7   ar
    15     9     8   ar
    16     9    16    1
    17     7     8   ar
    18     7    15    1
