@<TRIPOS>MOLECULE
1c1b_GCA_A_1.pdb
 24 25 0 0 0
SMALL
GASTEIGER

@<TRIPOS>ATOM
      1  C1        -1.1070  -34.0980   27.4400 C.ar  999  GCA999     -0.0171
      2  C2         0.1280  -33.6220   26.9630 C.ar  999  GCA999     -0.0082
      3  C3         0.8320  -32.6450   27.6770 C.ar  999  GCA999     -0.0225
      4  C4         0.3040  -32.1390   28.8670 C.ar  999  GCA999     -0.0085
      5  C5        -0.9250  -32.6030   29.3420 C.ar  999  GCA999     -0.0225
      6  C6        -1.6340  -33.5770   28.6310 C.ar  999  GCA999     -0.0082
      7  CP         2.1610  -32.1470   27.1670 C.3   999  GCA999      0.0310
      8  CQ        -1.4860  -32.0490   30.6190 C.3   999  GCA999      0.0310
      9  CG        -1.8510  -35.2170   26.7160 C.3   999  GCA999      0.0689
     10  C7        -1.8490  -35.2980   25.1760 C.2   999  GCA999      0.0551
     11  C12       -1.0640  -36.2410   24.4640 C.2   999  GCA999      0.0834
     12  CF        -0.1440  -37.3220   25.0770 C.3   999  GCA999      0.0355
     13  CH        -0.8420  -38.3670   25.9810 C.3   999  GCA999      0.0055
     14  CI         1.1540  -36.7700   25.6320 C.3   999  GCA999      0.0055
     15  C11       -1.1340  -36.2710   23.0080 C.1   999  GCA999      0.2130
     16  O11       -0.4690  -37.0230   22.2980 O.2   999  GCA999     -0.2088
     17  N8        -2.6950  -34.3950   24.4720 N.am  999  GCA999     -0.1806
     18  C9        -2.7970  -34.4190   23.0730 C.1   999  GCA999      0.2842
     19  O9        -3.5670  -33.6880   22.4490 O.2   999  GCA999     -0.1919
     20  N10       -2.0030  -35.3520   22.4160 N.2   999  GCA999     -0.2455
     21  CA        -3.4870  -33.3070   25.1420 C.3   999  GCA999      0.2551
     22  OB        -4.7010  -33.7930   25.7060 O.3   999  GCA999     -0.3336
     23  CC        -5.8530  -33.3800   24.9530 C.3   999  GCA999      0.1443
     24  CD        -7.1000  -34.1060   25.4230 C.3   999  GCA999      0.0347
@<TRIPOS>BOND
     1    16    15    2
     2    20    15    2
     3    20    18    2
     4    19    18    2
     5    15    11    1
     6    18    17   am
     7    11    12    1
     8    11    10    2
     9    17    21    1
    10    17    10    1
    11    23    24    1
    12    23    22    1
    13    12    14    1
    14    12    13    1
    15    21    22    1
    16    10     9    1
    17     9     1    1
    18     2     1   ar
    19     2     3   ar
    20     7     3    1
    21     1     6   ar
    22     3     4   ar
    23     6     5   ar
    24     4     5   ar
    25     5     8    1
