@<TRIPOS>MOLECULE
1c1c_612_A_1.pdb
 22 23 0 0 0
SMALL
GASTEIGER

@<TRIPOS>ATOM
      1  C1        -1.2620  -32.6740   26.3750 C.3   999  612999      0.0532
      2  C2        -1.7130  -32.2670   27.7700 C.3   999  612999      0.0112
      3  C3        -0.8790  -31.1280   28.2950 C.3   999  612999      0.0009
      4  C4         0.6010  -31.4980   28.2970 C.3   999  612999      0.0001
      5  C5         1.0500  -31.8890   26.8950 C.3   999  612999      0.0009
      6  C6         0.2150  -33.0430   26.3850 C.3   999  612999      0.0112
      7  S         -2.2330  -34.1690   25.9700 S.3   999  612999     -0.0987
      8  C7        -2.2820  -34.3530   24.1200 C.2   999  612999      0.0989
      9  C12       -1.4720  -35.2730   23.4690 C.2   999  612999      0.0930
     10  CF        -0.7030  -36.4080   24.1710 C.3   999  612999      0.0363
     11  CH        -1.5460  -37.2690   25.0820 C.3   999  612999      0.0055
     12  CI         0.5940  -35.9790   24.7670 C.3   999  612999      0.0055
     13  C11       -1.4730  -35.3300   22.0170 C.1   999  612999      0.2138
     14  O11       -0.7500  -36.0730   21.3660 O.2   999  612999     -0.2088
     15  N8        -3.1220  -33.4910   23.3900 N.am  999  612999     -0.1716
     16  C9        -3.1730  -33.5190   21.9820 C.1   999  612999      0.2849
     17  O9        -3.9160  -32.7880   21.3300 O.2   999  612999     -0.1918
     18  N10       -2.3320  -34.4370   21.3710 N.2   999  612999     -0.2455
     19  CA        -4.0430  -32.5340   24.0540 C.3   999  612999      0.2557
     20  OB        -5.0780  -33.2040   24.7650 O.3   999  612999     -0.3336
     21  CC        -6.3200  -33.1590   24.0560 C.3   999  612999      0.1443
     22  CD        -7.4360  -33.7350   24.8920 C.3   999  612999      0.0347
@<TRIPOS>BOND
     1    17    16    2
     2    14    13    2
     3    18    16    2
     4    18    13    2
     5    16    15   am
     6    13     9    1
     7    15    19    1
     8    15     8    1
     9     9     8    2
    10     9    10    1
    11    19    20    1
    12    21    20    1
    13    21    22    1
    14     8     7    1
    15    10    12    1
    16    10    11    1
    17     7     1    1
    18     1     6    1
    19     1     2    1
    20     6     5    1
    21     5     4    1
    22     2     3    1
    23     3     4    1
