@<TRIPOS>MOLECULE
1c1d_NAD_A_1.pdb
 44 48 0 0 0
SMALL
GASTEIGER

@<TRIPOS>ATOM
      1  PA        19.2220   51.6360  -19.1860 P.3   360  NAD360      0.2189
      2  O1A       18.3400   51.7970  -20.3580 O.2   360  NAD360     -0.5170
      3  O2A       18.8850   52.5330  -18.0510 O.3   360  NAD360     -0.4371
      4  O5B       20.6820   52.1340  -19.5960 O.3   360  NAD360     -0.3112
      5  C5B       21.4290   51.5430  -20.6790 C.3   360  NAD360      0.1813
      6  C4B       22.5290   52.5590  -20.8420 C.3   360  NAD360      0.1821
      7  O4B       23.4790   52.1310  -21.8670 O.3   360  NAD360     -0.3135
      8  C3B       22.0160   53.9110  -21.3390 C.3   360  NAD360      0.2184
      9  O3B       22.6830   54.9990  -20.6450 O.3   360  NAD360     -0.2174
     10  C2B       22.3910   53.7990  -22.8110 C.3   360  NAD360      0.2570
     11  O2B       22.4990   55.1030  -23.3910 O.3   360  NAD360     -0.2130
     12  C1B       23.7870   53.1930  -22.6500 C.3   360  NAD360      0.3186
     13  N9A       24.2320   52.6270  -23.8880 N.pl3 360  NAD360     -0.1439
     14  C8A       23.4560   52.0620  -24.8440 C.3   360  NAD360      0.3377
     15  N7A       24.1630   51.5750  -25.8700 N.2   360  NAD360     -0.2095
     16  C5A       25.4680   51.8990  -25.5240 C.2   360  NAD360      0.2526
     17  C6A       26.6910   51.6480  -26.1780 C.2   360  NAD360      0.4393
     18  N6A       26.8140   51.0280  -27.3490 N.pl3 360  NAD360      0.2180
     19  N1A       27.8150   52.0740  -25.5590 N.2   360  NAD360      0.0021
     20  C2A       27.6880   52.6870  -24.3510 C.3   360  NAD360      0.5254
     21  N3A       26.5990   52.9420  -23.6710 N.2   360  NAD360     -0.0055
     22  C4A       25.5200   52.5410  -24.3140 C.2   360  NAD360      0.3518
     23  O3        19.2770   50.0880  -18.7990 O.3   360  NAD360     -0.2703
     24  PN        19.6010   49.4760  -17.3370 P.3   360  NAD360      0.2189
     25  O1N       18.4110   49.2370  -16.4750 O.3   360  NAD360     -0.4371
     26  O2N       20.6660   50.3020  -16.6790 O.2   360  NAD360     -0.5170
     27  O5D       20.1090   48.0460  -17.8670 O.3   360  NAD360     -0.3112
     28  C5D       21.4660   47.9040  -18.3990 C.3   360  NAD360      0.1813
     29  C4D       21.6630   46.4390  -18.7180 C.3   360  NAD360      0.1799
     30  O4D       21.5490   45.6870  -17.4900 O.3   360  NAD360     -0.3327
     31  C3D       20.6660   45.8280  -19.7060 C.3   360  NAD360      0.2158
     32  O3D       21.2600   44.6920  -20.3570 O.3   360  NAD360     -0.2175
     33  C2D       19.6420   45.2510  -18.7410 C.3   360  NAD360      0.2309
     34  O2D       18.8840   44.1960  -19.3620 O.3   360  NAD360     -0.2158
     35  C1D       20.5610   44.6890  -17.6800 C.3   360  NAD360      0.2263
     36  N1N       19.8780   44.3750  -16.4350 N.pl3 360  NAD360     -0.2787
     37  C2N       19.0560   45.3180  -15.8240 C.3   360  NAD360      0.1244
     38  C3N       18.4130   45.0640  -14.5440 C.2   360  NAD360      0.0544
     39  C7N       17.7320   46.2170  -13.8990 C.2   360  NAD360      0.2818
     40  O7N       17.2370   45.9260  -12.7980 O.2   360  NAD360     -0.2670
     41  N7N       17.6580   47.4710  -14.4380 N.am  360  NAD360     -0.0839
     42  C4N       18.5660   43.7530  -13.9120 C.2   360  NAD360      0.0033
     43  C5N       19.4710   42.7970  -14.6370 C.2   360  NAD360      0.0157
     44  C6N       20.0370   43.1270  -15.7860 C.2   360  NAD360      0.0633
@<TRIPOS>BOND
     1    18    17    1
     2    17    19    2
     3    17    16    1
     4    15    16    2
     5    15    14    1
     6    19    20    1
     7    16    22    1
     8    14    13    1
     9    20    21    1
    10    22    13    1
    11    22    21    2
    12    13    12    1
    13    11    10    1
    14    10    12    1
    15    10     8    1
    16    12     7    1
    17     7     6    1
    18     8     6    1
    19     8     9    1
    20     6     5    1
    21     5     4    1
    22     2     1    2
    23    32    31    1
    24    31    33    1
    25    31    29    1
    26     4     1    1
    27    34    33    1
    28     1    23    1
    29     1     3    1
    30    23    24    1
    31    33    35    1
    32    29    28    1
    33    29    30    1
    34    28    27    1
    35    27    24    1
    36    35    30    1
    37    35    36    1
    38    24    26    2
    39    24    25    1
    40    36    37    1
    41    36    44    1
    42    37    38    1
    43    44    43    2
    44    43    42    1
    45    38    42    2
    46    38    39    1
    47    41    39   am
    48    39    40    2
