@<TRIPOS>MOLECULE
1c1d_PHE_A_1.pdb
 12 12 0 0 0
SMALL
GASTEIGER

@<TRIPOS>ATOM
      1  N         14.6560   42.8430  -16.3380 N.3   361  PHE361     -0.1205
      2  CA        15.4840   42.5540  -15.1840 C.3   361  PHE361      0.1986
      3  C         16.4580   41.4020  -15.4500 C.2   361  PHE361      0.3822
      4  O         16.9360   41.2290  -16.6320 O.co2 361  PHE361     -0.2440
      5  CB        14.6520   42.4130  -13.8910 C.3   361  PHE361      0.0569
      6  CG        13.3800   41.5760  -13.8520 C.ar  361  PHE361     -0.0202
      7  CD1       12.1830   41.9050  -14.5000 C.ar  361  PHE361     -0.0042
      8  CD2       13.3720   40.4400  -13.0430 C.ar  361  PHE361     -0.0042
      9  CE1       11.0650   41.0770  -14.3800 C.ar  361  PHE361     -0.0003
     10  CE2       12.2560   39.6200  -12.8780 C.ar  361  PHE361     -0.0003
     11  CZ        11.0870   39.9420  -13.5680 C.ar  361  PHE361     -0.0000
     12  OXT       16.7640   40.6280  -14.5140 O.co2 361  PHE361     -0.2440
@<TRIPOS>BOND
     1     4     3   ar
     2     1     2    1
     3     3     2    1
     4     3    12   ar
     5     2     5    1
     6     7     9   ar
     7     7     6   ar
     8     9    11   ar
     9     5     6    1
    10     6     8   ar
    11    11    10   ar
    12     8    10   ar
