@<TRIPOS>MOLECULE
1c1e_ENH_H_1.pdb
 19 21 0 0 0
SMALL
GASTEIGER

@<TRIPOS>ATOM
      1 CL1        16.6910  -18.0790   50.3740 Cl    703  ENH703     -0.0850
      2 CL2        17.2910  -16.7670   53.4490 Cl    703  ENH703     -0.0850
      3 CL3        15.7790  -13.7300   53.7210 Cl    703  ENH703     -0.1078
      4 CL         14.6830  -15.8340   48.6460 Cl    703  ENH703     -0.1078
      5 CL8        13.4720  -15.6360   51.8980 Cl    703  ENH703     -0.0964
      6 CL9        14.0630  -13.0410   50.7380 Cl    703  ENH703     -0.0964
      7  C11       16.2680  -16.4960   50.9200 C.2   703  ENH703      0.0593
      8  C12       16.5190  -15.9760   52.1610 C.2   703  ENH703      0.0593
      9  C5        16.0780  -14.5020   52.1350 C.3   703  ENH703      0.1319
     10  C         17.1140  -13.7210   51.2170 C.3   703  ENH703      0.1081
     11  C9        16.8050  -14.3200   49.7980 C.3   703  ENH703      0.1081
     12  C10       15.6500  -15.3540   50.0910 C.3   703  ENH703      0.1319
     13  C8        14.8020  -14.6200   51.2120 C.3   703  ENH703      0.1678
     14  N         19.1430  -14.6970   50.3080 N.am  703  ENH703     -0.2281
     15  C6        18.1480  -14.8890   49.3300 C.2   703  ENH703      0.2330
     16  O         18.2890  -15.4540   48.2680 O.2   703  ENH703     -0.2744
     17  C7        18.6240  -14.0150   51.4240 C.2   703  ENH703      0.2330
     18  O1        19.2640  -13.7160   52.4390 O.2   703  ENH703     -0.2744
     19  CN        20.5330  -15.1250   50.1740 C.3   703  ENH703      0.1228
@<TRIPOS>BOND
     1    16    15    2
     2     4    12    1
     3    15    11    1
     4    15    14   am
     5    11    12    1
     6    11    10    1
     7    12     7    1
     8    12    13    1
     9    19    14    1
    10    14    17   am
    11     1     7    1
    12     6    13    1
    13     7     8    2
    14    13     5    1
    15    13     9    1
    16    10    17    1
    17    10     9    1
    18    17    18    2
    19     9     8    1
    20     9     3    1
    21     8     2    1
