@<TRIPOS>MOLECULE
1c1h_MMP_A_1.pdb
 43 47 0 0 0
SMALL
GASTEIGER

@<TRIPOS>ATOM
      1  C1        16.1990   18.9460   12.0020 C.3   800  MMP800      0.1304
      2  N1        14.9100   19.6260   11.5410 N.2   800  MMP800     -0.3246
      3  C11       13.7120   19.2520   12.1430 C.2   800  MMP800      0.0653
      4  C12       12.9190   20.4540   12.3650 C.2   800  MMP800     -0.0079
      5  C13       13.6330   21.5110   11.9100 C.2   800  MMP800     -0.0083
      6  C14       14.9010   21.0070   11.3830 C.2   800  MMP800      0.0653
      7  C15       15.9070   21.7640   10.8000 C.2   800  MMP800      0.0824
      8  C16       11.5290   20.4880   13.0000 C.3   800  MMP800      0.0323
      9  C17       13.3640   22.9810   12.1890 C.3   800  MMP800      0.0276
     10  C18       13.6140   23.3410   13.6530 C.3   800  MMP800      0.0051
     11  N2        16.7890   20.1350    9.2290 N.2   800  MMP800     -0.3339
     12  C21       16.8090   21.3820    9.8160 C.1   800  MMP800      0.0101
     13  C22       17.8650   22.1480    9.2050 C.2   800  MMP800      0.0401
     14  C23       18.4640   21.3620    8.2920 C.2   800  MMP800      0.0398
     15  C24       17.7880   20.0900    8.2890 C.1   800  MMP800      0.0112
     16  C25       18.0170   19.0020    7.4740 C.2   800  MMP800      0.0981
     17  C26       18.2160   23.5860    9.5740 C.3   800  MMP800      0.0418
     18  C27       19.5340   21.7930    7.2990 C.3   800  MMP800      0.0364
     19  C28       20.8070   20.9900    7.4490 C.3   800  MMP800      0.0058
     20  N3        16.2790   17.4800    8.2350 N.2   800  MMP800     -0.3673
     21  C31       17.2790   17.8540    7.3510 C.2   800  MMP800      0.1469
     22  C32       17.4100   16.8410    6.3430 C.2   800  MMP800      0.0141
     23  C33       16.5240   15.8950    6.6390 C.2   800  MMP800      0.0338
     24  C34       15.7890   16.2670    7.8290 C.1   800  MMP800      0.0085
     25  C35       14.7850   15.5680    8.4580 C.2   800  MMP800      0.1301
     26  C36       18.3770   16.8830    5.1690 C.3   800  MMP800      0.0341
     27  C37       16.2240   14.5980    5.8920 C.3   800  MMP800      0.0476
     28  C38       17.2110   13.4880    6.1790 C.3   800  MMP800      0.1194
     29  C39       16.8660   12.2230    5.4350 C.2   800  MMP800      0.3652
     30  O31       16.5630   12.3070    4.2210 O.co2 800  MMP800     -0.2456
     31  O32       16.8960   11.1410    6.0550 O.co2 800  MMP800     -0.2456
     32  N4        14.2910   16.9830   10.3580 N.2   800  MMP800     -0.3333
     33  C41       14.1260   15.8370    9.6380 C.1   800  MMP800      0.0183
     34  C42       13.1770   14.9880   10.3120 C.2   800  MMP800      0.0409
     35  C43       12.7810   15.6400   11.4410 C.2   800  MMP800      0.0401
     36  C44       13.4760   16.9080   11.4730 C.1   800  MMP800      0.0101
     37  C45       13.3610   17.9300   12.3960 C.2   800  MMP800      0.0824
     38  C46       11.8160   15.1220   12.4810 C.3   800  MMP800      0.0418
     39  C47       12.6480   13.6710    9.7900 C.3   800  MMP800      0.0482
     40  C48       11.2880   13.9000    9.1320 C.3   800  MMP800      0.1194
     41  C49       10.6760   12.6280    8.5940 C.2   800  MMP800      0.3652
     42  O41       10.8410   12.3500    7.3850 O.co2 800  MMP800     -0.2456
     43  O42       10.0370   11.8980    9.3810 O.co2 800  MMP800     -0.2456
@<TRIPOS>BOND
     1    30    29   ar
     2    26    22    1
     3    29    31   ar
     4    29    28    1
     5    27    28    1
     6    27    23    1
     7    22    23    2
     8    22    21    1
     9    23    24    1
    10    18    19    1
    11    18    14    1
    12    21    16    1
    13    21    20    2
    14    42    41   ar
    15    16    15    2
    16    24    20    2
    17    24    25    2
    18    15    14    1
    19    15    11    2
    20    14    13    2
    21    25    33    1
    22    41    40    1
    23    41    43   ar
    24    40    39    1
    25    13    17    1
    26    13    12    1
    27    11    12    2
    28    33    34    2
    29    33    32    2
    30    39    34    1
    31    12     7    2
    32    34    35    1
    33    32    36    2
    34     7     6    1
    35     6     2    2
    36     6     5    1
    37    35    36    2
    38    35    38    1
    39    36    37    1
    40     2     1    1
    41     2     3    1
    42     5     9    1
    43     5     4    2
    44     3     4    1
    45     3    37    2
    46     9    10    1
    47     4     8    1
