@<TRIPOS>MOLECULE
1c1l_GAL_A_1.pdb
 11 11 0 0 0
SMALL
GASTEIGER

@<TRIPOS>ATOM
      1  C1        25.8420   17.8090   17.9150 C.3   137  GAL137      0.1777
      2  C2        24.9940   19.0590   17.6800 C.3   137  GAL137      0.2141
      3  C3        23.5340   18.7980   18.0560 C.3   137  GAL137      0.2173
      4  C4        23.0110   17.5270   17.3620 C.3   137  GAL137      0.2142
      5  C5        23.9690   16.3680   17.6040 C.3   137  GAL137      0.1810
      6  C6        23.5550   15.1170   16.8590 C.3   137  GAL137      0.2141
      7  O2        25.5080   20.1210   18.4740 O.3   137  GAL137     -0.2176
      8  O3        22.7560   19.9210   17.6750 O.3   137  GAL137     -0.2175
      9  O4        22.8900   17.7860   15.9720 O.3   137  GAL137     -0.2176
     10  O5        25.3110   16.7130   17.1810 O.3   137  GAL137     -0.3481
     11  O6        24.4280   14.0540   17.1500 O.3   137  GAL137     -0.2176
@<TRIPOS>BOND
     1     9     4    1
     2     6    11    1
     3     6     5    1
     4    10     5    1
     5    10     1    1
     6     4     5    1
     7     4     3    1
     8     8     3    1
     9     2     1    1
    10     2     3    1
    11     2     7    1
