@<TRIPOS>MOLECULE
1c1l_BGC_A_1.pdb
 12 12 0 0 0
SMALL
GASTEIGER

@<TRIPOS>ATOM
      1  C2        30.0350   15.6990   16.7760 C.3   138  BGC138      0.2434
      2  C3        28.9360   16.7310   16.4720 C.3   138  BGC138      0.2199
      3  C4        28.0890   16.9540   17.7120 C.3   138  BGC138      0.2144
      4  C5        28.9930   17.3650   18.8840 C.3   138  BGC138      0.1836
      5  C6        28.2210   17.5890   20.1670 C.3   138  BGC138      0.2142
      6  C1        30.8350   16.1150   18.0090 C.3   138  BGC138      0.3024
      7  O1        31.7140   15.1150   18.3490 O.3   138  BGC138     -0.1869
      8  O2        30.9050   15.5990   15.6570 O.3   138  BGC138     -0.2148
      9  O3        28.1290   16.2570   15.4110 O.3   138  BGC138     -0.2174
     10  O4        27.1250   18.0110   17.4530 O.3   138  BGC138     -0.2176
     11  O5        29.9410   16.3110   19.1190 O.3   138  BGC138     -0.3236
     12  O6        27.5220   16.4210   20.5700 O.3   138  BGC138     -0.2176
@<TRIPOS>BOND
     1     9     2    1
     2     8     1    1
     3     2     1    1
     4     2     3    1
     5     1     6    1
     6    10     3    1
     7     3     4    1
     8     6     7    1
     9     6    11    1
    10     4    11    1
    11     4     5    1
    12     5    12    1
