@<TRIPOS>MOLECULE
1c1p_BAI_A_1.pdb
 37 40 0 0 0
SMALL
GASTEIGER

@<TRIPOS>ATOM
      1  C1        45.5740   19.3740   53.2390 C.2   246  BAI246      0.0492
      2  C2        45.1040   19.1540   51.8870 C.3   246  BAI246      0.0224
      3  C3        44.7800   20.2210   51.0260 C.2   246  BAI246     -0.0511
      4  C4        44.9370   21.4850   51.5500 C.2   246  BAI246      0.0674
      5  C5        45.3690   21.7260   52.8010 C.2   246  BAI246      0.1372
      6  C6        45.7010   20.7220   53.6850 C.2   246  BAI246     -0.0112
      7  C7        45.8960   18.3190   54.1000 C.2   246  BAI246      0.2628
      8  C8        45.0340   23.5530   51.9320 C.2   246  BAI246      0.1598
      9  C9        44.9460   25.1010   51.7130 C.3   246  BAI246      0.0825
     10  N1        46.6630   18.5560   55.1200 N.pl3 246  BAI246     -0.2500
     11  N2        45.4340   17.1190   53.8510 N.2   246  BAI246     -0.2887
     12  N3        44.7310   22.6490   51.0250 N.pl3 246  BAI246     -0.2904
     13  N4        45.4460   23.0170   53.0800 N.2   246  BAI246     -0.3910
     14  C1'       39.3580   26.8730   51.4960 C.2   246  BAI246     -0.0732
     15  C2'       39.5970   26.9880   50.0970 C.3   246  BAI246      0.0074
     16  C3'       40.8610   26.6780   49.5630 C.2   246  BAI246     -0.0520
     17  C4'       41.8100   26.2690   50.4790 C.2   246  BAI246      0.0674
     18  C5'       41.5830   26.1620   51.7990 C.2   246  BAI246      0.1364
     19  C6'       40.3710   26.4520   52.3780 C.2   246  BAI246     -0.0258
     20  C8'       43.5110   25.6050   51.4870 C.2   246  BAI246      0.1598
     21  N3'       43.0360   25.9190   50.3110 N.pl3 246  BAI246     -0.2904
     22  N4'       42.6340   25.7460   52.4650 N.2   246  BAI246     -0.3910
     23  H2        44.9970   18.1450   51.5130 H     246  BAI246      0.0403
     24  H3        44.4280   20.0580   50.0160 H     246  BAI246      0.0598
     25  H6        46.0400   20.9600   54.6820 H     246  BAI246      0.0655
     26  H91       45.5430   25.3610   50.8500 H     246  BAI246      0.0440
     27  H92       45.3540   25.6000   52.5780 H     246  BAI246      0.0440
     28 HH11       47.0400   19.4810   55.2250 H     246  BAI246      0.2883
     29 HH12       46.8480   17.9180   55.8550 H     246  BAI246      0.2883
     30 HH21       44.9140   16.9250   53.0020 H     246  BAI246      0.3009
     31  HN3       44.4020   22.8060   50.1260 H     246  BAI246      0.1543
     32  H1'       38.3810   27.1160   51.8880 H     246  BAI246      0.0579
     33  H2'       38.8030   27.3110   49.4400 H     246  BAI246      0.0395
     34  H3'       41.0730   26.7540   48.5060 H     246  BAI246      0.0598
     35  H6'       40.2080   26.3630   53.4420 H     246  BAI246      0.0647
     36 HN3'       43.5190   25.8920   49.4650 H     246  BAI246      0.1543
     37  HN2       45.6530   16.3360   54.4170 H     246  BAI246      0.3009
@<TRIPOS>BOND
     1    34    16    1
     2    33    15    1
     3    36    21    1
     4    16    15    1
     5    16    17    2
     6    24     3    1
     7    15    14    1
     8    31    12    1
     9    21    17    1
    10    21    20    1
    11    17    18    1
    12    26     9    1
    13    12     4    1
    14    12     8    1
    15     3     4    2
    16     3     2    1
    17    20     9    1
    18    20    22    2
    19    14    32    1
    20    14    19    2
    21    23     2    1
    22     4     5    1
    23     9     8    1
    24     9    27    1
    25    18    19    1
    26    18    22    2
    27     2     1    1
    28     8    13    2
    29    19    35    1
    30     5    13    2
    31     5     6    1
    32    30    11    1
    33     1     6    2
    34     1     7    1
    35     6    25    1
    36    11     7    2
    37    11    37    1
    38     7    10    1
    39    10    28    1
    40    10    29    1
