@<TRIPOS>MOLECULE
1c1p_DMS_A_1.pdb
 10 9 0 0 0
SMALL
GASTEIGER

@<TRIPOS>ATOM
      1  S         37.7630   25.0050   57.0130 S.O   333  DMS333      0.0159
      2  O         38.0530   26.3910   58.1440 O.2   333  DMS333     -0.2577
      3  C1        36.6270   23.6910   57.5030 C.3   333  DMS333      0.0115
      4  C2        37.0620   25.2720   55.3750 C.3   333  DMS333      0.0115
      5  H11       36.9020   23.3370   58.4850 H     333  DMS333      0.0365
      6  H12       35.6300   24.0910   57.5240 H     333  DMS333      0.0365
      7  H13       36.6810   22.8910   56.7850 H     333  DMS333      0.0365
      8  H21       37.5560   26.0990   54.8860 H     333  DMS333      0.0365
      9  H22       37.2080   24.3640   54.8100 H     333  DMS333      0.0365
     10  H23       36.0050   25.4770   55.4640 H     333  DMS333      0.0365
@<TRIPOS>BOND
     1     9     4    1
     2     8     4    1
     3     4    10    1
     4     4     1    1
     5     7     3    1
     6     1     3    1
     7     1     2    2
     8     3     6    1
     9     3     5    1
