@<TRIPOS>MOLECULE
1c1q_BAI_A_1.pdb
 23 24 0 0 0
SMALL
GASTEIGER

@<TRIPOS>ATOM
      1  C1        45.4420   19.2440   52.9010 C.2   246  BAI246      0.0492
      2  C2        45.0190   18.8530   51.5840 C.3   246  BAI246      0.0224
      3  C3        44.6410   19.8050   50.6020 C.2   246  BAI246     -0.0511
      4  C4        44.7040   21.1320   50.9850 C.2   246  BAI246      0.0674
      5  C5        45.1000   21.5060   52.2110 C.2   246  BAI246      0.1372
      6  C6        45.4740   20.6250   53.1950 C.2   246  BAI246     -0.0112
      7  C7        45.8220   18.3350   53.8920 C.2   246  BAI246      0.2628
      8  C8        44.6970   23.2140   51.1960 C.2   246  BAI246      0.1521
      9  C9        44.5520   24.7130   50.8460 C.3   246  BAI246      0.0226
     10  N1        46.6760   18.7100   54.8090 N.pl3 246  BAI246     -0.2500
     11  N2        45.3310   17.1290   53.8870 N.2   246  BAI246     -0.2887
     12  N3        44.4550   22.2400   50.3550 N.pl3 246  BAI246     -0.2908
     13  N4        45.1080   22.8050   52.3850 N.2   246  BAI246     -0.3915
     14  H2        44.9840   17.8060   51.3290 H     246  BAI246      0.0403
     15  H3        44.3200   19.5120   49.6140 H     246  BAI246      0.0598
     16  H6        45.7800   20.9900   54.1660 H     246  BAI246      0.0655
     17  H91       45.2530   24.9650   50.0620 H     246  BAI246      0.0356
     18  H92       44.7680   25.3100   51.7190 H     246  BAI246      0.0356
     19 HH11       47.0790   19.6330   54.7610 H     246  BAI246      0.2883
     20 HH12       46.9140   18.1600   55.6050 H     246  BAI246      0.2883
     21 HH21       44.7150   16.8480   53.1360 H     246  BAI246      0.3009
     22  HN3       44.1410   22.3750   49.4340 H     246  BAI246      0.1543
     23  HN2       45.5780   16.4520   54.5690 H     246  BAI246      0.3009
@<TRIPOS>BOND
     1    22    12    1
     2    15     3    1
     3    17     9    1
     4    12     4    1
     5    12     8    1
     6     3     4    2
     7     3     2    1
     8     9     8    1
     9     9    18    1
    10     4     5    1
    11     8    13    2
    12    14     2    1
    13     2     1    1
    14     5    13    2
    15     5     6    1
    16     1     6    2
    17     1     7    1
    18    21    11    1
    19     6    16    1
    20    11     7    2
    21    11    23    1
    22     7    10    1
    23    19    10    1
    24    10    20    1
