@<TRIPOS>MOLECULE
1c1r_BAI_A_1.pdb
 37 40 0 0 0
SMALL
GASTEIGER

@<TRIPOS>ATOM
      1  C1        45.3210   19.4680   52.8680 C.3   246  BAI246      0.1307
      2  C2        44.6780   19.0610   51.6400 C.2   246  BAI246     -0.0581
      3  C3        44.2480   20.0000   50.6810 C.2   246  BAI246     -0.0250
      4  C4        44.4900   21.3220   50.9910 C.2   246  BAI246      0.1364
      5  C5        45.0860   21.7150   52.1250 C.2   246  BAI246      0.0682
      6  C6        45.5140   20.8510   53.0820 C.2   246  BAI246     -0.0368
      7  C7        45.7430   18.5670   53.8490 C.2   246  BAI246      0.2498
      8  C8        44.6170   23.4360   51.0080 C.2   246  BAI246      0.1598
      9  C9        44.4420   24.9350   50.5720 C.3   246  BAI246      0.0825
     10  N1        46.5960   18.9460   54.7570 N.pl3 246  BAI246     -0.2528
     11  N2        45.2890   17.3480   53.8450 N.2   246  BAI246     -0.2916
     12  N3        44.2090   22.4040   50.3170 N.2   246  BAI246     -0.3910
     13  N4        45.1560   23.0190   52.1120 N.pl3 246  BAI246     -0.2904
     14  C1'       45.0370   25.3510   44.6310 C.2   246  BAI246     -0.0732
     15  C2'       45.7720   26.5360   44.9400 C.3   246  BAI246      0.0074
     16  C3'       45.9600   26.9660   46.2830 C.2   246  BAI246     -0.0520
     17  C4'       45.3900   26.1690   47.2600 C.2   246  BAI246      0.0674
     18  C5'       44.6910   25.0430   46.9460 C.2   246  BAI246      0.1364
     19  C6'       44.4740   24.5750   45.6580 C.2   246  BAI246     -0.0258
     20  C8'       44.7250   25.2740   49.0560 C.2   246  BAI246      0.1598
     21  N3'       45.3960   26.2880   48.5740 N.pl3 246  BAI246     -0.2904
     22  N4'       44.3040   24.5340   48.0680 N.2   246  BAI246     -0.3910
     23  H2        44.5130   18.0140   51.4410 H     246  BAI246      0.0588
     24  H3        43.7670   19.7060   49.7610 H     246  BAI246      0.0647
     25  H6        45.9890   21.2280   53.9750 H     246  BAI246      0.0606
     26  H91       45.0870   25.5420   51.1870 H     246  BAI246      0.0440
     27  H92       43.4210   25.2200   50.7860 H     246  BAI246      0.0440
     28 HH11       46.9710   19.8790   54.7230 H     246  BAI246      0.2880
     29 HH12       46.8530   18.3990   55.5460 H     246  BAI246      0.2880
     30 HH21       44.6560   17.0430   53.1170 H     246  BAI246      0.3006
     31  H1'       44.9110   25.0480   43.6030 H     246  BAI246      0.0579
     32  H2'       46.1960   27.1190   44.1380 H     246  BAI246      0.0395
     33  H3'       46.5150   27.8590   46.5330 H     246  BAI246      0.0598
     34  H6'       43.9170   23.6720   45.4580 H     246  BAI246      0.0647
     35 HN3'       45.8290   27.0080   49.1040 H     246  BAI246      0.1543
     36  HN2       45.5560   16.6880   54.5340 H     246  BAI246      0.3006
     37  HN4       45.5490   23.5840   52.8280 H     246  BAI246      0.1543
@<TRIPOS>BOND
     1    31    14    1
     2    32    15    1
     3    14    15    1
     4    14    19    2
     5    15    16    1
     6    34    19    1
     7    19    18    1
     8    16    33    1
     9    16    17    2
    10    18    17    1
    11    18    22    2
    12    17    21    1
    13    22    20    2
    14    21    20    1
    15    21    35    1
    16    20     9    1
    17    24     3    1
    18    12     4    2
    19    12     8    2
    20     9    27    1
    21     9     8    1
    22     9    26    1
    23     3     4    1
    24     3     2    2
    25     4     5    1
    26     8    13    1
    27    23     2    1
    28     2     1    1
    29    13     5    1
    30    13    37    1
    31     5     6    2
    32     1     6    1
    33     1     7    1
    34     6    25    1
    35    30    11    1
    36    11     7    2
    37    11    36    1
    38     7    10    1
    39    28    10    1
    40    10    29    1
