@<TRIPOS>MOLECULE
1c1r_DMS_A_1.pdb
 10 9 0 0 0
SMALL
GASTEIGER

@<TRIPOS>ATOM
      1  S         37.7360   25.3090   56.9540 S.O   333  DMS333      0.0159
      2  O         36.8440   26.0430   56.3840 O.2   333  DMS333     -0.2577
      3  C1        37.0260   23.6950   57.3590 C.3   333  DMS333      0.0115
      4  C2        39.0120   24.8300   55.7560 C.3   333  DMS333      0.0115
      5  H11       36.1560   23.8180   57.9810 H     333  DMS333      0.0365
      6  H12       36.7510   23.1670   56.4570 H     333  DMS333      0.0365
      7  H13       37.7640   23.1420   57.9050 H     333  DMS333      0.0365
      8  H21       39.4840   25.7190   55.3600 H     333  DMS333      0.0365
      9  H22       39.7610   24.2300   56.2510 H     333  DMS333      0.0365
     10  H23       38.5760   24.2660   54.9450 H     333  DMS333      0.0365
@<TRIPOS>BOND
     1    10     4    1
     2     8     4    1
     3     4     9    1
     4     4     1    1
     5     2     1    2
     6     6     3    1
     7     1     3    1
     8     3     7    1
     9     3     5    1
