@<TRIPOS>MOLECULE
1c1s_BAB_A_1.pdb
 23 24 0 0 0
SMALL
GASTEIGER

@<TRIPOS>ATOM
      1  C9        45.3020   24.8560   51.1020 C.3   246  BAB246      0.0226
      2  C1'       45.8430   19.3370   53.0700 C.2   246  BAB246      0.0492
      3  C2'       45.2970   19.0150   51.7840 C.3   246  BAB246      0.0224
      4  C3'       44.9530   20.0050   50.8540 C.2   246  BAB246     -0.0511
      5  C4'       45.1960   21.2990   51.2560 C.2   246  BAB246      0.0674
      6  C5'       45.7120   21.6350   52.4570 C.2   246  BAB246      0.1372
      7  C6'       46.0620   20.6980   53.3890 C.2   246  BAB246     -0.0112
      8  C7'       46.1740   18.3600   54.0020 C.2   246  BAB246      0.2628
      9  C8'       45.3830   23.3710   51.4700 C.2   246  BAB246      0.1521
     10  N1'       46.9880   18.6780   54.9660 N.pl3 246  BAB246     -0.2500
     11  N2'       45.6660   17.1620   53.8940 N.2   246  BAB246     -0.2887
     12  N3'       44.9950   22.4170   50.6550 N.pl3 246  BAB246     -0.2908
     13  N4'       45.8570   22.9320   52.6340 N.2   246  BAB246     -0.3915
     14  H91       45.9780   25.0530   50.2830 H     246  BAB246      0.0356
     15  H92       45.5810   25.4540   51.9550 H     246  BAB246      0.0356
     16  H2'       45.1290   17.9820   51.5180 H     246  BAB246      0.0403
     17  H3'       44.5400   19.7700   49.8840 H     246  BAB246      0.0598
     18  H6'       46.4710   21.0100   54.3390 H     246  BAB246      0.0655
     19 H2'1       45.0760   16.9490   53.0950 H     246  BAB246      0.3009
     20 H2'2       45.8770   16.4160   54.5110 H     246  BAB246      0.3009
     21  HN1       47.2820   18.0900   55.7090 H     246  BAB246      0.2883
     22  HN2       47.3920   19.5980   54.9440 H     246  BAB246      0.2883
     23  HN3       44.6070   22.5210   49.7680 H     246  BAB246      0.1543
@<TRIPOS>BOND
     1    23    12    1
     2    17     4    1
     3    14     1    1
     4    12     5    1
     5    12     9    1
     6     4     5    2
     7     4     3    1
     8     1     9    1
     9     1    15    1
    10     5     6    1
    11     9    13    2
    12    16     3    1
    13     3     2    1
    14     6    13    2
    15     6     7    1
    16     2     7    2
    17     2     8    1
    18    19    11    1
    19     7    18    1
    20    11     8    2
    21    11    20    1
    22     8    10    1
    23    22    10    1
    24    10    21    1
