@<TRIPOS>MOLECULE
1c1t_BAB_A_1.pdb
 43 46 0 0 0
SMALL
GASTEIGER

@<TRIPOS>ATOM
      1  C1        45.5810   19.3920   53.1430 C.2   246  BAB246      0.0594
      2  C2        45.0980   19.2850   51.7790 C.2   246  BAB246     -0.0583
      3  C3        44.6150   20.4140   51.0720 C.3   246  BAB246      0.0463
      4  C4        44.6370   21.6190   51.7600 C.2   246  BAB246      0.1220
      5  C5        45.0950   21.7110   53.0380 C.2   246  BAB246      0.0679
      6  C6        45.5690   20.6580   53.7660 C.2   246  BAB246     -0.0233
      7  C7        46.0330   18.3160   53.8870 C.2   246  BAB246      0.2659
      8  C8        44.4480   23.5860   52.4440 C.2   246  BAB246      0.1594
      9  C9        44.0830   25.0720   52.6020 C.3   246  BAB246      0.0825
     10  N1        46.9720   18.5270   54.7600 N.pl3 246  BAB246     -0.2497
     11  N2        45.5000   17.1430   53.6890 N.2   246  BAB246     -0.2885
     12  N3        44.2320   22.8140   51.3890 N.2   246  BAB246     -0.3947
     13  N4        44.9690   22.9340   53.4330 N.pl3 246  BAB246     -0.2905
     14  C1'       38.7600   25.2640   55.5150 C.2   246  BAB246      0.0492
     15  C2'       38.6280   26.3960   54.6500 C.3   246  BAB246      0.0224
     16  C3'       39.6400   26.7850   53.7590 C.2   246  BAB246     -0.0511
     17  C4'       40.7820   26.0230   53.7480 C.2   246  BAB246      0.0674
     18  C5'       40.9640   24.9440   54.5400 C.2   246  BAB246      0.1372
     19  C6'       39.9770   24.5280   55.4420 C.2   246  BAB246     -0.0112
     20  C7'       37.6910   24.9400   56.3800 C.2   246  BAB246      0.2628
     21  C8'       42.6820   25.2170   53.3140 C.2   246  BAB246      0.1598
     22  N1'       37.4390   23.7120   56.7650 N.2   246  BAB246     -0.2887
     23  N2'       36.9380   25.9130   56.8140 N.pl3 246  BAB246     -0.2500
     24  N3'       41.8420   26.1740   53.0050 N.pl3 246  BAB246     -0.2904
     25  N4'       42.1630   24.4440   54.2590 N.2   246  BAB246     -0.3910
     26  H2        45.1050   18.3250   51.2810 H     246  BAB246      0.0588
     27  H3        44.2490   20.3390   50.0590 H     246  BAB246      0.0428
     28  H6        45.9190   20.8030   54.7790 H     246  BAB246      0.0645
     29  H91       44.0400   25.5320   51.6250 H     246  BAB246      0.0440
     30  H92       44.8390   25.5610   53.1990 H     246  BAB246      0.0440
     31 HN21       44.7860   17.0370   52.9820 H     246  BAB246      0.3009
     32 HN22       45.7850   16.3190   54.1600 H     246  BAB246      0.3009
     33  HN4       45.2100   23.3190   54.3040 H     246  BAB246      0.1543
     34  H2'       37.7190   26.9800   54.6710 H     246  BAB246      0.0403
     35  H3'       39.5420   27.6360   53.1070 H     246  BAB246      0.0598
     36  H6'       40.1400   23.6710   56.0730 H     246  BAB246      0.0655
     37 H2'1       37.1830   26.8610   56.5750 H     246  BAB246      0.2883
     38 H2'2       36.2030   25.8030   57.4780 H     246  BAB246      0.2883
     39  HN1       38.0320   22.9620   56.4590 H     246  BAB246      0.3009
     40  HN2       36.6840   23.4980   57.3840 H     246  BAB246      0.3009
     41  HN3       41.9860   26.8780   52.3390 H     246  BAB246      0.1543
     42  HN5       47.3580   19.4520   54.8280 H     246  BAB246      0.2883
     43  HN6       47.2750   17.8590   55.4170 H     246  BAB246      0.2883
@<TRIPOS>BOND
     1    27     3    1
     2     3     4    1
     3     3     2    1
     4    26     2    1
     5    12     4    2
     6    12     8    2
     7    29     9    1
     8     4     5    1
     9     2     1    2
    10    41    24    1
    11     8     9    1
    12     8    13    1
    13     9    30    1
    14     9    21    1
    15    31    11    1
    16    24    21    1
    17    24    17    1
    18     5    13    1
    19     5     6    2
    20    35    16    1
    21     1     6    1
    22     1     7    1
    23    21    25    2
    24    13    33    1
    25    11     7    2
    26    11    32    1
    27    17    16    2
    28    17    18    1
    29    16    15    1
    30     6    28    1
    31     7    10    1
    32    25    18    2
    33    18    19    1
    34    15    34    1
    35    15    14    1
    36    10    42    1
    37    10    43    1
    38    19    14    2
    39    19    36    1
    40    14    20    1
    41    20    22    2
    42    20    23    1
    43    39    22    1
    44    37    23    1
    45    22    40    1
    46    23    38    1
