@<TRIPOS>MOLECULE
1c1u_BAI_H_1.pdb
 37 40 0 0 0
SMALL
GASTEIGER

@<TRIPOS>ATOM
      1  C1        11.7700  -11.8410   23.0670 C.2   410  BAI410      0.0594
      2  C2        12.2330  -10.6420   22.4680 C.2   410  BAI410     -0.0583
      3  C3        13.2390  -10.6310   21.4990 C.3   410  BAI410      0.0463
      4  C4        13.7490  -11.8610   21.1600 C.2   410  BAI410      0.1220
      5  C5        13.3230  -13.0070   21.7150 C.2   410  BAI410      0.0679
      6  C6        12.3410  -13.0620   22.6640 C.2   410  BAI410     -0.0233
      7  C7        10.8040  -11.8370   24.0380 C.2   410  BAI410      0.2659
      8  C8        14.8610  -13.4670   20.3290 C.2   410  BAI410      0.1594
      9  C9        15.9340  -14.2920   19.4750 C.3   410  BAI410      0.0825
     10  N1        10.1410  -12.9340   24.2920 N.2   410  BAI410     -0.2885
     11  N2        10.5790  -10.7240   24.6980 N.pl3 410  BAI410     -0.2497
     12  N3        14.6910  -12.1700   20.3150 N.2   410  BAI410     -0.3947
     13  N4        14.0170  -13.9780   21.1910 N.pl3 410  BAI410     -0.2905
     14  C1'       17.0350  -11.5170   14.3500 C.2   410  BAI410     -0.0732
     15  C2'       16.5210  -12.6870   13.7390 C.3   410  BAI410      0.0074
     16  C3'       16.0800  -13.7840   14.5190 C.2   410  BAI410     -0.0520
     17  C4'       16.1790  -13.6390   15.8930 C.2   410  BAI410      0.0674
     18  C5'       16.6740  -12.5160   16.4540 C.2   410  BAI410      0.1364
     19  C6'       17.1190  -11.4190   15.7430 C.2   410  BAI410     -0.0258
     20  C8'       16.1400  -13.8320   17.9970 C.2   410  BAI410      0.1598
     21  N3'       15.8530  -14.4540   16.8710 N.pl3 410  BAI410     -0.2904
     22  N4'       16.6380  -12.6680   17.7390 N.2   410  BAI410     -0.3910
     23  H2        11.8000   -9.7010   22.7670 H     410  BAI410      0.0588
     24  H3        13.5910   -9.7170   21.0460 H     410  BAI410      0.0428
     25  H6        12.0220  -14.0070   23.0810 H     410  BAI410      0.0645
     26  H91       15.6550  -15.3370   19.4740 H     410  BAI410      0.0440
     27  H92       16.8850  -14.2050   19.9790 H     410  BAI410      0.0440
     28 HH11       10.3260  -13.7770   23.7740 H     410  BAI410      0.3009
     29 HH12        9.5350  -13.0150   25.0790 H     410  BAI410      0.3009
     30 HH21       11.1490   -9.9140   24.5100 H     410  BAI410      0.2883
     31  H1'       17.3680  -10.6890   13.7430 H     410  BAI410      0.0579
     32  H2'       16.4690  -12.7390   12.6620 H     410  BAI410      0.0395
     33  H3'       15.6870  -14.6820   14.0680 H     410  BAI410      0.0598
     34  H6'       17.5060  -10.5350   16.2290 H     410  BAI410      0.0647
     35 HN3'       15.4850  -15.3560   16.7700 H     410  BAI410      0.1543
     36  HN2        9.9220  -10.6540   25.4430 H     410  BAI410      0.2883
     37  HN4       13.9250  -14.9290   21.4160 H     410  BAI410      0.1543
@<TRIPOS>BOND
     1    32    15    1
     2    15    14    1
     3    15    16    1
     4    31    14    1
     5    33    16    1
     6    14    19    2
     7    16    17    2
     8    19    34    1
     9    19    18    1
    10    17    18    1
    11    17    21    1
    12    18    22    2
    13    35    21    1
    14    21    20    1
    15    22    20    2
    16    20     9    1
    17    26     9    1
    18     9    27    1
    19     9     8    1
    20    12     8    2
    21    12     4    2
    22     8    13    1
    23    24     3    1
    24     4     3    1
    25     4     5    1
    26    13    37    1
    27    13     5    1
    28     3     2    1
    29     5     6    2
    30     2    23    1
    31     2     1    2
    32     6     1    1
    33     6    25    1
    34     1     7    1
    35    28    10    1
    36     7    10    2
    37     7    11    1
    38    10    29    1
    39    30    11    1
    40    11    36    1
