@<TRIPOS>MOLECULE
1c1v_BAB_H_1.pdb
 42 45 0 0 0
SMALL
GASTEIGER

@<TRIPOS>ATOM
      1  C1        12.1640  -11.7770   22.9800 C.ar  410  BAB410      0.0640
      2  C2        12.5660  -10.6550   22.2230 C.ar  410  BAB410     -0.0438
      3  C3        13.6090  -10.7610   21.2660 C.ar  410  BAB410     -0.0194
      4  C4        14.1930  -12.0100   21.1190 C.ar  410  BAB410      0.1648
      5  C5        13.7970  -13.0620   21.8470 C.ar  410  BAB410      0.1656
      6  C6        12.8100  -13.0040   22.7690 C.ar  410  BAB410     -0.0055
      7  C7        11.1770  -11.7600   23.9320 C.2   410  BAB410      0.2663
      8  C8        15.3430  -13.7390   20.5970 C.1   410  BAB410      0.1115
      9  C9        16.4040  -14.7280   19.9320 C.3   410  BAB410      0.1182
     10  N1        10.4850  -12.8530   24.0440 N.2   410  BAB410     -0.2884
     11  N2        10.9930  -10.7000   24.6810 N.pl3 410  BAB410     -0.2497
     12  N3        15.1600  -12.4460   20.3430 N.2   410  BAB410     -0.3419
     13  N4        14.4980  -14.1150   21.5260 N.2   410  BAB410     -0.3419
     14  C1'       16.6910  -13.0370   14.2030 C.3   410  BAB410      0.1307
     15  C2'       17.2910  -11.9340   14.8800 C.2   410  BAB410     -0.0581
     16  C3'       17.4830  -11.9150   16.2530 C.2   410  BAB410     -0.0250
     17  C4'       17.0610  -13.0210   16.9290 C.2   410  BAB410      0.1364
     18  C5'       16.4840  -14.1050   16.3550 C.2   410  BAB410      0.0682
     19  C6'       16.2780  -14.1630   14.9870 C.2   410  BAB410     -0.0368
     20  C7'       16.5080  -12.9750   12.8200 C.2   410  BAB410      0.2498
     21  C8'       16.5740  -14.3440   18.4490 C.2   410  BAB410      0.1672
     22  N1'       16.1700  -14.0620   12.1630 N.2   410  BAB410     -0.2916
     23  N2'       16.6580  -11.8150   12.2100 N.pl3 410  BAB410     -0.2528
     24  N3'       17.1100  -13.1940   18.2100 N.2   410  BAB410     -0.3904
     25  N4'       16.1850  -14.9370   17.3350 N.pl3 410  BAB410     -0.2899
     26  H2        12.0750   -9.7040   22.3840 H     410  BAB410      0.0627
     27  H3        13.9350   -9.9130   20.6820 H     410  BAB410      0.0651
     28  H6        12.5410  -13.8920   23.3210 H     410  BAB410      0.0659
     29  H91       16.0630  -15.7480   20.0040 H     410  BAB410      0.0524
     30  H92       17.3530  -14.6250   20.4350 H     410  BAB410      0.0524
     31 HN21       11.6130   -9.9080   24.5650 H     410  BAB410      0.2883
     32 HN22       10.3080  -10.6360   25.3960 H     410  BAB410      0.2883
     33  H2'       17.6170  -11.0690   14.3240 H     410  BAB410      0.0588
     34  H3'       17.9390  -11.0740   16.7550 H     410  BAB410      0.0647
     35  H6'       15.8260  -15.0300   14.5340 H     410  BAB410      0.0606
     36 H2'1       16.8430  -10.9840   12.7560 H     410  BAB410      0.2880
     37 H2'2       16.5060  -11.6660   11.2330 H     410  BAB410      0.2880
     38 HN4'       15.7690  -15.8250   17.2880 H     410  BAB410      0.1543
     39  HN1       16.0400  -14.9200   12.6690 H     410  BAB410      0.3006
     40  HN2       15.9920  -14.0750   11.1780 H     410  BAB410      0.3006
     41  HN5       10.7030  -13.6460   23.4660 H     410  BAB410      0.3009
     42  HN6        9.8150  -13.0040   24.7530 H     410  BAB410      0.3009
@<TRIPOS>BOND
     1    40    22    1
     2    37    23    1
     3    22    39    1
     4    22    20    2
     5    23    36    1
     6    23    20    1
     7    20    14    1
     8    14    15    1
     9    14    19    1
    10    33    15    1
    11    35    19    1
    12    15    16    2
    13    19    18    2
    14    16    34    1
    15    16    17    1
    16    18    17    1
    17    18    25    1
    18    17    24    2
    19    38    25    1
    20    25    21    1
    21    24    21    2
    22    21     9    1
    23     9    29    1
    24     9    30    1
    25     9     8    1
    26    12     8    2
    27    12     4    2
    28     8    13    2
    29    27     3    1
    30     4     3   ar
    31     4     5   ar
    32     3     2   ar
    33    13     5    2
    34     5     6   ar
    35     2    26    1
    36     2     1   ar
    37     6     1   ar
    38     6    28    1
    39     1     7    1
    40    41    10    1
    41     7    10    2
    42     7    11    1
    43    10    42    1
    44    31    11    1
    45    11    32    1
