@<TRIPOS>MOLECULE
1c1w_BAH_H_1.pdb
 43 46 0 0 0
SMALL
GASTEIGER

@<TRIPOS>ATOM
      1  C1        12.1810  -11.7460   22.9370 C.ar  410  BAH410      0.0640
      2  C2        12.7040  -10.5720   22.3420 C.ar  410  BAH410     -0.0438
      3  C3        13.7650  -10.6160   21.4130 C.ar  410  BAH410     -0.0194
      4  C4        14.2680  -11.8680   21.1140 C.ar  410  BAH410      0.1650
      5  C5        13.7720  -12.9750   21.6780 C.ar  410  BAH410      0.1657
      6  C6        12.7470  -12.9680   22.5760 C.ar  410  BAH410     -0.0055
      7  C7        11.1550  -11.7450   23.8610 C.2   410  BAH410      0.2663
      8  C8        15.3030  -13.5540   20.3870 C.1   410  BAH410      0.1772
      9  C9        16.2850  -14.5170   19.6170 C.3   410  BAH410      0.3705
     10  N1        10.4060  -12.8100   23.9140 N.2   410  BAH410     -0.2884
     11  N2        10.9680  -10.7140   24.6570 N.pl3 410  BAH410     -0.2497
     12  N3        15.2280  -12.2420   20.3070 N.2   410  BAH410     -0.3373
     13  N4        14.4160  -14.0100   21.2240 N.2   410  BAH410     -0.3373
     14  C1'       16.5430  -12.7590   13.9800 C.3   410  BAH410      0.1307
     15  C2'       17.2110  -11.6880   14.6340 C.2   410  BAH410     -0.0581
     16  C3'       17.4270  -11.6760   16.0000 C.2   410  BAH410     -0.0250
     17  C4'       16.9660  -12.7520   16.6870 C.2   410  BAH410      0.1367
     18  C5'       16.3250  -13.7960   16.1310 C.2   410  BAH410      0.0684
     19  C6'       16.0900  -13.8480   14.7750 C.2   410  BAH410     -0.0368
     20  C7'       16.3380  -12.7130   12.6070 C.2   410  BAH410      0.2498
     21  C8'       16.4570  -14.0430   18.1990 C.2   410  BAH410      0.2310
     22  N1'       16.0970  -13.8370   11.9740 N.2   410  BAH410     -0.2916
     23  N2'       16.3730  -11.5440   12.0000 N.pl3 410  BAH410     -0.2528
     24  N3'       17.0410  -12.9300   17.9590 N.2   410  BAH410     -0.3845
     25  N4'       16.0150  -14.6050   17.1150 N.pl3 410  BAH410     -0.2854
     26  O91       15.7050  -15.8050   19.4560 O.3   410  BAH410     -0.1679
     27  O92       17.5660  -14.5430   20.2280 O.3   410  BAH410     -0.3440
     28  HC2       12.2720   -9.6160   22.6040 H     410  BAH410      0.0627
     29  HC3       14.1480   -9.7150   20.9600 H     410  BAH410      0.0651
     30  HC6       12.3780  -13.8900   22.9920 H     410  BAH410      0.0659
     31 HN11       10.6160  -13.5920   23.3070 H     410  BAH410      0.3009
     32 HN12        9.6730  -12.9370   24.5600 H     410  BAH410      0.3009
     33 HN21       11.6120   -9.9430   24.5940 H     410  BAH410      0.2883
     34 HN22       10.2710  -10.6590   25.3640 H     410  BAH410      0.2883
     35 HC2'       17.5660  -10.8400   14.0690 H     410  BAH410      0.0588
     36 HC3'       17.9300  -10.8620   16.4900 H     410  BAH410      0.0647
     37 HC6'       15.5810  -14.6790   14.3280 H     410  BAH410      0.0606
     38 H1'1       16.0580  -14.6930   12.4960 H     410  BAH410      0.3006
     39 H1'2       15.9120  -13.8830   10.9930 H     410  BAH410      0.3006
     40 H2'1       16.4720  -10.6940   12.5450 H     410  BAH410      0.2880
     41 H2'2       16.1970  -11.4190   11.0230 H     410  BAH410      0.2880
     42 HN4'       15.5650  -15.4700   17.1240 H     410  BAH410      0.1545
     43  H92       18.1700  -14.3590   19.5080 H     410  BAH410      0.2144
@<TRIPOS>BOND
     1    39    22    1
     2    41    23    1
     3    22    38    1
     4    22    20    2
     5    23    40    1
     6    23    20    1
     7    20    14    1
     8    14    15    1
     9    14    19    1
    10    35    15    1
    11    37    19    1
    12    15    16    2
    13    19    18    2
    14    16    36    1
    15    16    17    1
    16    18    17    1
    17    18    25    1
    18    17    24    2
    19    25    42    1
    20    25    21    1
    21    24    21    2
    22    21     9    1
    23    26     9    1
    24    43    27    1
    25     9    27    1
    26     9     8    1
    27    12     8    2
    28    12     4    2
    29     8    13    2
    30    29     3    1
    31     4     3   ar
    32     4     5   ar
    33    13     5    2
    34     3     2   ar
    35     5     6   ar
    36     2    28    1
    37     2     1   ar
    38     6     1   ar
    39     6    30    1
    40     1     7    1
    41    31    10    1
    42     7    10    2
    43     7    11    1
    44    10    32    1
    45    33    11    1
    46    11    34    1
