@<TRIPOS>MOLECULE
1c1x_HFA_A_1.pdb
 12 12 0 0 0
SMALL
GASTEIGER

@<TRIPOS>ATOM
      1  OA        13.9500   40.5150  -16.8770 O.3   361  HFA361     -0.2105
      2  CA        14.3130   41.4770  -15.8220 C.3   361  HFA361      0.2583
      3  C         15.4150   40.9860  -14.8790 C.2   361  HFA361      0.3950
      4  O         16.0250   39.8740  -15.0520 O.co2 361  HFA361     -0.2428
      5  CB        13.1110   41.9670  -14.9940 C.3   361  HFA361      0.0710
      6  CG        12.2770   40.8630  -14.3570 C.ar  361  HFA361     -0.0190
      7  CD1       10.9330   40.7660  -14.7340 C.ar  361  HFA361     -0.0042
      8  CD2       12.7630   40.0250  -13.3350 C.ar  361  HFA361     -0.0042
      9  CE1       10.0930   39.8320  -14.1300 C.ar  361  HFA361     -0.0003
     10  CE2       11.9190   39.1190  -12.6860 C.ar  361  HFA361     -0.0003
     11  CZ        10.5910   39.0180  -13.1110 C.ar  361  HFA361     -0.0000
     12  OXT       15.7900   41.7480  -13.9440 O.co2 361  HFA361     -0.2428
@<TRIPOS>BOND
     1     1     2    1
     2     2     5    1
     3     2     3    1
     4     4     3   ar
     5     5     6    1
     6     3    12   ar
     7     7     6   ar
     8     7     9   ar
     9     6     8   ar
    10     9    11   ar
    11     8    10   ar
    12    11    10   ar
