@<TRIPOS>MOLECULE
1c1x_NAD_A_1.pdb
 44 48 0 0 0
SMALL
GASTEIGER

@<TRIPOS>ATOM
      1  PA        19.4210   51.9990  -19.0080 P.3   360  NAD360      0.2189
      2  O1A       18.9120   52.7300  -17.7990 O.3   360  NAD360     -0.4371
      3  O2A       18.6770   52.2320  -20.2690 O.2   360  NAD360     -0.5170
      4  O5B       20.9390   52.3960  -19.3050 O.3   360  NAD360     -0.3112
      5  C5B       21.6020   51.8980  -20.4680 C.3   360  NAD360      0.1813
      6  C4B       22.6670   52.9220  -20.5840 C.3   360  NAD360      0.1821
      7  O4B       23.6580   52.5430  -21.5730 O.3   360  NAD360     -0.3135
      8  C3B       22.0830   54.2440  -21.0180 C.3   360  NAD360      0.2184
      9  O3B       22.7820   55.2640  -20.2990 O.3   360  NAD360     -0.2174
     10  C2B       22.4230   54.1740  -22.4930 C.3   360  NAD360      0.2570
     11  O2B       22.4990   55.4990  -23.0290 O.3   360  NAD360     -0.2130
     12  C1B       23.8300   53.5700  -22.4600 C.3   360  NAD360      0.3186
     13  N9A       24.2180   53.0220  -23.7510 N.pl3 360  NAD360     -0.1439
     14  C8A       23.4050   52.5110  -24.7450 C.3   360  NAD360      0.3377
     15  N7A       24.0900   51.9660  -25.7790 N.2   360  NAD360     -0.2095
     16  C5A       25.4150   52.1730  -25.4110 C.2   360  NAD360      0.2526
     17  C6A       26.5930   51.8140  -26.0560 C.2   360  NAD360      0.4393
     18  N6A       26.5890   51.2050  -27.2370 N.pl3 360  NAD360      0.2180
     19  N1A       27.7370   52.1670  -25.4110 N.2   360  NAD360      0.0021
     20  C2A       27.6680   52.7990  -24.2190 C.3   360  NAD360      0.5254
     21  N3A       26.6110   53.1690  -23.5600 N.2   360  NAD360     -0.0055
     22  C4A       25.5150   52.8560  -24.2080 C.2   360  NAD360      0.3518
     23  O3        19.4700   50.4750  -18.6950 O.3   360  NAD360     -0.2703
     24  PN        19.7500   49.7850  -17.2520 P.3   360  NAD360      0.2189
     25  O1N       18.4930   49.5210  -16.5060 O.3   360  NAD360     -0.4371
     26  O2N       20.7400   50.6830  -16.5530 O.2   360  NAD360     -0.5170
     27  O5D       20.2600   48.3070  -17.7540 O.3   360  NAD360     -0.3112
     28  C5D       21.6020   48.1160  -18.2870 C.3   360  NAD360      0.1813
     29  C4D       21.7830   46.6690  -18.7270 C.3   360  NAD360      0.1799
     30  O4D       21.5970   45.8130  -17.5500 O.3   360  NAD360     -0.3327
     31  C3D       20.8050   46.1580  -19.8120 C.3   360  NAD360      0.2158
     32  O3D       21.4050   45.2080  -20.7000 O.3   360  NAD360     -0.2175
     33  C2D       19.7550   45.4570  -18.9330 C.3   360  NAD360      0.2309
     34  O2D       19.0770   44.4770  -19.7480 O.3   360  NAD360     -0.2158
     35  C1D       20.6100   44.8380  -17.8350 C.3   360  NAD360      0.2263
     36  N1N       19.8560   44.4670  -16.6200 N.pl3 360  NAD360     -0.2787
     37  C2N       19.2890   45.4900  -15.9730 C.3   360  NAD360      0.1244
     38  C3N       18.6030   45.3340  -14.8380 C.2   360  NAD360      0.0544
     39  C7N       17.8350   46.3790  -13.9480 C.2   360  NAD360      0.2818
     40  O7N       17.2690   46.1580  -12.8990 O.2   360  NAD360     -0.2670
     41  N7N       17.8750   47.6340  -14.4940 N.am  360  NAD360     -0.0839
     42  C4N       18.4940   44.0320  -14.2620 C.2   360  NAD360      0.0033
     43  C5N       19.1550   43.0250  -15.0160 C.2   360  NAD360      0.0157
     44  C6N       19.8170   43.1580  -16.1860 C.2   360  NAD360      0.0633
@<TRIPOS>BOND
     1    18    17    1
     2    17    19    2
     3    17    16    1
     4    15    16    2
     5    15    14    1
     6    19    20    1
     7    16    22    1
     8    14    13    1
     9    20    21    1
    10    22    13    1
    11    22    21    2
    12    13    12    1
    13    11    10    1
    14    10    12    1
    15    10     8    1
    16    12     7    1
    17     7     6    1
    18     8     6    1
    19     8     9    1
    20    32    31    1
    21     6     5    1
    22     5     4    1
    23     3     1    2
    24    31    33    1
    25    31    29    1
    26    34    33    1
    27     4     1    1
    28     1    23    1
    29     1     2    1
    30    33    35    1
    31    29    28    1
    32    29    30    1
    33    23    24    1
    34    28    27    1
    35    35    30    1
    36    35    36    1
    37    27    24    1
    38    24    26    2
    39    24    25    1
    40    36    44    1
    41    36    37    1
    42    44    43    2
    43    37    38    1
    44    43    42    1
    45    38    42    2
    46    38    39    1
    47    41    39   am
    48    39    40    2
