@<TRIPOS>MOLECULE
1c1y_GTP_A_1.pdb
 32 34 0 0 0
SMALL
GASTEIGER

@<TRIPOS>ATOM
      1  PG         1.3860   27.4290   32.3000 P.3   170  GTP170      0.5373
      2  O1G        0.7750   28.4450   33.2190 O.3   170  GTP170     -0.1143
      3  O2G        1.3260   26.0710   32.8690 O.3   170  GTP170     -0.1143
      4  O3G        2.8790   27.8770   32.1330 O.2   170  GTP170     -0.2221
      5  O3B        0.6610   27.6060   30.7890 O.3   170  GTP170     -0.2258
      6  PB         0.7010   26.4910   29.5880 P.3   170  GTP170      0.2277
      7  O1B        1.8940   26.8580   28.8280 O.2   170  GTP170     -0.5168
      8  O2B        0.7990   25.1600   30.0980 O.3   170  GTP170     -0.4368
      9  O3A       -0.5620   26.5180   28.6250 O.3   170  GTP170     -0.2700
     10  PA        -1.9860   25.6620   28.7280 P.3   170  GTP170      0.2189
     11  O1A       -1.7880   24.3760   27.9870 O.2   170  GTP170     -0.5170
     12  O2A       -2.5750   25.6970   30.0730 O.3   170  GTP170     -0.4371
     13  O5'       -3.0160   26.4610   27.8380 O.3   170  GTP170     -0.3112
     14  C5'       -3.3810   27.8250   28.0600 C.3   170  GTP170      0.1813
     15  C4'       -4.4450   28.1550   27.0420 C.3   170  GTP170      0.1799
     16  O4'       -4.1100   28.0550   25.6060 O.3   170  GTP170     -0.3326
     17  C3'       -5.6040   27.1880   27.3280 C.3   170  GTP170      0.2158
     18  O3'       -6.7850   27.9870   27.4790 O.3   170  GTP170     -0.2175
     19  C2'       -5.5930   26.2180   26.1290 C.3   170  GTP170      0.2310
     20  O2'       -6.9110   25.6360   25.8280 O.3   170  GTP170     -0.2158
     21  C1'       -5.0170   27.1180   25.0260 C.3   170  GTP170      0.2293
     22  N9        -4.2190   26.4330   24.0580 N.pl3 170  GTP170     -0.2354
     23  C8        -3.1340   25.6480   24.2110 C.3   170  GTP170      0.2246
     24  N7        -2.6210   25.1560   23.1220 N.2   170  GTP170     -0.2322
     25  C5        -3.4610   25.6730   22.1530 C.2   170  GTP170      0.2182
     26  C6        -3.4620   25.5220   20.7400 C.1   170  GTP170      0.2372
     27  O6        -2.7100   24.8960   20.0350 O.2   170  GTP170     -0.2069
     28  N1        -4.4910   26.2150   20.1260 N.2   170  GTP170     -0.2485
     29  C2        -5.4400   26.9890   20.8030 C.1   170  GTP170      0.2531
     30  N2        -6.3800   27.6330   20.0870 N.pl3 170  GTP170     -0.0226
     31  N3        -5.4350   27.1240   22.1290 N.2   170  GTP170     -0.3074
     32  C4        -4.4310   26.4470   22.7390 C.2   170  GTP170      0.2300
@<TRIPOS>BOND
     1    27    26    2
     2    30    29    1
     3    28    26    2
     4    28    29    2
     5    26    25    1
     6    29    31    2
     7    31    32    2
     8    25    32    1
     9    25    24    2
    10    32    22    1
    11    24    23    1
    12    22    23    1
    13    22    21    1
    14    21    16    1
    15    21    19    1
    16    16    15    1
    17    20    19    1
    18    19    17    1
    19    15    17    1
    20    15    14    1
    21    17    18    1
    22    13    14    1
    23    13    10    1
    24    11    10    2
    25     9    10    1
    26     9     6    1
    27    10    12    1
    28     7     6    2
    29     6     8    1
    30     6     5    1
    31     5     1    1
    32     4     1    2
    33     1     3    1
    34     1     2    1
