@<TRIPOS>MOLECULE
1c22_MF3_A_1.pdb
 12 11 0 0 0
SMALL
GASTEIGER

@<TRIPOS>ATOM
      1  N         20.2200  -15.5380    9.4680 N.3   300  MF3300     -0.1208
      2  CA        20.5450  -14.1990    8.9190 C.3   300  MF3300      0.1952
      3  C         19.6090  -13.7650    7.8150 C.2   300  MF3300      0.3819
      4  O         18.4100  -13.8380    8.0890 O.co2 300  MF3300     -0.2441
      5  CB        21.9790  -14.0060    8.3760 C.3   300  MF3300      0.0425
      6  CG        23.0860  -14.4900    9.2870 C.3   300  MF3300      0.0675
      7  SD        24.6480  -14.6380    8.3720 S.3   300  MF3300     -0.0414
      8  CE        25.7520  -13.7950    9.4700 C.3   300  MF3300      0.4438
      9  OXT       20.1150  -13.2900    6.7720 O.co2 300  MF3300     -0.2441
     10  FZ1       25.3230  -12.5080    9.5600 F     300  MF3300     -0.1602
     11  FZ2       26.8770  -13.5200    8.7590 F     300  MF3300     -0.1602
     12  FZ3       25.7830  -14.5580   10.5960 F     300  MF3300     -0.1602
@<TRIPOS>BOND
     1     9     3   ar
     2     3     4   ar
     3     3     2    1
     4     7     6    1
     5     7     8    1
     6     5     2    1
     7     5     6    1
     8    11     8    1
     9     2     1    1
    10     8    10    1
    11     8    12    1
