@<TRIPOS>MOLECULE
1c23_MPH_A_1.pdb
 10 9 0 0 0
SMALL
GASTEIGER

@<TRIPOS>ATOM
      1  N         20.2410  -15.4090    9.2010 N.3   300  MPH300     -0.1250
      2  CA        20.7900  -14.0690    8.9490 C.3   300  MPH300      0.1441
      3  CB        22.2070  -14.1050    8.3270 C.3   300  MPH300      0.0381
      4  CG        23.2850  -14.5200    9.3330 C.3   300  MPH300      0.0595
      5  SD        24.8360  -14.5730    8.4250 S.3   300  MPH300     -0.1393
      6  CE        25.9710  -14.3630    9.8060 C.3   300  MPH300      0.0692
      7  O1        18.3100  -13.3570    8.4650 O.3   300  MPH300     -0.3562
      8  O2        19.9160  -13.7360    6.4000 O.2   300  MPH300     -0.4587
      9  O3        20.0800  -11.6150    7.9510 O.3   300  MPH300     -0.3562
     10  P         19.7640  -13.1570    7.8650 P.3   300  MPH300      0.1345
@<TRIPOS>BOND
     1     8    10    2
     2    10     9    1
     3    10     7    1
     4    10     2    1
     5     3     2    1
     6     3     4    1
     7     5     4    1
     8     5     6    1
     9     2     1    1
