@<TRIPOS>MOLECULE
1c27_NLP_A_1.pdb
 10 9 0 0 0
SMALL
GASTEIGER

@<TRIPOS>ATOM
      1  N         20.3340  -15.2650    9.2340 N.3   300  NLP300     -0.1251
      2  CA        20.8950  -13.9080    8.8830 C.3   300  NLP300      0.1432
      3  CB        22.2400  -14.0100    8.1620 C.3   300  NLP300      0.0265
      4  CG        23.5040  -14.1630    9.1070 C.3   300  NLP300      0.0020
      5  CD        24.7730  -13.5860    8.4590 C.3   300  NLP300      0.0001
      6  CE        25.8620  -14.4820    9.0800 C.3   300  NLP300      0.0000
      7  P         19.7920  -13.0050    7.8390 P.3   300  NLP300      0.1344
      8  O1        18.3240  -13.1610    8.4490 O.3   300  NLP300     -0.3562
      9  O2        19.9080  -13.5830    6.3490 O.2   300  NLP300     -0.4587
     10  O3        20.1260  -11.4650    7.8850 O.3   300  NLP300     -0.3562
@<TRIPOS>BOND
     1     9     7    2
     2     7    10    1
     3     7     8    1
     4     7     2    1
     5     3     2    1
     6     3     4    1
     7     5     6    1
     8     5     4    1
     9     2     1    1
