@<TRIPOS>MOLECULE
1c29_PLP_B_1.pdb
 15 15 0 0 0
SMALL
GASTEIGER

@<TRIPOS>ATOM
      1  N1        84.1400   13.9890   12.0100 N.2   900  PLP900     -0.2505
      2  C2        84.2470   14.3450   10.6820 C.2   900  PLP900      0.0675
      3  C2A       85.5130   14.2040    9.9150 C.3   900  PLP900      0.0499
      4  C3        83.1290   14.8460   10.0600 C.3   900  PLP900      0.1913
      5  O3        83.3060   15.2640    8.7380 O.3   900  PLP900     -0.2167
      6  C4        81.8890   14.9900   10.7220 C.3   900  PLP900      0.0581
      7  C4A       80.9130   15.0540    9.6820 C.3   900  PLP900      0.0075
      8  C5        81.8950   14.6340   12.0870 C.2   900  PLP900      0.0073
      9  C6        82.9840   14.1410   12.6960 C.2   900  PLP900      0.0921
     10  C5A       80.7530   14.8730   13.0880 C.3   900  PLP900      0.1776
     11  O4P       80.3770   13.6270   13.3300 O.3   900  PLP900     -0.2656
     12  P         79.3480   12.6350   13.8450 P.3   900  PLP900      0.5329
     13  O1P       78.0610   12.7250   13.1650 O.2   900  PLP900     -0.2224
     14  O2P       80.1060   11.4130   13.6010 O.3   900  PLP900     -0.1145
     15  O3P       79.4890   13.0190   15.2290 O.3   900  PLP900     -0.1145
@<TRIPOS>BOND
     1     5     4    1
     2     7     6    1
     3     3     2    1
     4     4     2    1
     5     4     6    1
     6     2     1    2
     7     6     8    1
     8     1     9    1
     9     8     9    2
    10     8    10    1
    11    10    11    1
    12    13    12    2
    13    11    12    1
    14    14    12    1
    15    12    15    1
