@<TRIPOS>MOLECULE
1c29_HE1_A_1.pdb
 16 16 0 0 0
SMALL
GASTEIGER

@<TRIPOS>ATOM
      1  P1        47.9710   29.1420    9.8220 P.3   270  HE1270      0.1393
      2  O1        48.2770   28.2420    8.5310 O.2   270  HE1270     -0.4557
      3  O2        49.1540   30.1860   10.0580 O.3   270  HE1270     -0.3542
      4  O3        46.5790   29.9440    9.6730 O.3   270  HE1270     -0.3542
      5  C1        47.8760   28.1660   11.2010 C.2   270  HE1270      0.0269
      6  C2        47.8940   28.6370   12.4270 C.2   270  HE1270     -0.0224
      7  C3        48.8170   28.2050   14.6670 C.3   270  HE1270      0.0669
      8  C4        47.8010   27.8110   13.6360 C.3   270  HE1270      0.0381
      9  S1        48.7110   26.9190   15.8920 S.3   270  HE1270     -0.1102
     10  OH        51.7340   27.1470   15.3740 O.3   270  HE1270     -0.2860
     11  C5        51.4960   23.5420   14.6870 C.ar  270  HE1270      0.0033
     12  C6        52.0130   24.8370   14.8560 C.ar  270  HE1270      0.0425
     13  C7        51.1830   25.8930   15.2230 C.ar  270  HE1270      0.2013
     14  C8        49.8190   25.6440   15.4280 C.ar  270  HE1270      0.0642
     15  C9        49.2850   24.3650   15.2630 C.ar  270  HE1270      0.0094
     16  C10       50.1300   23.3050   14.8900 C.ar  270  HE1270      0.0007
@<TRIPOS>BOND
     1     2     1    2
     2     4     1    1
     3     1     3    1
     4     1     5    1
     5     5     6    2
     6     6     8    1
     7     8     7    1
     8     7     9    1
     9    11    12   ar
    10    11    16   ar
    11    12    13   ar
    12    16    15   ar
    13    13    10    1
    14    13    14   ar
    15    15    14   ar
    16    14     9    1
