@<TRIPOS>MOLECULE
1c2d_BAK_A_1.pdb
 41 44 0 0 0
SMALL
GASTEIGER

@<TRIPOS>ATOM
      1  C1        45.0290   19.5220   52.8120 C.ar  246  BAK246      0.0640
      2  C2        44.5390   19.1090   51.5300 C.ar  246  BAK246     -0.0438
      3  C3        44.2720   20.0300   50.5070 C.ar  246  BAK246     -0.0194
      4  C4        44.5030   21.3550   50.8160 C.ar  246  BAK246      0.1652
      5  C5        44.9540   21.7530   52.0140 C.ar  246  BAK246      0.1660
      6  C6        45.2280   20.9000   53.0160 C.ar  246  BAK246     -0.0055
      7  C7        45.3480   18.6250   53.8490 C.2   246  BAK246      0.2663
      8  C8        44.7100   23.4320   50.8380 C.1   246  BAK246      0.1829
      9  C9        44.7010   24.7910   50.4000 C.2   246  BAK246      0.3230
     10  N1        46.0400   19.0650   54.8700 N.pl3 246  BAK246     -0.2497
     11  N2        44.9790   17.3710   53.8100 N.2   246  BAK246     -0.2884
     12  N3        44.3580   22.4250   50.0780 N.2   246  BAK246     -0.3353
     13  N4        45.0840   23.0500   52.0300 N.2   246  BAK246     -0.3353
     14  C1'       43.4010   27.2900   45.3590 C.3   246  BAK246      0.1307
     15  C2'       43.3870   25.9110   44.9370 C.2   246  BAK246     -0.0581
     16  C3'       43.6640   24.8620   45.8220 C.2   246  BAK246     -0.0249
     17  C4'       43.9540   25.2330   47.1070 C.2   246  BAK246      0.1370
     18  C5'       43.9770   26.5210   47.5370 C.2   246  BAK246      0.0685
     19  C6'       43.7090   27.5820   46.7150 C.2   246  BAK246     -0.0368
     20  C7'       43.1260   28.3200   44.4690 C.2   246  BAK246      0.2498
     21  C8'       44.4350   25.2500   49.1110 C.2   246  BAK246      0.2350
     22  N1'       42.9220   29.5410   44.8950 N.pl3 246  BAK246     -0.2528
     23  N2'       43.0780   28.0430   43.2000 N.2   246  BAK246     -0.2916
     24  N3'       44.2430   24.4580   48.1090 N.2   246  BAK246     -0.3822
     25  N4'       44.2880   26.5040   48.8080 N.pl3 246  BAK246     -0.2836
     26  O9        44.9210   25.6520   51.2370 O.2   246  BAK246     -0.2692
     27  H2        44.3740   18.0610   51.3310 H     246  BAK246      0.0627
     28  H3        43.9010   19.7210   49.5450 H     246  BAK246      0.0651
     29  H6        45.5880   21.3000   53.9470 H     246  BAK246      0.0659
     30 HH11       46.4020   20.0060   54.8620 H     246  BAK246      0.2883
     31 HH12       46.2730   18.5170   55.6760 H     246  BAK246      0.2883
     32 HH21       44.4860   17.0130   53.0010 H     246  BAK246      0.3009
     33 HH22       45.1940   16.7260   54.5380 H     246  BAK246      0.3009
     34  H2'       43.1480   25.6540   43.9130 H     246  BAK246      0.0588
     35  H3'       43.6570   23.8280   45.5140 H     246  BAK246      0.0647
     36  H6'       43.7310   28.5890   47.0970 H     246  BAK246      0.0606
     37 H1'1       42.9710   29.7380   45.8800 H     246  BAK246      0.2880
     38 H1'2       42.7240   30.3200   44.2960 H     246  BAK246      0.2880
     39 H2'1       43.0670   27.0790   42.9340 H     246  BAK246      0.3006
     40 H2'2       42.8650   28.7280   42.5010 H     246  BAK246      0.3006
     41 HN4'       44.4040   27.2530   49.4400 H     246  BAK246      0.1547
@<TRIPOS>BOND
     1    40    23    1
     2    39    23    1
     3    23    20    2
     4    34    15    1
     5    38    22    1
     6    20    22    1
     7    20    14    1
     8    22    37    1
     9    15    14    1
    10    15    16    2
    11    14    19    1
    12    35    16    1
    13    16    17    1
    14    19    36    1
    15    19    18    2
    16    17    18    1
    17    17    24    2
    18    18    25    1
    19    24    21    2
    20    25    21    1
    21    25    41    1
    22    21     9    1
    23    28     3    1
    24    12     4    2
    25    12     8    2
    26     9     8    1
    27     9    26    2
    28     3     4   ar
    29     3     2   ar
    30     4     5   ar
    31     8    13    2
    32    27     2    1
    33     2     1   ar
    34     5    13    2
    35     5     6   ar
    36     1     6   ar
    37     1     7    1
    38    32    11    1
    39     6    29    1
    40    11     7    2
    41    11    33    1
    42     7    10    1
    43    30    10    1
    44    10    31    1
