@<TRIPOS>MOLECULE
1c2e_BAK_A_1.pdb
 42 45 0 0 0
SMALL
GASTEIGER

@<TRIPOS>ATOM
      1  C1        45.1920   19.6000   52.8320 C.3   246  BAK246      0.1307
      2  C2        44.6770   19.1830   51.5700 C.2   246  BAK246     -0.0581
      3  C3        44.3400   20.1120   50.5760 C.2   246  BAK246     -0.0249
      4  C4        44.5440   21.4620   50.8790 C.2   246  BAK246      0.1370
      5  C5        45.0320   21.8770   52.0640 C.2   246  BAK246      0.0685
      6  C6        45.3640   20.9920   53.0510 C.2   246  BAK246     -0.0368
      7  C7        45.5380   18.6850   53.8560 C.2   246  BAK246      0.2498
      8  C8        44.6710   23.5690   50.8730 C.2   246  BAK246      0.2270
      9  C9        44.6620   24.9480   50.4260 C.2   246  BAK246      0.2826
     10  N1        46.2770   19.1150   54.8570 N.pl3 246  BAK246     -0.2528
     11  N2        45.1460   17.4270   53.8050 N.2   246  BAK246     -0.2916
     12  N3        44.3440   22.5340   50.1620 N.2   246  BAK246     -0.3828
     13  N4        45.0950   23.1970   52.0530 N.pl3 246  BAK246     -0.2841
     14  C1'       43.5400   27.4080   45.2130 C.3   246  BAK246      0.1307
     15  C2'       43.4740   26.0320   44.8460 C.2   246  BAK246     -0.0581
     16  C3'       43.7120   25.0130   45.7790 C.2   246  BAK246     -0.0249
     17  C4'       43.9950   25.4200   47.0640 C.2   246  BAK246      0.1370
     18  C5'       44.0660   26.7020   47.4710 C.2   246  BAK246      0.0685
     19  C6'       43.8440   27.7380   46.5810 C.2   246  BAK246     -0.0368
     20  C7'       43.2870   28.4190   44.2860 C.2   246  BAK246      0.2498
     21  C8'       44.4190   25.4490   49.1140 C.2   246  BAK246      0.2270
     22  N1'       43.8940   29.5730   44.4560 N.pl3 246  BAK246     -0.2528
     23  N2'       42.4570   28.1910   43.2890 N.2   246  BAK246     -0.2916
     24  N3'       44.2230   24.6780   48.0950 N.2   246  BAK246     -0.3828
     25  N4'       44.3380   26.7010   48.7700 N.pl3 246  BAK246     -0.2841
     26  O9        44.8240   25.8180   51.2600 O.2   246  BAK246     -0.2782
     27  H2        44.5350   18.1300   51.3740 H     246  BAK246      0.0588
     28  H3        43.9530   19.7880   49.6220 H     246  BAK246      0.0647
     29  H6        45.7410   21.3750   53.9820 H     246  BAK246      0.0606
     30 HH11       46.6230   20.0620   54.8550 H     246  BAK246      0.2880
     31 HH12       46.5070   18.5700   55.6640 H     246  BAK246      0.2880
     32 HH21       44.6110   17.0860   53.0200 H     246  BAK246      0.3006
     33 HH22       45.3760   16.7700   54.5130 H     246  BAK246      0.3006
     34  HN4       45.4180   23.8260   52.7610 H     246  BAK246      0.1547
     35  H2'       43.2560   25.7520   43.8260 H     246  BAK246      0.0588
     36  H3'       43.6690   23.9680   45.5060 H     246  BAK246      0.0647
     37  H6'       43.9060   28.7650   46.9170 H     246  BAK246      0.0606
     38 H1'1       44.5420   29.6570   45.2210 H     246  BAK246      0.2880
     39 H1'2       43.8060   30.3980   43.8830 H     246  BAK246      0.2880
     40 H2'1       41.9930   27.3000   43.2240 H     246  BAK246      0.3006
     41 H2'2       42.1740   28.9090   42.6500 H     246  BAK246      0.3006
     42 HN4'       44.4740   27.4480   49.3970 H     246  BAK246      0.1547
@<TRIPOS>BOND
     1    41    23    1
     2    40    23    1
     3    23    20    2
     4    35    15    1
     5    39    22    1
     6    20    22    1
     7    20    14    1
     8    22    38    1
     9    15    14    1
    10    15    16    2
    11    14    19    1
    12    36    16    1
    13    16    17    1
    14    19    37    1
    15    19    18    2
    16    17    18    1
    17    17    24    2
    18    18    25    1
    19    24    21    2
    20    25    21    1
    21    25    42    1
    22    21     9    1
    23    28     3    1
    24    12     8    2
    25    12     4    2
    26     9     8    1
    27     9    26    2
    28     3     4    1
    29     3     2    2
    30     8    13    1
    31     4     5    1
    32    27     2    1
    33     2     1    1
    34    13     5    1
    35    13    34    1
    36     5     6    2
    37     1     6    1
    38     1     7    1
    39    32    11    1
    40     6    29    1
    41    11     7    2
    42    11    33    1
    43     7    10    1
    44    30    10    1
    45    10    31    1
