@<TRIPOS>MOLECULE
1c2f_BAH_A_1.pdb
 42 45 0 0 0
SMALL
GASTEIGER

@<TRIPOS>ATOM
      1  C1        45.2860   19.4800   52.8720 C.ar  246  BAH246      0.0640
      2  C2        44.7210   18.9690   51.6640 C.ar  246  BAH246     -0.0438
      3  C3        44.2800   19.8000   50.6500 C.ar  246  BAH246     -0.0194
      4  C4        44.4100   21.1570   50.8760 C.ar  246  BAH246      0.1650
      5  C5        44.9400   21.6530   51.9940 C.ar  246  BAH246      0.1658
      6  C6        45.3900   20.8810   53.0400 C.ar  246  BAH246     -0.0055
      7  C7        45.6940   18.6240   53.8760 C.2   246  BAH246      0.2663
      8  C8        44.3720   23.2560   50.7010 C.1   246  BAH246      0.1858
      9  C9        44.0670   24.7210   50.0720 C.3   246  BAH246      0.4057
     10  N1        46.4370   19.0750   54.8440 N.pl3 246  BAH246     -0.2497
     11  N2        45.3120   17.3770   53.8210 N.2   246  BAH246     -0.2884
     12  N3        44.0920   22.1470   50.1350 N.2   246  BAH246     -0.3368
     13  N4        44.9040   22.9370   51.8750 N.2   246  BAH246     -0.3367
     14  C1'       46.3780   26.3920   44.7780 C.ar  246  BAH246      0.0640
     15  C2'       45.5730   25.2650   44.3990 C.ar  246  BAH246     -0.0438
     16  C3'       44.8370   24.5240   45.3130 C.ar  246  BAH246     -0.0194
     17  C4'       44.9380   24.9470   46.5940 C.ar  246  BAH246      0.1650
     18  C5'       45.6600   25.9830   47.0180 C.ar  246  BAH246      0.1658
     19  C6'       46.4140   26.7610   46.1540 C.ar  246  BAH246     -0.0055
     20  C7'       47.0870   27.0960   43.8180 C.2   246  BAH246      0.2663
     21  C8'       44.6730   25.1100   48.6600 C.1   246  BAH246      0.1858
     22  N1'       47.8230   28.1110   44.1670 N.pl3 246  BAH246     -0.2497
     23  N2'       46.9960   26.7190   42.5740 N.2   246  BAH246     -0.2884
     24  N3'       44.3570   24.4500   47.6080 N.2   246  BAH246     -0.3368
     25  N4'       45.4830   26.0650   48.3070 N.2   246  BAH246     -0.3367
     26  O91       44.2410   25.7820   51.0080 O.3   246  BAH246     -0.1598
     27  O92       42.6710   24.6980   49.8160 O.3   246  BAH246     -0.3379
     28  HC2       44.6380   17.9050   51.5030 H     246  BAH246      0.0627
     29  HC3       43.8440   19.4110   49.7420 H     246  BAH246      0.0651
     30  HC6       45.8010   21.3260   53.9280 H     246  BAH246      0.0659
     31 HN11       46.7200   20.0400   54.8390 H     246  BAH246      0.2883
     32 HN12       46.6980   18.5480   55.6520 H     246  BAH246      0.2883
     33 HN21       44.7410   17.0440   53.0540 H     246  BAH246      0.3009
     34 HN22       45.5580   16.7220   54.5260 H     246  BAH246      0.3009
     35 HC2'       45.5140   24.9510   43.3690 H     246  BAH246      0.0627
     36 HC3'       44.2380   23.6770   45.0300 H     246  BAH246      0.0651
     37 HC6'       46.9950   27.6050   46.4960 H     246  BAH246      0.0659
     38 H1'1       47.8520   28.3690   45.1360 H     246  BAH246      0.2883
     39 H1'2       48.3080   28.7050   43.5180 H     246  BAH246      0.2883
     40 H2'1       46.4710   25.8940   42.3650 H     246  BAH246      0.3009
     41 H2'2       47.5720   27.1190   41.8590 H     246  BAH246      0.3009
     42  H92       42.2480   24.7820   50.6670 H     246  BAH246      0.2150
@<TRIPOS>BOND
     1    41    23    1
     2    40    23    1
     3    23    20    2
     4    35    15    1
     5    39    22    1
     6    20    22    1
     7    20    14    1
     8    22    38    1
     9    15    14   ar
    10    15    16   ar
    11    14    19   ar
    12    36    16    1
    13    16    17   ar
    14    19    37    1
    15    19    18   ar
    16    17    18   ar
    17    17    24    2
    18    18    25    2
    19    24    21    2
    20    25    21    2
    21    21     9    1
    22    29     3    1
    23    27     9    1
    24    27    42    1
    25     9     8    1
    26     9    26    1
    27    12     8    2
    28    12     4    2
    29     3     4   ar
    30     3     2   ar
    31     8    13    2
    32     4     5   ar
    33    28     2    1
    34     2     1   ar
    35    13     5    2
    36     5     6   ar
    37     1     6   ar
    38     1     7    1
    39     6    30    1
    40    33    11    1
    41    11     7    2
    42    11    34    1
    43     7    10    1
    44    31    10    1
    45    10    32    1
