@<TRIPOS>MOLECULE
1c2f_DMS_A_1.pdb
 10 9 0 0 0
SMALL
GASTEIGER

@<TRIPOS>ATOM
      1  S         37.9990   25.6030   56.9420 S.O   333  DMS333      0.0159
      2  O         37.6410   26.8200   56.6320 O.2   333  DMS333     -0.2577
      3  C1        36.6910   24.3650   57.0480 C.3   333  DMS333      0.0115
      4  C2        39.3070   24.7520   56.0380 C.3   333  DMS333      0.0115
      5  H11       35.8460   24.8390   57.5250 H     333  DMS333      0.0365
      6  H12       36.4090   24.0430   56.0590 H     333  DMS333      0.0365
      7  H13       37.0180   23.5300   57.6370 H     333  DMS333      0.0365
      8  H21       40.1540   25.4190   55.9590 H     333  DMS333      0.0365
      9  H22       39.5900   23.8940   56.6180 H     333  DMS333      0.0365
     10  H23       38.9850   24.4390   55.0570 H     333  DMS333      0.0365
@<TRIPOS>BOND
     1    10     4    1
     2     8     4    1
     3     4     9    1
     4     4     1    1
     5     6     3    1
     6     2     1    2
     7     1     3    1
     8     3     5    1
     9     3     7    1
