@<TRIPOS>MOLECULE
1c2g_BAH_A_1.pdb
 42 45 0 0 0
SMALL
GASTEIGER

@<TRIPOS>ATOM
      1  C1        45.2480   19.4430   52.7720 C.ar  246  BAH246      0.0640
      2  C2        44.6450   18.9650   51.5680 C.ar  246  BAH246     -0.0438
      3  C3        44.1930   19.8210   50.5600 C.ar  246  BAH246     -0.0194
      4  C4        44.3450   21.1690   50.7820 C.ar  246  BAH246      0.1650
      5  C5        44.9180   21.6490   51.9090 C.ar  246  BAH246      0.1658
      6  C6        45.3730   20.8450   52.9230 C.ar  246  BAH246     -0.0055
      7  C7        45.6750   18.5690   53.7800 C.2   246  BAH246      0.2663
      8  C8        44.3680   23.2580   50.6760 C.1   246  BAH246      0.1858
      9  C9        44.1500   24.7610   50.1670 C.3   246  BAH246      0.4057
     10  N1        46.4310   19.0160   54.7430 N.pl3 246  BAH246     -0.2497
     11  N2        45.2950   17.3160   53.7390 N.2   246  BAH246     -0.2884
     12  N3        44.0090   22.1770   50.0100 N.2   246  BAH246     -0.3368
     13  N4        44.9230   22.9450   51.8330 N.2   246  BAH246     -0.3367
     14  C1'       46.2630   26.3710   44.7250 C.ar  246  BAH246      0.0640
     15  C2'       45.5130   25.1920   44.4080 C.ar  246  BAH246     -0.0438
     16  C3'       44.8180   24.4320   45.3570 C.ar  246  BAH246     -0.0194
     17  C4'       44.8800   24.8770   46.6500 C.ar  246  BAH246      0.1650
     18  C5'       45.5650   25.9880   47.0200 C.ar  246  BAH246      0.1658
     19  C6'       46.2750   26.7680   46.1020 C.ar  246  BAH246     -0.0055
     20  C7'       46.9550   27.0810   43.7040 C.2   246  BAH246      0.2663
     21  C8'       44.6510   25.0950   48.6960 C.1   246  BAH246      0.1858
     22  N1'       47.6010   28.1890   43.9590 N.pl3 246  BAH246     -0.2497
     23  N2'       46.9460   26.6170   42.4810 N.2   246  BAH246     -0.2884
     24  N3'       44.3180   24.3380   47.6910 N.2   246  BAH246     -0.3368
     25  N4'       45.4100   26.1110   48.3090 N.2   246  BAH246     -0.3367
     26  O91       44.7340   25.6450   51.1160 O.3   246  BAH246     -0.1598
     27  O92       42.7680   25.0840   50.1580 O.3   246  BAH246     -0.3379
     28  HC2       44.5440   17.9030   51.4210 H     246  BAH246      0.0627
     29  HC3       43.7390   19.4510   49.6550 H     246  BAH246      0.0651
     30  HC6       45.8180   21.2770   53.8050 H     246  BAH246      0.0659
     31 HN11       46.7260   19.9770   54.7170 H     246  BAH246      0.2883
     32 HN12       46.6890   18.5010   55.5580 H     246  BAH246      0.2883
     33 HN21       44.7130   16.9660   52.9890 H     246  BAH246      0.3009
     34 HN22       45.5460   16.6700   54.4510 H     246  BAH246      0.3009
     35 HC2'       45.4700   24.8610   43.3900 H     246  BAH246      0.0627
     36 HC3'       44.2630   23.5460   45.0950 H     246  BAH246      0.0651
     37 HC6'       46.8230   27.6400   46.4070 H     246  BAH246      0.0659
     38 H1'1       47.5460   28.5570   44.8880 H     246  BAH246      0.2883
     39 H1'2       48.1180   28.7230   43.2790 H     246  BAH246      0.2883
     40 H2'1       46.4600   25.7600   42.3190 H     246  BAH246      0.3009
     41 H2'2       47.5010   26.9990   41.7380 H     246  BAH246      0.3009
     42  H92       42.4350   24.8220   51.0170 H     246  BAH246      0.2150
@<TRIPOS>BOND
     1    41    23    1
     2    40    23    1
     3    23    20    2
     4    39    22    1
     5    35    15    1
     6    20    22    1
     7    20    14    1
     8    22    38    1
     9    15    14   ar
    10    15    16   ar
    11    14    19   ar
    12    36    16    1
    13    16    17   ar
    14    19    37    1
    15    19    18   ar
    16    17    18   ar
    17    17    24    2
    18    18    25    2
    19    24    21    2
    20    25    21    2
    21    21     9    1
    22    29     3    1
    23    12     8    2
    24    12     4    2
    25    27     9    1
    26    27    42    1
    27     9     8    1
    28     9    26    1
    29     3     4   ar
    30     3     2   ar
    31     8    13    2
    32     4     5   ar
    33    28     2    1
    34     2     1   ar
    35    13     5    2
    36     5     6   ar
    37     1     6   ar
    38     1     7    1
    39     6    30    1
    40    33    11    1
    41    11     7    2
    42    11    34    1
    43     7    10    1
    44    31    10    1
    45    10    32    1
