@<TRIPOS>MOLECULE
1c2g_DMS_A_1.pdb
 10 9 0 0 0
SMALL
GASTEIGER

@<TRIPOS>ATOM
      1  S         37.6420   25.1920   56.2570 S.O   333  DMS333      0.0159
      2  O         37.2420   26.3660   56.3100 O.2   333  DMS333     -0.2577
      3  C1        39.4510   25.1880   56.4350 C.3   333  DMS333      0.0115
      4  C2        36.9500   24.2510   57.6420 C.3   333  DMS333      0.0115
      5  H11       39.8990   25.7480   55.6140 H     333  DMS333      0.0365
      6  H12       39.7240   25.6520   57.3830 H     333  DMS333      0.0365
      7  H13       39.8160   24.1610   56.4150 H     333  DMS333      0.0365
      8  H21       35.8630   24.2350   57.5640 H     333  DMS333      0.0365
      9  H22       37.3310   23.2300   57.6150 H     333  DMS333      0.0365
     10  H23       37.2390   24.7210   58.5820 H     333  DMS333      0.0365
@<TRIPOS>BOND
     1     5     3    1
     2     1     2    2
     3     1     3    1
     4     1     4    1
     5     7     3    1
     6     3     6    1
     7     8     4    1
     8     9     4    1
     9     4    10    1
