@<TRIPOS>MOLECULE
1c2h_BAK_A_1.pdb
 40 43 0 0 0
SMALL
GASTEIGER

@<TRIPOS>ATOM
      1  C1        45.2280   19.5270   52.8430 C.ar  246  BAK246      0.0640
      2  C2        44.6410   19.1390   51.5950 C.ar  246  BAK246     -0.0438
      3  C3        44.2460   20.0500   50.6030 C.ar  246  BAK246     -0.0194
      4  C4        44.4750   21.3780   50.8950 C.ar  246  BAK246      0.1653
      5  C5        45.0190   21.7860   52.0810 C.ar  246  BAK246      0.1660
      6  C6        45.4100   20.9170   53.0610 C.ar  246  BAK246     -0.0055
      7  C7        45.6240   18.6100   53.8110 C.2   246  BAK246      0.2663
      8  C8        44.6340   23.4770   50.9050 C.1   246  BAK246      0.1913
      9  C9        44.6340   24.8540   50.3990 C.2   246  BAK246      0.3632
     10  N1        46.4050   19.0400   54.7530 N.pl3 246  BAK246     -0.2497
     11  N2        45.2290   17.3720   53.7400 N.2   246  BAK246     -0.2884
     12  N3        44.2490   22.4490   50.2060 N.2   246  BAK246     -0.3348
     13  N4        45.1190   23.0910   52.0810 N.2   246  BAK246     -0.3348
     14  C1'       43.5810   27.3120   45.1450 C.ar  246  BAK246      0.0640
     15  C2'       43.4160   25.9360   44.7890 C.ar  246  BAK246     -0.0438
     16  C3'       43.5720   24.9130   45.7370 C.ar  246  BAK246     -0.0194
     17  C4'       43.8880   25.3160   47.0190 C.ar  246  BAK246      0.1653
     18  C5'       44.0420   26.5900   47.3900 C.ar  246  BAK246      0.1660
     19  C6'       43.9070   27.6280   46.4980 C.ar  246  BAK246     -0.0055
     20  C7'       43.4530   28.3270   44.2190 C.2   246  BAK246      0.2663
     21  C8'       44.3640   25.4020   49.0750 C.1   246  BAK246      0.1913
     22  N1'       43.9140   29.5250   44.5360 N.pl3 246  BAK246     -0.2497
     23  N2'       42.8830   28.0460   43.0790 N.2   246  BAK246     -0.2884
     24  N3'       44.0970   24.6410   48.0850 N.2   246  BAK246     -0.3348
     25  N4'       44.3360   26.6480   48.6720 N.2   246  BAK246     -0.3348
     26  O9        44.8480   25.7320   51.2380 O.2   246  BAK246     -0.2602
     27  H2        44.4740   18.1140   51.3850 H     246  BAK246      0.0627
     28  H3        43.8020   19.7720   49.6540 H     246  BAK246      0.0651
     29  H6        45.8330   21.3060   53.9740 H     246  BAK246      0.0659
     30 HH11       46.7650   19.9800   54.7260 H     246  BAK246      0.2883
     31 HH12       46.6650   18.4720   55.5240 H     246  BAK246      0.2883
     32 HH21       44.6870   17.0540   52.9440 H     246  BAK246      0.3009
     33 HH22       45.5120   16.7060   54.4100 H     246  BAK246      0.3009
     34  H2'       43.1640   25.6690   43.7700 H     246  BAK246      0.0627
     35  H3'       43.4450   23.8880   45.4650 H     246  BAK246      0.0651
     36  H6'       44.0430   28.6490   46.8390 H     246  BAK246      0.0659
     37 H1'1       44.4270   29.6500   45.4020 H     246  BAK246      0.2883
     38 H1'2       43.8890   30.3260   43.9400 H     246  BAK246      0.2883
     39 H2'1       42.5100   27.1210   42.9360 H     246  BAK246      0.3009
     40 H2'2       42.6680   28.7220   42.3890 H     246  BAK246      0.3009
@<TRIPOS>BOND
     1    40    23    1
     2    39    23    1
     3    23    20    2
     4    34    15    1
     5    38    22    1
     6    20    22    1
     7    20    14    1
     8    22    37    1
     9    15    14   ar
    10    15    16   ar
    11    14    19   ar
    12    35    16    1
    13    16    17   ar
    14    19    36    1
    15    19    18   ar
    16    17    18   ar
    17    17    24    2
    18    18    25    2
    19    24    21    2
    20    25    21    2
    21    21     9    1
    22    28     3    1
    23    12     4    2
    24    12     8    2
    25     9     8    1
    26     9    26    2
    27     3     4   ar
    28     3     2   ar
    29     4     5   ar
    30     8    13    2
    31    27     2    1
    32     2     1   ar
    33    13     5    2
    34     5     6   ar
    35     1     6   ar
    36     1     7    1
    37    32    11    1
    38     6    29    1
    39    11     7    2
    40    11    33    1
    41     7    10    1
    42    30    10    1
    43    10    31    1
