@<TRIPOS>MOLECULE
1c2i_BAK_A_1.pdb
 40 43 0 0 0
SMALL
GASTEIGER

@<TRIPOS>ATOM
      1  C1        45.2590   19.6400   52.7600 C.ar  246  BAK246      0.0640
      2  C2        44.6510   19.2470   51.5180 C.ar  246  BAK246     -0.0438
      3  C3        44.2770   20.1810   50.5360 C.ar  246  BAK246     -0.0194
      4  C4        44.5300   21.5120   50.8400 C.ar  246  BAK246      0.1653
      5  C5        45.0980   21.9250   51.9980 C.ar  246  BAK246      0.1660
      6  C6        45.4750   21.0310   52.9780 C.ar  246  BAK246     -0.0055
      7  C7        45.6410   18.6980   53.7490 C.2   246  BAK246      0.2663
      8  C8        44.7370   23.6080   50.8020 C.1   246  BAK246      0.1913
      9  C9        44.7520   24.9560   50.2850 C.2   246  BAK246      0.3632
     10  N1        46.3940   19.0840   54.7390 N.pl3 246  BAK246     -0.2497
     11  N2        45.2550   17.4470   53.6890 N.2   246  BAK246     -0.2884
     12  N3        44.3210   22.5790   50.1350 N.2   246  BAK246     -0.3348
     13  N4        45.2180   23.2420   51.9670 N.2   246  BAK246     -0.3348
     14  C1'       43.4790   27.3650   45.0150 C.ar  246  BAK246      0.0640
     15  C2'       43.2670   25.9830   44.7090 C.ar  246  BAK246     -0.0438
     16  C3'       43.4460   24.9780   45.6720 C.ar  246  BAK246     -0.0194
     17  C4'       43.8400   25.3880   46.9340 C.ar  246  BAK246      0.1653
     18  C5'       44.0520   26.6570   47.2710 C.ar  246  BAK246      0.1660
     19  C6'       43.8830   27.6900   46.3550 C.ar  246  BAK246     -0.0055
     20  C7'       43.3020   28.3570   44.0390 C.2   246  BAK246      0.2663
     21  C8'       44.4230   25.4380   48.9590 C.1   246  BAK246      0.1913
     22  N1'       43.5430   29.6200   44.3140 N.pl3 246  BAK246     -0.2497
     23  N2'       42.8980   28.0110   42.8470 N.2   246  BAK246     -0.2884
     24  N3'       44.0720   24.6750   47.9910 N.2   246  BAK246     -0.3348
     25  N4'       44.4110   26.6720   48.5370 N.2   246  BAK246     -0.3348
     26  O9        45.1030   25.8110   51.0790 O.2   246  BAK246     -0.2602
     27  H2        44.4730   18.2020   51.3240 H     246  BAK246      0.0627
     28  H3        43.8160   19.8810   49.6080 H     246  BAK246      0.0651
     29  H6        45.9220   21.3920   53.8910 H     246  BAK246      0.0659
     30 HH11       46.7490   20.0130   54.7750 H     246  BAK246      0.2883
     31 HH12       46.6190   18.4980   55.5110 H     246  BAK246      0.2883
     32 HH21       44.7060   17.1230   52.9020 H     246  BAK246      0.3009
     33 HH22       45.5260   16.7770   54.3700 H     246  BAK246      0.3009
     34  H2'       42.9600   25.6880   43.7180 H     246  BAK246      0.0627
     35  H3'       43.2850   23.9370   45.4370 H     246  BAK246      0.0651
     36  H6'       44.0630   28.7130   46.6520 H     246  BAK246      0.0659
     37 H1'1       43.8350   29.8840   45.2320 H     246  BAK246      0.2883
     38 H1'2       43.4400   30.3750   43.6540 H     246  BAK246      0.2883
     39 H2'1       42.5970   27.0620   42.6910 H     246  BAK246      0.3009
     40 H2'2       42.6480   28.6800   42.1530 H     246  BAK246      0.3009
@<TRIPOS>BOND
     1    40    23    1
     2    39    23    1
     3    23    20    2
     4    38    22    1
     5    34    15    1
     6    20    22    1
     7    20    14    1
     8    22    37    1
     9    15    14   ar
    10    15    16   ar
    11    14    19   ar
    12    35    16    1
    13    16    17   ar
    14    19    36    1
    15    19    18   ar
    16    17    18   ar
    17    17    24    2
    18    18    25    2
    19    24    21    2
    20    25    21    2
    21    21     9    1
    22    28     3    1
    23    12     8    2
    24    12     4    2
    25     9     8    1
    26     9    26    2
    27     3     4   ar
    28     3     2   ar
    29     8    13    2
    30     4     5   ar
    31    27     2    1
    32     2     1   ar
    33    13     5    2
    34     5     6   ar
    35     1     6   ar
    36     1     7    1
    37    32    11    1
    38     6    29    1
    39    11     7    2
    40    11    33    1
    41     7    10    1
    42    10    30    1
    43    10    31    1
