@<TRIPOS>MOLECULE
1c2i_DMS_A_1.pdb
 10 9 0 0 0
SMALL
GASTEIGER

@<TRIPOS>ATOM
      1  S         37.4550   25.4350   56.4770 S.O   333  DMS333      0.0159
      2  O         37.4220   26.1580   57.7410 O.2   333  DMS333     -0.2577
      3  C1        39.2380   25.3490   56.1790 C.3   333  DMS333      0.0115
      4  C2        37.1200   23.7610   57.0540 C.3   333  DMS333      0.0115
      5  H11       39.5470   26.2670   55.7010 H     333  DMS333      0.0365
      6  H12       39.7520   25.2660   57.1200 H     333  DMS333      0.0365
      7  H13       39.4830   24.5110   55.5500 H     333  DMS333      0.0365
      8  H21       36.0550   23.6200   57.1510 H     333  DMS333      0.0365
      9  H22       37.5090   23.0780   56.3240 H     333  DMS333      0.0365
     10  H23       37.5940   23.6090   58.0130 H     333  DMS333      0.0365
@<TRIPOS>BOND
     1     7     3    1
     2     5     3    1
     3     3     1    1
     4     3     6    1
     5     9     4    1
     6     1     4    1
     7     1     2    2
     8     4     8    1
     9     4    10    1
