@<TRIPOS>MOLECULE
1c2j_BAK_A_1.pdb
 41 44 0 0 0
SMALL
GASTEIGER

@<TRIPOS>ATOM
      1  C1        45.2240   19.6330   52.8080 C.3   246  BAK246      0.1307
      2  C2        44.7390   19.2850   51.5030 C.2   246  BAK246     -0.0581
      3  C3        44.3740   20.2670   50.5480 C.2   246  BAK246     -0.0249
      4  C4        44.5100   21.5830   50.9420 C.2   246  BAK246      0.1370
      5  C5        44.9660   21.9240   52.1810 C.2   246  BAK246      0.0685
      6  C6        45.3240   20.9980   53.1220 C.2   246  BAK246     -0.0368
      7  C7        45.6060   18.6810   53.7620 C.2   246  BAK246      0.2498
      8  C8        44.5910   23.6390   51.1100 C.2   246  BAK246      0.2350
      9  C9        44.5660   25.0170   50.8370 C.2   246  BAK246      0.3230
     10  N1        46.3570   19.0390   54.7640 N.pl3 246  BAK246     -0.2528
     11  N2        45.2210   17.4390   53.6220 N.2   246  BAK246     -0.2916
     12  N3        44.2710   22.6920   50.2780 N.2   246  BAK246     -0.3822
     13  N4        44.9870   23.2280   52.2570 N.pl3 246  BAK246     -0.2836
     14  C1'       43.2750   26.5620   45.4490 C.ar  246  BAK246      0.0640
     15  C2'       43.4450   27.8750   45.9910 C.ar  246  BAK246     -0.0438
     16  C3'       43.7800   28.0940   47.3400 C.ar  246  BAK246     -0.0194
     17  C4'       43.9390   26.9760   48.1200 C.ar  246  BAK246      0.1652
     18  C5'       43.7810   25.7340   47.6170 C.ar  246  BAK246      0.1660
     19  C6'       43.4530   25.4650   46.3140 C.ar  246  BAK246     -0.0055
     20  C7'       42.9480   26.3740   44.1150 C.2   246  BAK246      0.2663
     21  C8'       44.2650   25.6050   49.6120 C.1   246  BAK246      0.1829
     22  N1'       42.5340   25.2010   43.6960 N.pl3 246  BAK246     -0.2497
     23  N2'       43.0750   27.3850   43.2910 N.2   246  BAK246     -0.2884
     24  N3'       44.2470   26.8930   49.3920 N.2   246  BAK246     -0.3353
     25  N4'       43.9900   24.8880   48.5710 N.2   246  BAK246     -0.3353
     26  O9        44.8230   25.7520   51.7700 O.2   246  BAK246     -0.2692
     27  H2        44.6460   18.2450   51.2370 H     246  BAK246      0.0588
     28  H3        44.0080   20.0040   49.5720 H     246  BAK246      0.0647
     29  H6        45.6790   21.3260   54.0870 H     246  BAK246      0.0606
     30 HH11       46.7020   19.9810   54.8160 H     246  BAK246      0.2880
     31 HH12       46.6090   18.4320   55.5140 H     246  BAK246      0.2880
     32 HH21       44.6920   17.1690   52.8040 H     246  BAK246      0.3006
     33 HH22       45.4760   16.7220   54.2560 H     246  BAK246      0.3006
     34  HN4       45.2470   23.8470   52.9850 H     246  BAK246      0.1547
     35  H2'       43.3100   28.7410   45.3560 H     246  BAK246      0.0627
     36  H3'       43.9070   29.0900   47.7390 H     246  BAK246      0.0651
     37  H6'       43.3380   24.4490   45.9690 H     246  BAK246      0.0659
     38 H1'1       42.4510   24.4310   44.3340 H     246  BAK246      0.2883
     39 H1'2       42.3090   25.0130   42.7410 H     246  BAK246      0.2883
     40 H2'1       43.4100   28.2690   43.6320 H     246  BAK246      0.3009
     41 H2'2       42.7170   27.3330   42.3600 H     246  BAK246      0.3009
@<TRIPOS>BOND
     1    41    23    1
     2    39    22    1
     3    23    40    1
     4    23    20    2
     5    22    20    1
     6    22    38    1
     7    20    14    1
     8    35    15    1
     9    14    15   ar
    10    14    19   ar
    11    37    19    1
    12    15    16   ar
    13    19    18   ar
    14    16    36    1
    15    16    17   ar
    16    18    17   ar
    17    18    25    2
    18    17    24    2
    19    25    21    2
    20    24    21    2
    21    28     3    1
    22    21     9    1
    23    12     4    2
    24    12     8    2
    25     3     4    1
    26     3     2    2
    27     9     8    1
    28     9    26    2
    29     4     5    1
    30     8    13    1
    31    27     2    1
    32     2     1    1
    33     5    13    1
    34     5     6    2
    35    13    34    1
    36    32    11    1
    37     1     6    1
    38     1     7    1
    39     6    29    1
    40    11     7    2
    41    11    33    1
    42     7    10    1
    43    10    30    1
    44    10    31    1
