@<TRIPOS>MOLECULE
1c2k_ABI_A_1.pdb
 21 22 0 0 0
SMALL
GASTEIGER

@<TRIPOS>ATOM
      1  C1        45.3550   19.4190   52.7170 C.3   246  ABI246      0.1307
      2  C2        44.7830   19.0630   51.4580 C.2   246  ABI246     -0.0581
      3  C3        44.3630   20.0300   50.5140 C.2   246  ABI246     -0.0250
      4  C4        44.5300   21.3350   50.8640 C.2   246  ABI246      0.1360
      5  C5        45.0680   21.6900   52.0550 C.2   246  ABI246      0.0680
      6  C6        45.4880   20.7910   53.0010 C.2   246  ABI246     -0.0368
      7  C7        45.7470   18.4730   53.6520 C.2   246  ABI246      0.2498
      8  C8        44.6140   23.4190   50.9730 C.2   246  ABI246      0.1382
      9  N1        46.4700   18.8400   54.6630 N.pl3 246  ABI246     -0.2528
     10  N2        45.3740   17.2330   53.4920 N.2   246  ABI246     -0.2916
     11  N3        44.2450   22.4120   50.1910 N.2   246  ABI246     -0.3949
     12  N4        45.1100   22.9690   52.0870 N.pl3 246  ABI246     -0.2934
     13  HC2       44.6850   18.0210   51.2100 H     246  ABI246      0.0588
     14  HC3       43.9270   19.7720   49.5640 H     246  ABI246      0.0647
     15  HC6       45.8980   21.1530   53.9350 H     246  ABI246      0.0606
     16  HC8       44.5180   24.4590   50.7090 H     246  ABI246      0.1146
     17 HH11       46.7720   19.7910   54.7140 H     246  ABI246      0.2880
     18 HH12       46.6960   18.2720   55.4550 H     246  ABI246      0.2880
     19 HH21       44.8200   16.9660   52.7030 H     246  ABI246      0.3006
     20 HH22       45.6380   16.5060   54.1170 H     246  ABI246      0.3006
     21  HN4       45.4700   23.5230   52.8480 H     246  ABI246      0.1540
@<TRIPOS>BOND
     1    14     3    1
     2    11     4    2
     3    11     8    2
     4     3     4    1
     5     3     2    2
     6    16     8    1
     7     4     5    1
     8     8    12    1
     9    13     2    1
    10     2     1    1
    11     5    12    1
    12     5     6    2
    13    12    21    1
    14    19    10    1
    15     1     6    1
    16     1     7    1
    17     6    15    1
    18    10     7    2
    19    10    20    1
    20     7     9    1
    21     9    17    1
    22     9    18    1
