@<TRIPOS>MOLECULE
1c2r_HEM_A_1.pdb
 43 50 0 0 0
SMALL
GASTEIGER

@<TRIPOS>ATOM
      1 FE          7.1630   49.4020    1.1120 Fe    120  HEM120      0.0000
      2  CHA        9.8570   49.9600    2.9270 C.2   120  HEM120      0.0000
      3  CHB        8.2830   46.2760    0.4420 C.2   120  HEM120      0.0000
      4  CHC        4.4300   48.8270   -0.7350 C.2   120  HEM120      0.0000
      5  CHD        6.0640   52.4470    1.7230 C.2   120  HEM120      0.0000
      6  NA         8.7220   48.3580    1.5840 N.ar  120  HEM120      0.0000
      7  C1A        9.7400   48.7660    2.3830 C.ar  120  HEM120      0.0000
      8  C2A       10.7290   47.7220    2.5140 C.ar  120  HEM120      0.0000
      9  C3A       10.3230   46.6700    1.8280 C.ar  120  HEM120      0.0000
     10  C4A        9.0760   47.0450    1.2410 C.ar  120  HEM120      0.0000
     11  CMA       11.0060   45.3340    1.6690 C.3   120  HEM120      0.0000
     12  CAA       11.9880   47.8400    3.3260 C.3   120  HEM120      0.0000
     13  CBA       13.0770   48.4560    2.4580 C.3   120  HEM120      0.0000
     14  CGA       14.5280   48.5330    3.0040 C.2   120  HEM120      0.0000
     15  O1A       14.6780   47.9970    4.0660 O.co2 120  HEM120      0.0000
     16  O2A       15.4270   49.0400    2.4020 O.co2 120  HEM120      0.0000
     17  NB         6.4810   47.9030    0.0820 N.2   120  HEM120      0.0000
     18  C1B        7.1170   46.6950   -0.0770 C.2   120  HEM120      0.0000
     19  C2B        6.3110   45.8880   -0.9200 C.2   120  HEM120      0.0000
     20  C3B        5.2780   46.6220   -1.2310 C.2   120  HEM120      0.0000
     21  C4B        5.3690   47.8620   -0.6090 C.2   120  HEM120      0.0000
     22  CMB        6.6520   44.4360   -1.3220 C.3   120  HEM120      0.0000
     23  CAB        4.1390   46.2060   -2.0160 C.3   120  HEM120      0.0000
     24  CBB        3.3090   45.0180   -1.7310 C.3   120  HEM120      0.0000
     25  NC         5.5710   50.3940    0.5890 N.ar  120  HEM120      0.0000
     26  C1C        4.4770   50.0310   -0.1850 C.ar  120  HEM120      0.0000
     27  C2C        3.4920   51.0640   -0.3230 C.ar  120  HEM120      0.0000
     28  C3C        3.9730   52.0750    0.3730 C.ar  120  HEM120      0.0000
     29  C4C        5.2520   51.6650    0.9570 C.ar  120  HEM120      0.0000
     30  CMC        2.1990   50.9520   -1.1260 C.3   120  HEM120      0.0000
     31  CAC        3.3570   53.4170    0.5750 C.3   120  HEM120      0.0000
     32  CBC        2.0300   53.7120    1.2050 C.3   120  HEM120      0.0000
     33  ND         7.8570   50.9150    2.1550 N.2   120  HEM120      0.0000
     34  C1D        7.2690   52.1470    2.2680 C.2   120  HEM120      0.0000
     35  C2D        8.1310   52.9910    3.1240 C.2   120  HEM120      0.0000
     36  C3D        9.1900   52.2690    3.4180 C.2   120  HEM120      0.0000
     37  C4D        8.9970   50.9940    2.8290 C.2   120  HEM120      0.0000
     38  CMD        7.8450   54.4100    3.5440 C.3   120  HEM120      0.0000
     39  CAD       10.3070   52.6800    4.3130 C.3   120  HEM120      0.0000
     40  CBD       10.0080   52.0050    5.6780 C.3   120  HEM120      0.0000
     41  CGD       10.3050   52.7450    6.9480 C.2   120  HEM120      0.0000
     42  O1D        9.8230   52.4890    8.0310 O.co2 120  HEM120      0.0000
     43  O2D       11.1520   53.6570    6.8310 O.co2 120  HEM120      0.0000
@<TRIPOS>BOND
     1    23    24    1
     2    23    20    1
     3    22    19    1
     4    20    19    2
     5    20    21    1
     6    30    27    1
     7    19    18    1
     8     4    21    2
     9     4    26    1
    10    21    17    1
    11    27    26   ar
    12    27    28   ar
    13    26    25   ar
    14    18    17    2
    15    18     3    1
    16    17     1    1
    17    28    31    1
    18    28    29   ar
    19     3    10    2
    20    31    32    1
    21    25    29   ar
    22    25     1    1
    23    29     5    1
    24     1     6    1
    25     1    33    1
    26    10     6   ar
    27    10     9   ar
    28     6     7   ar
    29    11     9    1
    30     5    34    2
    31     9     8   ar
    32    33    34    1
    33    33    37    2
    34    34    35    1
    35     7     8   ar
    36     7     2    2
    37    16    14   ar
    38    13    14    1
    39    13    12    1
    40     8    12    1
    41    37     2    1
    42    37    36    1
    43    14    15   ar
    44    35    36    2
    45    35    38    1
    46    36    39    1
    47    39    40    1
    48    40    41    1
    49    43    41   ar
    50    41    42   ar
