@<TRIPOS>MOLECULE
1c2t_NHS_A_1.pdb
 35 37 0 0 0
SMALL
GASTEIGER

@<TRIPOS>ATOM
      1  N1        22.6450    1.3780   22.6840 N.2   222  NHS222     -0.3283
      2  C2        23.5780    1.7760   21.8810 C.1   222  NHS222      0.2512
      3  NA2       24.7810    1.1620   21.9350 N.pl3 222  NHS222     -0.0226
      4  N3        23.3540    2.8440   20.9080 N.2   222  NHS222     -0.2537
      5  C4        22.1560    3.5160   20.8130 C.1   222  NHS222      0.2017
      6  O4        22.0380    4.4070   19.9690 O.2   222  NHS222     -0.2127
      7  C4A       21.0200    3.0750   21.7390 C.3   222  NHS222      0.1935
      8  C5        19.7440    3.6910   21.7610 C.2   222  NHS222     -0.0060
      9  C6        18.7610    3.2240   22.6610 C.2   222  NHS222     -0.0240
     10  C7        19.0640    2.1590   23.5580 C.2   222  NHS222     -0.0022
     11  C8        20.3360    1.5440   23.5640 C.2   222  NHS222      0.0297
     12  C8A       21.3330    2.0050   22.6900 C.2   222  NHS222      0.1431
     13  C9        17.3860    3.8730   22.6970 C.3   222  NHS222      0.0417
     14  C10       17.0760    5.2290   23.4900 C.3   222  NHS222      0.1299
     15  C11       19.1120    5.9180   27.4610 C.ar  222  NHS222      0.0550
     16  C12       18.6740    4.6170   27.0680 C.ar  222  NHS222      0.0043
     17  C13       18.0440    4.3950   25.8230 C.ar  222  NHS222     -0.0036
     18  C14       17.8260    5.4660   24.9030 C.ar  222  NHS222     -0.0115
     19  C15       18.2710    6.7800   25.2970 C.ar  222  NHS222     -0.0036
     20  C16       18.8970    6.9940   26.5500 C.ar  222  NHS222      0.0043
     21  C         19.7660    6.1610   28.8250 C.2   222  NHS222      0.2655
     22  O         20.4580    7.1780   29.0420 O.2   222  NHS222     -0.2683
     23  N         19.5400    5.2470   29.8180 N.am  222  NHS222     -0.1872
     24  CA        20.0150    5.2780   31.2390 C.3   222  NHS222      0.2202
     25  CB        21.5710    5.2910   31.2930 C.2   222  NHS222      0.0133
     26  CG        22.3330    3.9350   31.2870 C.2   222  NHS222      0.0838
     27  CD        21.4860    2.6740   31.4900 C.2   222  NHS222      0.3877
     28  OE1       20.8220    2.1320   30.5980 O.co2 222  NHS222     -0.2406
     29  OE2       21.5550    2.2140   32.7660 O.co2 222  NHS222     -0.2406
     30  CT        19.3900    6.3820   32.1930 C.2   222  NHS222      0.3884
     31  O1        19.5380    7.6070   32.0200 O.co2 222  NHS222     -0.2434
     32  O2        18.6560    5.8650   33.2430 O.co2 222  NHS222     -0.2434
     33  CA1       16.8990    6.5230   22.6640 C.2   222  NHS222      0.3687
     34  OA1       16.0850    7.3140   23.1410 O.co2 222  NHS222     -0.2453
     35  OA2       16.8170    6.4520   21.4390 O.co2 222  NHS222     -0.2453
@<TRIPOS>BOND
     1     6     5    2
     2     5     4    2
     3     5     7    1
     4     4     2    2
     5    35    33   ar
     6     7     8    1
     7     7    12    1
     8     8     9    2
     9     2     3    1
    10     2     1    2
    11     9    13    1
    12     9    10    1
    13    33    34   ar
    14    33    14    1
    15     1    12    2
    16    12    11    1
    17    13    14    1
    18    14    18    1
    19    10    11    2
    20    18    19   ar
    21    18    17   ar
    22    19    20   ar
    23    17    16   ar
    24    20    15   ar
    25    16    15   ar
    26    15    21    1
    27    21    22    2
    28    21    23   am
    29    23    24    1
    30    28    27   ar
    31    24    25    1
    32    24    30    1
    33    26    25    2
    34    26    27    1
    35    27    29   ar
    36    31    30   ar
    37    30    32   ar
