@<TRIPOS>MOLECULE
1c2t_GAR_A_1.pdb
 18 18 0 0 0
SMALL
GASTEIGER

@<TRIPOS>ATOM
      1  C1         8.2680    5.8590   22.1120 C.3   223  GAR223      0.2159
      2  O6         7.7190    7.1400   21.8060 O.3   223  GAR223     -0.2175
      3  C2         9.7310    5.6910   21.6820 C.3   223  GAR223      0.2325
      4  O8        10.1440    6.4300   20.5360 O.3   223  GAR223     -0.2157
      5  C3        10.5370    6.1810   22.8560 C.3   223  GAR223      0.2447
      6  O4         9.7330    5.9310   23.9850 O.3   223  GAR223     -0.3316
      7  C5         8.3710    5.7970   23.6250 C.3   223  GAR223      0.1801
      8  C10        7.8530    4.4740   24.1700 C.3   223  GAR223      0.1859
      9  O12        6.7820    4.0150   23.3580 O.3   223  GAR223     -0.2675
     10  N19       11.7250    5.4010   23.0750 N.am  223  GAR223     -0.1738
     11  C21       12.8990    5.8180   23.4710 C.2   223  GAR223      0.2629
     12  O22       13.1630    7.0110   23.6680 O.2   223  GAR223     -0.2716
     13  C23       13.9440    4.7490   23.6740 C.3   223  GAR223      0.1956
     14  N24       14.7250    4.7240   24.9390 N.3   223  GAR223     -0.1210
     15  P15        6.0260    2.7210   23.6640 P.3   223  GAR223      0.5327
     16  O16        6.3610    1.9670   22.3190 O.2   223  GAR223     -0.2224
     17  O17        4.4510    3.0210   23.8080 O.3   223  GAR223     -0.1145
     18  O18        6.5070    2.0670   24.8360 O.3   223  GAR223     -0.1145
@<TRIPOS>BOND
     1     4     3    1
     2     3     1    1
     3     3     5    1
     4     2     1    1
     5     1     7    1
     6    16    15    2
     7     5    10    1
     8     5     6    1
     9    10    11   am
    10     9    15    1
    11     9     8    1
    12    11    12    2
    13    11    13    1
    14     7     6    1
    15     7     8    1
    16    15    17    1
    17    15    18    1
    18    13    14    1
