@<TRIPOS>MOLECULE
1c2y_LMZ_A_1.pdb
 20 20 0 0 0
SMALL
GASTEIGER

@<TRIPOS>ATOM
      1  N1       131.1070   41.8740  135.3850 N.2   201  LMZ201     -0.2886
      2  C2       129.7650   41.6480  135.6720 C.1   201  LMZ201      0.3668
      3  N3       129.1160   40.7320  134.8970 N.2   201  LMZ201     -0.2310
      4  C4       129.6940   40.0380  133.8620 C.1   201  LMZ201      0.2426
      5  C5       131.1430   40.3270  133.5680 C.2   201  LMZ201      0.2644
      6  C6       131.8130   41.2980  134.3590 C.2   201  LMZ201      0.2481
      7  N7       133.0960   41.7080  134.2090 N.pl3 201  LMZ201     -0.2041
      8  C8       133.9860   40.8380  135.0480 C.3   201  LMZ201      0.1504
      9  C9       134.8610   41.6540  136.0670 C.3   201  LMZ201      0.2063
     10  O9       133.9850   42.2390  136.9790 O.3   201  LMZ201     -0.2184
     11  C10      135.9520   42.7280  135.7120 C.3   201  LMZ201      0.2166
     12  O10      135.3570   43.8990  135.2780 O.3   201  LMZ201     -0.2175
     13  C11      137.2870   42.4270  134.8500 C.3   201  LMZ201      0.2175
     14  O11      136.9900   41.0300  134.6260 O.3   201  LMZ201     -0.2175
     15  C12      138.7540   42.3300  135.4620 C.3   201  LMZ201      0.2175
     16  O12      138.5470   42.4840  136.8600 O.3   201  LMZ201     -0.2175
     17  N5       131.7130   39.6340  132.4660 N.2   201  LMZ201     -0.0123
     18  O52      132.8760   39.8510  132.1920 O.2   201  LMZ201     -0.1423
     19  O4       128.8530   39.1550  133.2000 O.2   201  LMZ201     -0.2067
     20  O2       129.2240   42.3950  136.7200 O.2   201  LMZ201     -0.1744
@<TRIPOS>BOND
     1    18    17    1
     2    17     5    2
     3    19     4    2
     4     5     4    1
     5     5     6    1
     6     4     3    2
     7     7     6    1
     8     7     8    1
     9     6     1    2
    10    14    13    1
    11    13    15    1
    12    13    11    1
    13     3     2    2
    14     8     9    1
    15    12    11    1
    16     1     2    2
    17    15    16    1
    18     2    20    2
    19    11     9    1
    20     9    10    1
