@<TRIPOS>MOLECULE
1c30_ADP_A_1.pdb
 27 29 0 0 0
SMALL
GASTEIGER

@<TRIPOS>ATOM
      1  PB        18.1320   29.0060   70.6430 P.3   4000  ADP4000     0.5373
      2  O1B       19.2360   30.0010   70.8350 O.3   4000  ADP4000    -0.1143
      3  O2B       18.3080   28.2170   69.3930 O.2   4000  ADP4000    -0.2221
      4  O3B       18.0450   28.0830   71.8510 O.3   4000  ADP4000    -0.1143
      5  PA        16.2120   31.0250   71.3280 P.3   4000  ADP4000     0.2231
      6  O1A       17.2560   31.7290   72.1370 O.3   4000  ADP4000    -0.4370
      7  O2A       15.0040   30.7180   72.1110 O.2   4000  ADP4000    -0.5169
      8  O3A       16.7310   29.8080   70.5340 O.3   4000  ADP4000    -0.2261
      9  O5'       15.7380   31.8290   70.0340 O.3   4000  ADP4000    -0.3111
     10  C5'       16.7110   32.3690   69.0930 C.3   4000  ADP4000     0.1813
     11  C4'       16.5090   33.8640   68.7820 C.3   4000  ADP4000     0.1821
     12  O4'       15.2390   34.0790   68.1250 O.3   4000  ADP4000    -0.3135
     13  C3'       16.4750   34.8530   69.9540 C.3   4000  ADP4000     0.2184
     14  O3'       17.8450   35.1710   70.3700 O.3   4000  ADP4000    -0.2174
     15  C2'       15.6810   35.9960   69.3540 C.3   4000  ADP4000     0.2570
     16  O2'       16.4230   37.0190   68.6090 O.3   4000  ADP4000    -0.2130
     17  C1'       14.7430   35.3350   68.3880 C.3   4000  ADP4000     0.3186
     18  N9        13.4060   35.1480   68.9140 N.pl3 4000  ADP4000    -0.1439
     19  C8        12.9820   34.2600   69.8560 C.3   4000  ADP4000     0.3377
     20  N7        11.6500   34.3280   70.0800 N.2   4000  ADP4000    -0.2095
     21  C5        11.2060   35.3590   69.2600 C.2   4000  ADP4000     0.2526
     22  C6         9.9120   35.9350   69.0600 C.2   4000  ADP4000     0.4393
     23  N6         8.7560   35.5770   69.6690 N.pl3 4000  ADP4000     0.2180
     24  N1         9.8730   36.9230   68.1280 N.2   4000  ADP4000     0.0021
     25  C2        11.0310   37.2920   67.4790 C.3   4000  ADP4000     0.5254
     26  N3        12.2520   36.8210   67.6020 N.2   4000  ADP4000    -0.0055
     27  C4        12.2870   35.8520   68.5190 C.2   4000  ADP4000     0.3518
@<TRIPOS>BOND
     1    25    26    1
     2    25    24    1
     3    26    27    2
     4    12    17    1
     5    12    11    1
     6    24    22    2
     7    17    18    1
     8    17    15    1
     9    27    18    1
    10    27    21    1
    11    16    15    1
    12    11    10    1
    13    11    13    1
    14    18    19    1
    15    22    21    1
    16    22    23    1
    17    10     9    1
    18    21    20    2
    19    15    13    1
    20     3     1    2
    21    19    20    1
    22    13    14    1
    23     9     5    1
    24     8     1    1
    25     8     5    1
    26     1     2    1
    27     1     4    1
    28     5     7    2
    29     5     6    1
