@<TRIPOS>MOLECULE
1c39_P3M_A_1.pdb
 38 40 0 0 0
SMALL
GASTEIGER

@<TRIPOS>ATOM
      1  P        -12.2850  -30.8970   62.6460 P.3   1200  P3M1200     0.5327
      2  O1P      -13.6320  -31.4680   63.3200 O.3   1200  P3M1200    -0.1145
      3  O2P      -11.0230  -31.4380   63.4760 O.3   1200  P3M1200    -0.1145
      4  O3P      -12.1610  -31.3630   61.1130 O.2   1200  P3M1200    -0.2224
      5  C5A      -11.3760  -27.1200   62.4850 C.3   1200  P3M1200     0.1807
      6  OA       -11.2430  -26.9680   63.9320 O.3   1200  P3M1200    -0.3257
      7  C1A      -11.3960  -25.6200   64.4450 C.3   1200  P3M1200     0.2695
      8  O1A      -12.7520  -25.1510   64.2280 O.3   1200  P3M1200    -0.3255
      9  C2A      -10.3920  -24.7010   63.7360 C.3   1200  P3M1200     0.2406
     10  O2A       -9.0840  -25.1980   64.0290 O.3   1200  P3M1200    -0.2149
     11  C3A      -10.5890  -24.7680   62.2000 C.3   1200  P3M1200     0.2198
     12  O3A       -9.6640  -23.9090   61.5540 O.3   1200  P3M1200    -0.2174
     13  C4A      -10.3550  -26.2190   61.7560 C.3   1200  P3M1200     0.2143
     14  O4A      -10.5280  -26.3530   60.3440 O.3   1200  P3M1200    -0.2176
     15  C6A      -11.1930  -28.5920   62.1890 C.3   1200  P3M1200     0.1859
     16  O6A      -12.2720  -29.3190   62.7420 O.3   1200  P3M1200    -0.2675
     17  C5B      -15.9610  -24.9850   66.2500 C.3   1200  P3M1200     0.1834
     18  OB       -16.3200  -26.3960   66.1090 O.3   1200  P3M1200    -0.3256
     19  C1B      -15.2150  -27.3620   66.1280 C.3   1200  P3M1200     0.2694
     20  O1B      -14.5900  -27.3930   67.4370 O.3   1200  P3M1200    -0.3255
     21  C2B      -14.1500  -26.9820   65.0720 C.3   1200  P3M1200     0.2374
     22  O2B      -14.6820  -27.1840   63.7680 O.3   1200  P3M1200    -0.2150
     23  C3B      -13.7240  -25.4970   65.2400 C.3   1200  P3M1200     0.1858
     24  C4B      -14.9530  -24.5950   65.1350 C.3   1200  P3M1200     0.2113
     25  O4B      -14.5680  -23.2320   65.2820 O.3   1200  P3M1200    -0.2177
     26  C6B      -17.2570  -24.1510   66.2290 C.3   1200  P3M1200     0.2142
     27  O6B      -17.9040  -24.2260   64.9670 O.3   1200  P3M1200    -0.2176
     28  C5C      -15.3450  -30.2860   69.7970 C.3   1200  P3M1200     0.1835
     29  OC       -15.2510  -29.5180   71.0430 O.3   1200  P3M1200    -0.3236
     30  C1C      -15.7590  -28.1310   71.0100 C.3   1200  P3M1200     0.3022
     31  O1C      -17.1800  -28.1200   70.8870 O.3   1200  P3M1200    -0.1869
     32  C2C      -15.1100  -27.3420   69.8370 C.3   1200  P3M1200     0.2403
     33  O2C      -13.7360  -27.1070   70.1390 O.3   1200  P3M1200    -0.2149
     34  C3C      -15.2410  -28.1250   68.4980 C.3   1200  P3M1200     0.1859
     35  C4C      -14.6140  -29.5150   68.6530 C.3   1200  P3M1200     0.2113
     36  O4C      -14.7280  -30.2290   67.4220 O.3   1200  P3M1200    -0.2177
     37  C6C      -14.7760  -31.6990   70.0590 C.3   1200  P3M1200     0.2142
     38  O6C      -13.3610  -31.6750   70.2180 O.3   1200  P3M1200    -0.2176
@<TRIPOS>BOND
     1    14    13    1
     2     4     1    2
     3    12    11    1
     4    13    11    1
     5    13     5    1
     6    15     5    1
     7    15    16    1
     8    11     9    1
     9     5     6    1
    10     1    16    1
    11     1     2    1
    12     1     3    1
    13     9    10    1
    14     9     7    1
    15    22    21    1
    16     6     7    1
    17     8     7    1
    18     8    23    1
    19    27    26    1
    20    21    23    1
    21    21    19    1
    22    24    23    1
    23    24    25    1
    24    24    17    1
    25    18    19    1
    26    18    17    1
    27    19    20    1
    28    26    17    1
    29    36    35    1
    30    20    34    1
    31    34    35    1
    32    34    32    1
    33    35    28    1
    34    28    37    1
    35    28    29    1
    36    32    33    1
    37    32    30    1
    38    37    38    1
    39    31    30    1
    40    30    29    1
