@<TRIPOS>MOLECULE
1c3b_BZB_A_1.pdb
 12 13 0 0 0
SMALL
GASTEIGER

@<TRIPOS>ATOM
      1  B         26.2010    5.1640   16.9450 B     362  BZB362      0.0000
      2  O1        26.3150    6.2430   17.9770 O.3   362  BZB362      0.0000
      3  O2        25.1800    4.1770   17.1080 O.3   362  BZB362      0.0000
      4  C1        25.7230    5.9200   15.6570 C.ar  362  BZB362      0.0000
      5  C2        25.4640    7.2610   15.5840 C.ar  362  BZB362      0.0000
      6  C8        24.9960    6.5280   13.4110 C.ar  362  BZB362      0.0000
      7  C3        25.0290    7.5990   14.2420 C.ar  362  BZB362      0.0000
      8  C7        24.5840    6.6610   12.0200 C.ar  362  BZB362      0.0000
      9  S         25.4670    5.0630   14.1670 S.2   362  BZB362      0.0000
     10  C4        24.6580    8.8890   13.7370 C.ar  362  BZB362      0.0000
     11  C6        24.2220    7.9240   11.5320 C.ar  362  BZB362      0.0000
     12  C5        24.2560    9.0390   12.3860 C.ar  362  BZB362      0.0000
@<TRIPOS>BOND
     1    11     8   ar
     2    11    12   ar
     3     8     6   ar
     4    12    10   ar
     5     6     9   ar
     6     6     7   ar
     7    10     7   ar
     8     9     4   ar
     9     7     5   ar
    10     5     4   ar
    11     4     1    1
    12     1     3    1
    13     1     2    1
