@<TRIPOS>MOLECULE
1c3e_GAR_A_1.pdb
 18 18 0 0 0
SMALL
GASTEIGER

@<TRIPOS>ATOM
      1  C1         8.2490    5.8700   22.0890 C.3   221  GAR221      0.2159
      2  O6         7.7190    7.1650   21.7830 O.3   221  GAR221     -0.2175
      3  C2         9.7100    5.6650   21.6610 C.3   221  GAR221      0.2325
      4  O8        10.1370    6.4170   20.5240 O.3   221  GAR221     -0.2157
      5  C3        10.5420    6.1180   22.8540 C.3   221  GAR221      0.2447
      6  O4         9.6950    6.0100   23.9820 O.3   221  GAR221     -0.3316
      7  C5         8.3430    5.8260   23.6020 C.3   221  GAR221      0.1801
      8  C10        7.8590    4.4970   24.1540 C.3   221  GAR221      0.1859
      9  O12        6.7770    4.0390   23.3650 O.3   221  GAR221     -0.2675
     10  N19       11.6560    5.2510   23.1330 N.am  221  GAR221     -0.1738
     11  C21       12.8220    5.5970   23.6040 C.2   221  GAR221      0.2629
     12  O22       13.1310    6.7720   23.8520 O.2   221  GAR221     -0.2716
     13  C23       13.8160    4.4700   23.8350 C.3   221  GAR221      0.1956
     14  N24       14.9150    4.6950   24.7930 N.3   221  GAR221     -0.1210
     15  P15        6.0180    2.7510   23.6770 P.3   221  GAR221      0.5327
     16  O16        6.3530    1.9920   22.3320 O.2   221  GAR221     -0.2224
     17  O17        4.4430    3.0610   23.8120 O.3   221  GAR221     -0.1145
     18  O18        6.4930    2.0990   24.8520 O.3   221  GAR221     -0.1145
@<TRIPOS>BOND
     1     4     3    1
     2     3     1    1
     3     3     5    1
     4     2     1    1
     5     1     7    1
     6    16    15    2
     7     5    10    1
     8     5     6    1
     9    10    11   am
    10     9    15    1
    11     9     8    1
    12     7     6    1
    13     7     8    1
    14    11    13    1
    15    11    12    2
    16    15    17    1
    17    15    18    1
    18    13    14    1
