@<TRIPOS>MOLECULE
1c3e_NHR_A_1.pdb
 35 37 0 0 0
SMALL
GASTEIGER

@<TRIPOS>ATOM
      1  N1        22.3420    1.3780   22.7850 N.2   220  NHR220     -0.3245
      2  C2        23.3440    1.7360   22.0220 C.1   220  NHR220      0.2518
      3  NA2       24.5300    1.0800   22.1240 N.pl3 220  NHR220     -0.0226
      4  N3        23.2170    2.8230   21.0530 N.2   220  NHR220     -0.2501
      5  C4        22.0500    3.5340   20.8930 C.1   220  NHR220      0.2179
      6  O4        22.0170    4.4390   20.0610 O.2   220  NHR220     -0.2085
      7  C4A       20.8520    3.1520   21.7670 C.2   220  NHR220      0.1219
      8  C8A       21.0480    2.0520   22.7090 C.2   220  NHR220      0.1564
      9  C8        19.9770    1.6480   23.5320 C.2   220  NHR220      0.0296
     10  C7        18.7440    2.3200   23.4570 C.2   220  NHR220     -0.0194
     11  C9        17.2450    4.1620   22.5490 C.3   220  NHR220      0.0244
     12  C10       17.3890    5.7150   22.9720 C.3   220  NHR220      0.1263
     13  CA1       16.2410    6.6090   22.5320 C.2   220  NHR220      0.3684
     14  OA1       16.2870    6.9380   21.3410 O.co2 220  NHR220     -0.2453
     15  C6        18.5610    3.4000   22.5570 C.3   220  NHR220      0.0458
     16  C5        19.6130    3.8110   21.7110 C.2   220  NHR220     -0.0068
     17  C16       18.3750    5.0170   26.7230 C.ar  220  NHR220      0.0043
     18  C11       18.9380    6.2320   27.1740 C.ar  220  NHR220      0.0550
     19  C17       19.5100    6.3100   28.6050 C.2   220  NHR220      0.2652
     20  O17       20.1750    7.2940   28.9810 O.2   220  NHR220     -0.2684
     21  C12       18.9910    7.3270   26.2420 C.ar  220  NHR220      0.0043
     22  C13       18.4800    7.1920   24.9160 C.ar  220  NHR220     -0.0036
     23  C14       17.9220    5.9320   24.4800 C.ar  220  NHR220     -0.0118
     24  C15       17.8670    4.8710   25.4280 C.ar  220  NHR220     -0.0036
     25  N         19.2860    5.2610   29.4670 N.am  220  NHR220     -0.1918
     26  CA        19.7220    5.0840   30.8870 C.3   220  NHR220      0.1986
     27  C         18.9890    5.8600   32.0650 C.2   220  NHR220      0.3842
     28  O         18.4910    5.2830   33.0680 O.co2 220  NHR220     -0.2437
     29  CB        21.2750    5.2520   31.0000 C.3   220  NHR220      0.0451
     30  CG        22.1950    4.0120   31.3310 C.3   220  NHR220      0.1164
     31  CD        21.4570    2.6750   31.3500 C.2   220  NHR220      0.3649
     32  OE1       20.9130    2.1760   30.3660 O.co2 220  NHR220     -0.2457
     33  OE2       21.5060    2.0640   32.5790 O.co2 220  NHR220     -0.2457
     34  OT        18.9310    7.2150   31.9110 O.co2 220  NHR220     -0.2437
     35  OA2       15.8190    7.4850   23.2710 O.co2 220  NHR220     -0.2453
@<TRIPOS>BOND
     1     6     5    2
     2     5     4    2
     3     5     7    1
     4     4     2    2
     5    14    13   ar
     6    16     7    2
     7    16    15    1
     8     7     8    1
     9     2     3    1
    10     2     1    2
    11    13    12    1
    12    13    35   ar
    13    11    15    1
    14    11    12    1
    15    15    10    1
    16     8     1    2
    17     8     9    1
    18    12    23    1
    19    10     9    2
    20    23    22   ar
    21    23    24   ar
    22    22    21   ar
    23    24    17   ar
    24    21    18   ar
    25    17    18   ar
    26    18    19    1
    27    19    20    2
    28    19    25   am
    29    25    26    1
    30    32    31   ar
    31    26    29    1
    32    26    27    1
    33    29    30    1
    34    30    31    1
    35    31    33   ar
    36    34    27   ar
    37    27    28   ar
