@<TRIPOS>MOLECULE
1c3i_TR1_B_1.pdb
 32 33 0 0 0
SMALL
GASTEIGER

@<TRIPOS>ATOM
      1  N         39.7760  -48.5280   -1.6220 N.3     1  TR11       -0.2046
      2  CA        39.8700  -48.2370   -0.1400 C.3     1  TR11        0.1624
      3  C         41.3050  -48.4470    0.3440 C.2     1  TR11        0.2586
      4  O         41.7440  -47.8030    1.2830 O.2     1  TR11       -0.2718
      5  C41       40.9660  -47.7210   -7.9970 C.ar    1  TR11       -0.0000
      6  C42       41.5310  -46.6570   -8.7140 C.ar    1  TR11       -0.0000
      7  C43       40.7060  -48.9180   -8.6730 C.ar    1  TR11       -0.0000
      8  C44       41.7790  -46.7770  -10.0810 C.ar    1  TR11        0.0000
      9  C45       40.9860  -49.0490  -10.0380 C.ar    1  TR11        0.0000
     10  C46       41.5060  -47.9760  -10.7530 C.ar    1  TR11        0.0000
     11  C47       40.1710  -47.3840   -3.8460 C.ar    1  TR11       -0.0048
     12  C48       39.9240  -46.3090   -4.7170 C.ar    1  TR11       -0.0029
     13  C49       40.6740  -48.5660   -4.3860 C.ar    1  TR11       -0.0029
     14  C50       40.1890  -46.4320   -6.0730 C.ar    1  TR11       -0.0003
     15  C51       40.9430  -48.6970   -5.7580 C.ar    1  TR11       -0.0003
     16  C52       40.7010  -47.6190   -6.6220 C.ar    1  TR11       -0.0000
     17  CM2       39.8950  -47.2310   -2.3470 C.3     1  TR11        0.1155
     18  CB        38.9250  -49.2080    0.6270 C.3     1  TR11        0.0954
     19  SG        37.1920  -48.8670    0.1010 S.3     1  TR11       -0.0801
     20  N2        42.0510  -49.3850   -0.2660 N.am    1  TR11       -0.1942
     21  CA2       43.4210  -49.6680    0.1840 C.3     1  TR11        0.2014
     22  C2        44.3980  -49.1460   -0.8400 C.2     1  TR11        0.2639
     23  O2        44.1330  -49.2510   -2.0230 O.2     1  TR11       -0.2714
     24  N3        45.5470  -48.5840   -0.4180 N.am    1  TR11       -0.1943
     25  CA3       46.5110  -48.0380   -1.3650 C.3     1  TR11        0.1934
     26  CB3       47.5260  -47.1350   -0.5850 C.3     1  TR11        0.0309
     27  CG1       48.5880  -47.9980    0.1600 C.3     1  TR11        0.0023
     28  CG2       48.1860  -46.1350   -1.5810 C.3     1  TR11        0.0023
     29  C3        47.1450  -49.1320   -2.1890 C.2     1  TR11        0.3371
     30  O3        47.2000  -50.2520   -1.7200 O.2     1  TR11       -0.2482
     31  OE        47.6460  -48.8800   -3.4130 O.3     1  TR11       -0.4432
     32  CM3       48.7310  -49.6910   -3.9050 C.3     1  TR11        0.2557
@<TRIPOS>BOND
     1    10     8   ar
     2    10     9   ar
     3     8     6   ar
     4     9     7   ar
     5     6     5   ar
     6     7     5   ar
     7     5    16    1
     8    16    14   ar
     9    16    15   ar
    10    14    12   ar
    11    15    13   ar
    12    12    11   ar
    13    13    11   ar
    14    32    31    1
    15    11    17    1
    16    31    29    1
    17    17     1    1
    18    29    30    2
    19    29    25    1
    20    23    22    2
    21     1     2    1
    22    28    26    1
    23    25    26    1
    24    25    24    1
    25    22    24   am
    26    22    21    1
    27    26    27    1
    28    20    21    1
    29    20     3   am
    30     2     3    1
    31     2    18    1
    32    19    18    1
    33     3     4    2
