@<TRIPOS>MOLECULE
1c3j_UDP_A_1.pdb
 25 26 0 0 0
SMALL
GASTEIGER

@<TRIPOS>ATOM
      1  N1        15.5390   -9.1820   16.7940 N.am  353  UDP353     -0.1766
      2  C2        14.2260   -8.8330   17.0750 C.1   353  UDP353      0.2845
      3  N3        13.7390   -9.2540   18.2970 N.2   353  UDP353     -0.2452
      4  C4        14.4280   -9.9790   19.2590 C.1   353  UDP353      0.2182
      5  C5        15.8000  -10.2940   18.9060 C.2   353  UDP353      0.1242
      6  C6        16.3070   -9.8950   17.6990 C.2   353  UDP353      0.0929
      7  O2        13.5650   -8.1280   16.3200 O.2   353  UDP353     -0.1918
      8  O4        13.8680  -10.3300   20.2740 O.2   353  UDP353     -0.2085
      9  C1'       16.0600   -8.8060   15.4800 C.3   353  UDP353      0.2401
     10  C2'       16.9010   -7.5680   15.5840 C.3   353  UDP353      0.2319
     11  O2'       16.6140   -6.6650   14.4980 O.3   353  UDP353     -0.2157
     12  C3'       18.3030   -8.1090   15.4850 C.3   353  UDP353      0.2158
     13  C4'       18.1440   -9.2990   14.6360 C.3   353  UDP353      0.1799
     14  O4'       16.8920   -9.8490   14.9990 O.3   353  UDP353     -0.3320
     15  O3'       19.2070   -7.1820   14.8950 O.3   353  UDP353     -0.2175
     16  C5'       19.2510  -10.2750   14.8880 C.3   353  UDP353      0.1813
     17  O5'       19.2630  -11.2890   13.8950 O.3   353  UDP353     -0.3111
     18  PA        20.2600  -12.5490   13.9940 P.3   353  UDP353      0.2231
     19  O1A       20.0610  -13.3670   12.7650 O.2   353  UDP353     -0.5169
     20  O2A       20.0410  -13.2030   15.3000 O.3   353  UDP353     -0.4370
     21  O3A       21.7430  -11.8910   14.0080 O.3   353  UDP353     -0.2261
     22  PB        22.6400  -11.0430   12.9650 P.3   353  UDP353      0.5373
     23  O1B       23.1240  -12.0250   11.9720 O.2   353  UDP353     -0.2221
     24  O2B       21.7700  -10.0100   12.4110 O.3   353  UDP353     -0.1143
     25  O3B       23.6900  -10.4970   13.8250 O.3   353  UDP353     -0.1143
@<TRIPOS>BOND
     1    23    22    2
     2    24    22    1
     3    19    18    2
     4    22    25    1
     5    22    21    1
     6    17    18    1
     7    17    16    1
     8    18    21    1
     9    18    20    1
    10    11    10    1
    11    13    16    1
    12    13    14    1
    13    13    12    1
    14    15    12    1
    15    14     9    1
    16     9    10    1
    17     9     1    1
    18    12    10    1
    19     7     2    2
    20     1     2   am
    21     1     6    1
    22     2     3    2
    23     6     5    2
    24     3     4    2
    25     5     4    1
    26     4     8    2
