@<TRIPOS>MOLECULE
1c3o_GLN_A_1.pdb
 10 9 0 0 0
SMALL
GASTEIGER

@<TRIPOS>ATOM
      1  N         48.0050   45.1510   93.3190 N.3   4013  GLN4013    -0.1208
      2  CA        48.2100   46.3350   92.7200 C.3   4013  GLN4013     0.1948
      3  C         46.8700   47.0160   92.4520 C.2   4013  GLN4013     0.3819
      4  O         46.7430   48.2700   92.6220 O.co2 4013  GLN4013    -0.2441
      5  CB        49.0920   46.1800   91.4410 C.3   4013  GLN4013     0.0403
      6  CG        48.2900   46.2580   90.1130 C.3   4013  GLN4013     0.0906
      7  CD        49.1490   46.5160   88.9130 C.2   4013  GLN4013     0.2608
      8  OE1       50.3440   46.1960   88.9660 O.2   4013  GLN4013    -0.2717
      9  NE2       48.6430   47.0450   87.7870 N.am  4013  GLN4013    -0.0878
     10  OXT       45.8720   46.3290   92.0780 O.co2 4013  GLN4013    -0.2441
@<TRIPOS>BOND
     1     9     7   am
     2     7     8    2
     3     7     6    1
     4     6     5    1
     5     5     2    1
     6    10     3   ar
     7     3     4   ar
     8     3     2    1
     9     2     1    1
