@<TRIPOS>MOLECULE
1c3o_ADP_A_1.pdb
 27 29 0 0 0
SMALL
GASTEIGER

@<TRIPOS>ATOM
      1  PB        18.1140   29.1840   70.6880 P.3   4000  ADP4000     0.5373
      2  O1B       19.1940   30.2210   70.9260 O.3   4000  ADP4000    -0.1143
      3  O2B       18.2890   28.4050   69.4420 O.2   4000  ADP4000    -0.2221
      4  O3B       17.9250   28.3100   71.8990 O.3   4000  ADP4000    -0.1143
      5  PA        16.1730   31.1670   71.3270 P.3   4000  ADP4000     0.2231
      6  O1A       17.2960   31.8560   72.0620 O.2   4000  ADP4000    -0.5169
      7  O2A       15.0180   30.9330   72.2050 O.3   4000  ADP4000    -0.4370
      8  O3A       16.6510   29.8580   70.6850 O.3   4000  ADP4000    -0.2261
      9  O5'       15.6920   32.0420   70.0950 O.3   4000  ADP4000    -0.3111
     10  C5'       16.6740   32.5580   69.1260 C.3   4000  ADP4000     0.1813
     11  C4'       16.4570   34.0420   68.7930 C.3   4000  ADP4000     0.1821
     12  O4'       15.1360   34.2250   68.2440 O.3   4000  ADP4000    -0.3135
     13  C3'       16.5040   35.0250   69.9580 C.3   4000  ADP4000     0.2184
     14  O3'       17.9230   35.3140   70.2780 O.3   4000  ADP4000    -0.2174
     15  C2'       15.6480   36.1680   69.4310 C.3   4000  ADP4000     0.2570
     16  O2'       16.3430   37.1900   68.6360 O.3   4000  ADP4000    -0.2130
     17  C1'       14.6680   35.4890   68.5080 C.3   4000  ADP4000     0.3186
     18  N9        13.3130   35.3830   68.9980 N.pl3 4000  ADP4000    -0.1439
     19  C8        12.8010   34.5040   69.8990 C.3   4000  ADP4000     0.3377
     20  N7        11.4890   34.6230   70.0710 N.2   4000  ADP4000    -0.2095
     21  C5        11.1460   35.6850   69.2460 C.2   4000  ADP4000     0.2526
     22  C6         9.8930   36.2980   69.0020 C.2   4000  ADP4000     0.4393
     23  N6         8.7460   35.8990   69.6040 N.pl3 4000  ADP4000     0.2180
     24  N1         9.9340   37.3230   68.1080 N.2   4000  ADP4000     0.0021
     25  C2        11.1270   37.6780   67.5270 C.3   4000  ADP4000     0.5254
     26  N3        12.3080   37.1680   67.6920 N.2   4000  ADP4000    -0.0055
     27  C4        12.2630   36.1720   68.5860 C.2   4000  ADP4000     0.3518
@<TRIPOS>BOND
     1    25    26    1
     2    25    24    1
     3    26    27    2
     4    24    22    2
     5    12    17    1
     6    12    11    1
     7    17    18    1
     8    17    15    1
     9    27    18    1
    10    27    21    1
    11    16    15    1
    12    11    10    1
    13    11    13    1
    14    18    19    1
    15    22    21    1
    16    22    23    1
    17    10     9    1
    18    21    20    2
    19    15    13    1
    20     3     1    2
    21    19    20    1
    22    13    14    1
    23     9     5    1
    24     8     1    1
    25     8     5    1
    26     1     2    1
    27     1     4    1
    28     5     6    2
    29     5     7    1
