@<TRIPOS>MOLECULE
1c3r_TSN_A_1.pdb
 22 22 0 0 0
SMALL
GASTEIGER

@<TRIPOS>ATOM
      1  O1        47.6690    8.1890  109.4640 O.3   502  TSN502     -0.4024
      2  O2        49.9520    6.9810  108.3400 O.2   502  TSN502     -0.5359
      3  O3        52.4580    5.1010  101.6670 O.2   502  TSN502     -0.2910
      4  N1        47.8000    7.7890  108.1310 N.am  502  TSN502     -0.1984
      5  N2        53.0130   -1.3290  101.2590 N.pl3 502  TSN502     -0.3041
      6  C1        51.8590    2.7990  101.6100 C.ar  502  TSN502      0.0351
      7  C2        50.9070    1.7690  101.6660 C.ar  502  TSN502      0.0041
      8  C3        51.2410    0.4190  101.5510 C.ar  502  TSN502      0.0146
      9  C4        52.6260    0.0260  101.3660 C.ar  502  TSN502      0.0479
     10  C5        53.5890    1.0800  101.3030 C.ar  502  TSN502      0.0146
     11  C6        53.2180    2.4080  101.4180 C.ar  502  TSN502      0.0041
     12  C7        51.5720    4.2610  101.7340 C.2   502  TSN502      0.1766
     13  C8        50.1080    4.7260  101.9960 C.3   502  TSN502      0.0835
     14  C9        50.0520    5.4210  103.3380 C.2   502  TSN502     -0.0230
     15  C10       49.0600    5.3570  104.2790 C.2   502  TSN502     -0.0256
     16  C11       49.3150    6.1550  105.5040 C.2   502  TSN502     -0.0026
     17  C12       48.5150    6.1840  106.5950 C.2   502  TSN502      0.0242
     18  C13       48.8550    6.9940  107.7560 C.2   502  TSN502      0.1102
     19  C14       49.6800    5.6930  100.8640 C.3   502  TSN502      0.0128
     20  C15       47.7760    4.5450  104.1320 C.3   502  TSN502      0.0307
     21  C17       54.4380   -1.7030  101.1390 C.3   502  TSN502      0.1122
     22  C16       52.0440   -2.4160  101.3160 C.3   502  TSN502      0.1122
@<TRIPOS>BOND
     1    19    13    1
     2    21     5    1
     3     5    22    1
     4     5     9    1
     5    10     9   ar
     6    10    11   ar
     7     9     8   ar
     8    11     6   ar
     9     8     7   ar
    10     6     7   ar
    11     6    12    1
    12     3    12    2
    13    12    13    1
    14    13    14    1
    15    14    15    2
    16    20    15    1
    17    15    16    1
    18    16    17    2
    19    17    18    1
    20    18     4   am
    21    18     2    2
    22     4     1    1
