@<TRIPOS>MOLECULE
1c3s_SHH_A_1.pdb
 19 19 0 0 0
SMALL
GASTEIGER

@<TRIPOS>ATOM
      1  O1        24.5780   33.2950   53.4580 O.3   952  SHH952     -0.4026
      2  O2        24.2940   35.2180   51.4440 O.2   952  SHH952     -0.5396
      3  N1        24.5780   33.0850   52.0690 N.am  952  SHH952     -0.2030
      4  C1        24.0630   34.0530   51.2460 C.2   952  SHH952      0.0868
      5  C2        23.0900   33.6250   50.2590 C.3   952  SHH952      0.0512
      6  C3        23.5480   33.7810   48.8160 C.3   952  SHH952      0.0067
      7  C4        22.4980   33.2740   47.8520 C.3   952  SHH952      0.0004
      8  C5        21.5900   34.4130   47.4550 C.3   952  SHH952      0.0005
      9  C6        21.0610   34.0170   46.0920 C.3   952  SHH952      0.0096
     10  C7        19.7540   34.7140   45.7870 C.3   952  SHH952      0.0872
     11  C8        19.9600   35.7200   44.6930 C.2   952  SHH952      0.2456
     12  O3        20.3810   35.4670   43.5750 O.2   952  SHH952     -0.2730
     13  N2        19.5910   36.9560   45.0850 N.am  952  SHH952     -0.1792
     14  C9        19.8420   38.3300   44.5070 C.ar  952  SHH952      0.0734
     15  C10       19.2430   39.4310   45.2150 C.ar  952  SHH952      0.0166
     16  C11       19.4230   40.8040   44.7270 C.ar  952  SHH952      0.0013
     17  C12       20.1690   41.0850   43.5450 C.ar  952  SHH952      0.0001
     18  C13       20.7550   39.9420   42.8270 C.ar  952  SHH952      0.0013
     19  C14       20.6120   38.5460   43.3040 C.ar  952  SHH952      0.0166
@<TRIPOS>BOND
     1    18    19   ar
     2    18    17   ar
     3    19    14   ar
     4    17    16   ar
     5    12    11    2
     6    14    13    1
     7    14    15   ar
     8    11    13   am
     9    11    10    1
    10    16    15   ar
    11    10     9    1
    12     9     8    1
    13     8     7    1
    14     7     6    1
    15     6     5    1
    16     5     4    1
    17     4     2    2
    18     4     3   am
    19     3     1    1
