@<TRIPOS>MOLECULE
1c3v_NDP_A_1.pdb
 48 52 0 0 0
SMALL
GASTEIGER

@<TRIPOS>ATOM
      1  PA       138.8110   16.2730   24.8110 P.3   801  NDP801      0.2189
      2  O1A      139.0870   15.4390   23.6170 O.2   801  NDP801     -0.5170
      3  O2A      137.5950   15.9710   25.6030 O.3   801  NDP801     -0.4371
      4  O5B      140.0810   16.3350   25.7510 O.3   801  NDP801     -0.3112
      5  C5B      141.3900   16.4640   25.0210 C.3   801  NDP801      0.1813
      6  C4B      142.5870   15.6330   25.4180 C.3   801  NDP801      0.1820
      7  O4B      143.2490   16.2520   26.5710 O.3   801  NDP801     -0.3136
      8  C3B      142.1180   14.2110   25.9390 C.3   801  NDP801      0.2157
      9  O3B      142.9200   13.3090   25.2000 O.3   801  NDP801     -0.2175
     10  C2B      142.6980   14.1130   27.3430 C.3   801  NDP801      0.2314
     11  O2B      142.8680   12.8590   27.9780 O.3   801  NDP801     -0.2630
     12  C1B      143.6270   15.2280   27.4720 C.3   801  NDP801      0.3158
     13  N9A      144.6270   15.4550   28.5360 N.pl3 801  NDP801     -0.1439
     14  C8A      144.0590   15.6980   29.7400 C.3   801  NDP801      0.3377
     15  N7A      144.9320   16.1510   30.6800 N.2   801  NDP801     -0.2095
     16  C5A      146.0740   16.0690   30.0110 C.2   801  NDP801      0.2526
     17  C6A      147.3140   16.3750   30.4990 C.2   801  NDP801      0.4393
     18  N6A      147.5080   16.8270   31.7360 N.pl3 801  NDP801      0.2180
     19  N1A      148.3970   16.2210   29.6920 N.2   801  NDP801      0.0021
     20  C2A      148.1180   15.9450   28.3960 C.3   801  NDP801      0.5254
     21  N3A      146.9360   15.4820   27.9200 N.2   801  NDP801     -0.0055
     22  C4A      145.9060   15.6520   28.7650 C.2   801  NDP801      0.3518
     23  O3       138.7300   17.8220   24.3480 O.3   801  NDP801     -0.2703
     24  PN       138.5280   18.4670   22.8870 P.3   801  NDP801      0.2189
     25  O1N      137.0690   18.5480   22.6220 O.3   801  NDP801     -0.4371
     26  O2N      139.3680   17.7000   21.9360 O.2   801  NDP801     -0.5170
     27  O5D      139.1280   19.9200   23.0880 O.3   801  NDP801     -0.3112
     28  C5D      139.6870   20.2180   24.4580 C.3   801  NDP801      0.1813
     29  C4D      139.7820   21.6390   24.9780 C.3   801  NDP801      0.1799
     30  O4D      140.1060   22.5650   23.8900 O.3   801  NDP801     -0.3327
     31  C3D      138.5190   22.2080   25.6080 C.3   801  NDP801      0.2158
     32  O3D      138.8160   23.1550   26.6060 O.3   801  NDP801     -0.2175
     33  C2D      137.8430   22.8500   24.3960 C.3   801  NDP801      0.2309
     34  O2D      136.8340   23.7680   24.7740 O.3   801  NDP801     -0.2158
     35  C1D      139.0280   23.5390   23.7360 C.3   801  NDP801      0.2263
     36  N1N      138.8670   23.8280   22.2950 N.pl3 801  NDP801     -0.2787
     37  C2N      139.2870   25.0240   21.8180 C.3   801  NDP801      0.1244
     38  C3N      139.2440   25.4220   20.5310 C.2   801  NDP801      0.0544
     39  C7N      139.7110   26.6320   20.0540 C.2   801  NDP801      0.2818
     40  O7N      139.6180   26.9260   18.6550 O.2   801  NDP801     -0.2670
     41  N7N      140.2390   27.4510   20.9660 N.am  801  NDP801     -0.0839
     42  C4N      138.7040   24.4740   19.7110 C.2   801  NDP801      0.0033
     43  C5N      138.2360   23.2180   20.1000 C.2   801  NDP801      0.0157
     44  C6N      138.3320   22.8940   21.4650 C.2   801  NDP801      0.0633
     45  P2B      141.7350   12.2770   28.9040 P.3   801  NDP801      0.5328
     46  O1X      141.9420   12.9040   30.2390 O.3   801  NDP801     -0.1145
     47  O2X      140.4430   12.6770   28.2790 O.2   801  NDP801     -0.2224
     48  O3X      141.9380   10.8080   28.9130 O.3   801  NDP801     -0.1145
@<TRIPOS>BOND
     1    40    39    2
     2    42    43    1
     3    42    38    2
     4    39    38    1
     5    39    41   am
     6    43    44    2
     7    38    37    1
     8    44    36    1
     9    37    36    1
    10    26    24    2
    11    36    35    1
    12    25    24    1
    13    24    27    1
    14    24    23    1
    15    27    28    1
    16     2     1    2
    17    35    30    1
    18    35    33    1
    19    30    29    1
    20    23     1    1
    21    33    34    1
    22    33    31    1
    23    28    29    1
    24     1     3    1
    25     1     4    1
    26    29    31    1
    27     5     6    1
    28     5     4    1
    29     9     8    1
    30     6     8    1
    31     6     7    1
    32    31    32    1
    33     8    10    1
    34     7    12    1
    35    10    12    1
    36    10    11    1
    37    12    13    1
    38    21    20    1
    39    21    22    2
    40    11    45    1
    41    47    45    2
    42    20    19    1
    43    13    22    1
    44    13    14    1
    45    22    16    1
    46    45    48    1
    47    45    46    1
    48    19    17    2
    49    14    15    1
    50    16    17    1
    51    16    15    2
    52    17    18    1
