@<TRIPOS>MOLECULE
1c3v_PDC_A_1.pdb
 12 12 0 0 0
SMALL
GASTEIGER

@<TRIPOS>ATOM
      1  N1       134.7830   25.1740   22.4330 N.2   802  PDC802     -0.3925
      2  C2       134.9010   26.5690   22.1080 C.2   802  PDC802      0.2102
      3  C3       135.0350   26.9650   20.7540 C.2   802  PDC802      0.0347
      4  C4       135.0400   25.9880   19.7350 C.2   802  PDC802     -0.0156
      5  C5       134.9300   24.6120   20.0440 C.3   802  PDC802      0.0920
      6  C6       134.8010   24.1820   21.4060 C.2   802  PDC802      0.1927
      7  C7       134.8780   27.4740   23.1480 C.2   802  PDC802      0.4168
      8  O1       134.7540   27.0500   24.4330 O.co2 802  PDC802     -0.2377
      9  O2       134.9810   28.8120   22.8990 O.co2 802  PDC802     -0.2377
     10  C8       134.6700   22.8260   21.7820 C.2   802  PDC802      0.4130
     11  O3       134.5520   22.4580   23.0970 O.co2 802  PDC802     -0.2380
     12  O4       134.6790   21.8410   20.8280 O.co2 802  PDC802     -0.2380
@<TRIPOS>BOND
     1     4     5    1
     2     4     3    2
     3     5     6    1
     4     3     2    1
     5    12    10   ar
     6     6    10    1
     7     6     1    2
     8    10    11   ar
     9     2     1    2
    10     2     7    1
    11     9     7   ar
    12     7     8   ar
