@<TRIPOS>MOLECULE
1c3w_RET_A_1.pdb
 20 20 0 0 0
SMALL
GASTEIGER

@<TRIPOS>ATOM
      1  C1        14.8680   45.1360    0.2270 C.3   301  RET301      0.0183
      2  C2        14.6740   46.0870   -0.9440 C.3   301  RET301      0.0044
      3  C3        14.0550   47.3760   -0.6140 C.3   301  RET301      0.0047
      4  C4        14.7290   48.0680    0.5290 C.3   301  RET301      0.0217
      5  C5        14.9080   47.1760    1.7400 C.2   301  RET301     -0.0479
      6  C6        15.0730   45.8500    1.5730 C.2   301  RET301     -0.0307
      7  C7        15.4810   45.1450    2.7770 C.2   301  RET301     -0.0052
      8  C8        15.6570   43.8150    2.9400 C.2   301  RET301     -0.0049
      9  C9        16.1580   43.1450    4.1230 C.2   301  RET301     -0.0258
     10  C10       16.3530   41.8150    3.9470 C.2   301  RET301     -0.0257
     11  C11       16.8300   40.9730    5.0620 C.3   301  RET301      0.0510
     12  C12       16.9430   39.6510    4.7060 C.2   301  RET301     -0.0299
     13  C13       17.4210   38.6540    5.6560 C.2   301  RET301     -0.0478
     14  C14       17.4230   37.3910    5.1590 C.3   301  RET301      0.0217
     15  C15       17.3750   36.2430    6.0550 C.3   301  RET301      0.0047
     16  C16       13.6010   44.2180    0.3420 C.3   301  RET301      0.0043
     17  C17       16.1100   44.2750   -0.2470 C.3   301  RET301      0.0043
     18  C18       15.1220   48.0010    2.9550 C.3   301  RET301      0.0260
     19  C19       16.5220   43.8890    5.3590 C.3   301  RET301      0.0307
     20  C20       17.8110   39.0270    7.0310 C.3   301  RET301      0.0260
@<TRIPOS>BOND
     1     2     3    1
     2     2     1    1
     3     3     4    1
     4    17     1    1
     5     1    16    1
     6     1     6    1
     7     4     5    1
     8     6     5    2
     9     6     7    1
    10     5    18    1
    11     7     8    2
    12     8     9    1
    13    10     9    2
    14    10    11    1
    15     9    19    1
    16    12    11    1
    17    12    13    2
    18    14    13    1
    19    14    15    1
    20    13    20    1
