@<TRIPOS>MOLECULE
1c3x_8IG_A_1.pdb
 12 13 0 0 0
SMALL
GASTEIGER

@<TRIPOS>ATOM
      1  I         11.5710  -22.0780    0.2450 I     306  8IG306      0.0729
      2  O6        12.8870  -17.6580   -4.0870 O.2   306  8IG306     -0.2051
      3  C8        11.7540  -20.0820   -0.4660 C.1   306  8IG306      0.1798
      4  N9        11.4030  -18.9810    0.2830 N.2   306  8IG306     -0.2655
      5  N2        11.5660  -14.4200   -1.0230 N.pl3 306  8IG306     -0.0220
      6  N1        12.2190  -16.0950   -2.5220 N.2   306  8IG306     -0.2465
      7  C2        11.7280  -15.7480   -1.2290 C.1   306  8IG306      0.2618
      8  N3        11.4390  -16.6470   -0.2180 N.2   306  8IG306     -0.2543
      9  C4        11.6570  -17.9640   -0.5910 C.1   306  8IG306      0.2058
     10  C5        12.1240  -18.4460   -1.7910 C.2   306  8IG306      0.3235
     11  C6        12.4490  -17.4500   -2.8850 C.1   306  8IG306      0.2590
     12  N7        12.1700  -19.8240   -1.7120 N.2   306  8IG306     -0.3094
@<TRIPOS>BOND
     1     2    11    2
     2    11     6    2
     3    11    10    1
     4     6     7    2
     5    10    12    2
     6    10     9    1
     7    12     3    2
     8     7     5    1
     9     7     8    2
    10     9     8    2
    11     9     4    2
    12     3     1    1
    13     3     4    2
