@<TRIPOS>MOLECULE
1c40_HEM_A_1.pdb
 43 50 0 0 0
SMALL
GASTEIGER

@<TRIPOS>ATOM
      1 FE        -17.6200   44.8430   13.0600 Fe    150  HEM150      0.0000
      2  CHA      -20.0270   46.8950   11.9240 C.2   150  HEM150      0.0000
      3  CHB      -18.1210   42.7820   10.3690 C.2   150  HEM150      0.0000
      4  CHC      -15.1960   42.7990   14.1810 C.2   150  HEM150      0.0000
      5  CHD      -17.5040   46.5710   15.9810 C.2   150  HEM150      0.0000
      6  NA       -18.7720   44.9020   11.4480 N.ar  150  HEM150      0.0000
      7  C1A      -19.7130   45.8230   11.1310 C.ar  150  HEM150      0.0000
      8  C2A      -20.4790   45.4210    9.9650 C.ar  150  HEM150      0.0000
      9  C3A      -19.9060   44.2890    9.4870 C.ar  150  HEM150      0.0000
     10  C4A      -18.8750   43.9490   10.4340 C.ar  150  HEM150      0.0000
     11  CMA      -20.3260   43.4730    8.2670 C.3   150  HEM150      0.0000
     12  CAA      -21.8620   45.9110    9.6100 C.3   150  HEM150      0.0000
     13  CBA      -21.8940   46.8780    8.4580 C.3   150  HEM150      0.0000
     14  CGA      -23.3010   47.3690    8.1540 C.2   150  HEM150      0.0000
     15  O1A      -23.4590   48.0600    7.1260 O.co2 150  HEM150      0.0000
     16  O2A      -24.2440   47.0750    8.9350 O.co2 150  HEM150      0.0000
     17  NB       -16.8420   43.1440   12.3900 N.2   150  HEM150      0.0000
     18  C1B      -17.1490   42.4240   11.2680 C.2   150  HEM150      0.0000
     19  C2B      -16.2260   41.3180   11.0820 C.2   150  HEM150      0.0000
     20  C3B      -15.3780   41.3480   12.1470 C.2   150  HEM150      0.0000
     21  C4B      -15.7940   42.4650   12.9510 C.2   150  HEM150      0.0000
     22  CMB      -16.1420   40.3850    9.8560 C.3   150  HEM150      0.0000
     23  CAB      -14.2550   40.5700   12.4180 C.3   150  HEM150      0.0000
     24  CBB      -14.0050   39.1660   11.9290 C.3   150  HEM150      0.0000
     25  NC       -16.4640   44.7660   14.7080 N.ar  150  HEM150      0.0000
     26  C1C      -15.4860   43.8420   15.0200 C.ar  150  HEM150      0.0000
     27  C2C      -15.0020   43.9350   16.3880 C.ar  150  HEM150      0.0000
     28  C3C      -15.6900   44.9950   16.9410 C.ar  150  HEM150      0.0000
     29  C4C      -16.5850   45.5160   15.8600 C.ar  150  HEM150      0.0000
     30  CMC      -13.9850   42.9960   17.0790 C.3   150  HEM150      0.0000
     31  CAC      -15.5860   45.5410   18.2380 C.3   150  HEM150      0.0000
     32  CBC      -15.4830   44.8070   19.5590 C.3   150  HEM150      0.0000
     33  ND       -18.5200   46.4480   13.7830 N.2   150  HEM150      0.0000
     34  C1D      -18.4110   47.0030   15.0340 C.2   150  HEM150      0.0000
     35  C2D      -19.4150   48.0440   15.2400 C.2   150  HEM150      0.0000
     36  C3D      -20.1040   48.1250   14.0520 C.2   150  HEM150      0.0000
     37  C4D      -19.5240   47.1720   13.1700 C.2   150  HEM150      0.0000
     38  CMD      -19.6420   48.8620   16.5290 C.3   150  HEM150      0.0000
     39  CAD      -21.3110   48.9830   13.6860 C.3   150  HEM150      0.0000
     40  CBD      -22.5770   48.3250   14.1860 C.3   150  HEM150      0.0000
     41  CGD      -23.8070   49.1540   13.9090 C.2   150  HEM150      0.0000
     42  O1D      -23.7850   50.3640   14.2050 O.co2 150  HEM150      0.0000
     43  O2D      -24.8000   48.5900   13.4060 O.co2 150  HEM150      0.0000
@<TRIPOS>BOND
     1    15    14   ar
     2    14    13    1
     3    14    16   ar
     4    11     9    1
     5    13    12    1
     6     9     8   ar
     7     9    10   ar
     8    12     8    1
     9    22    19    1
    10     8     7   ar
    11     3    10    2
    12     3    18    1
    13    10     6   ar
    14    19    18    1
    15    19    20    2
    16     7     6   ar
    17     7     2    2
    18    18    17    2
    19     6     1    1
    20     2    37    1
    21    24    23    1
    22    20    23    1
    23    20    21    1
    24    17    21    1
    25    17     1    1
    26    21     4    2
    27     1    33    1
    28     1    25    1
    29    37    33    2
    30    37    36    1
    31    43    41   ar
    32    39    36    1
    33    39    40    1
    34    33    34    1
    35    41    40    1
    36    41    42   ar
    37    36    35    2
    38     4    26    1
    39    25    26   ar
    40    25    29   ar
    41    26    27   ar
    42    34    35    1
    43    34     5    2
    44    35    38    1
    45    29     5    1
    46    29    28   ar
    47    27    28   ar
    48    27    30    1
    49    28    31    1
    50    31    32    1
