@<TRIPOS>MOLECULE
1c41_LMZ_A_1.pdb
 20 20 0 0 0
SMALL
GASTEIGER

@<TRIPOS>ATOM
      1  N1         8.6510   15.3930   67.0870 N.2   201  LMZ201     -0.2886
      2  C2         9.1920   16.3170   66.2200 C.1   201  LMZ201      0.3668
      3  N3        10.5200   16.2250   65.9900 N.2   201  LMZ201     -0.2310
      4  C4        11.3630   15.2850   66.5590 C.1   201  LMZ201      0.2426
      5  C5        10.7430   14.2940   67.5130 C.2   201  LMZ201      0.2644
      6  C6         9.3530   14.4270   67.7930 C.2   201  LMZ201      0.2481
      7  N7         8.6490   13.6900   68.7170 N.pl3 201  LMZ201     -0.2041
      8  C8         7.9260   12.5470   68.0830 C.3   201  LMZ201      0.1504
      9  C9         6.3500   12.7180   68.0760 C.3   201  LMZ201      0.2063
     10  O9         6.0730   13.8940   67.3630 O.3   201  LMZ201     -0.2184
     11  C10        5.3880   12.6800   69.3380 C.3   201  LMZ201      0.2166
     12  O10        5.5780   13.8160   70.1490 O.3   201  LMZ201     -0.2175
     13  C11        5.0970   11.3410   70.2440 C.3   201  LMZ201      0.2175
     14  O11        5.9270   10.4650   69.4840 O.3   201  LMZ201     -0.2175
     15  C12        3.7710   10.4770   70.2860 C.3   201  LMZ201      0.2175
     16  O12        2.7810   11.3630   69.8430 O.3   201  LMZ201     -0.2175
     17  N5        11.6250   13.3540   68.1290 N.2   201  LMZ201     -0.0123
     18  O52       11.1570   12.5310   68.9150 O.2   201  LMZ201     -0.1423
     19  O4        12.6930   15.3730   66.1760 O.2   201  LMZ201     -0.2067
     20  O2         8.3200   17.2260   65.6740 O.2   201  LMZ201     -0.1744
@<TRIPOS>BOND
     1    20     2    2
     2     3     2    2
     3     3     4    2
     4    19     4    2
     5     2     1    2
     6     4     5    1
     7     1     6    2
     8    10     9    1
     9     5     6    1
    10     5    17    2
    11     6     7    1
    12     9     8    1
    13     9    11    1
    14     8     7    1
    15    17    18    1
    16    11    12    1
    17    11    13    1
    18    14    13    1
    19    16    15    1
    20    13    15    1
