@<TRIPOS>MOLECULE
1c47_G16_A_1.pdb
 20 20 0 0 0
SMALL
GASTEIGER

@<TRIPOS>ATOM
      1  C1        39.3660   69.1210   75.3540 C.3   563  G16563      0.2781
      2  C2        39.7860   70.5180   74.8500 C.3   563  G16563      0.2410
      3  C3        38.6680   71.1160   73.9820 C.3   563  G16563      0.2198
      4  C4        38.1480   70.1530   72.8910 C.3   563  G16563      0.2143
      5  C5        37.7830   68.7250   73.4390 C.3   563  G16563      0.1807
      6  C6        37.4760   67.7800   72.2250 C.3   563  G16563      0.1859
      7  O1        38.3310   69.4090   76.2660 O.3   563  G16563     -0.2416
      8  O2        40.0130   71.4330   75.9580 O.3   563  G16563     -0.2149
      9  O3        39.3280   72.2040   73.3050 O.3   563  G16563     -0.2174
     10  O4        37.1530   70.7230   72.2030 O.3   563  G16563     -0.2176
     11  O5        38.9310   68.2900   74.2440 O.3   563  G16563     -0.3254
     12  O6        38.3150   68.0450   71.2270 O.3   563  G16563     -0.2675
     13  P         37.8820   67.8580   69.7510 P.3   563  G16563      0.5327
     14  O1P       37.1380   66.5220   69.6040 O.3   563  G16563     -0.1145
     15  O2P       39.1330   67.8380   68.8560 O.2   563  G16563     -0.2224
     16  O3P       36.9850   69.0130   69.3240 O.3   563  G16563     -0.1145
     17  P'        38.1640   68.6320   77.5220 P.3   563  G16563      0.5346
     18  O1X       39.4630   67.9620   77.9240 O.3   563  G16563     -0.1145
     19  O2X       37.6730   69.5270   78.6300 O.3   563  G16563     -0.1145
     20  O3X       37.1250   67.5410   77.3030 O.2   563  G16563     -0.2223
@<TRIPOS>BOND
     1    15    13    2
     2    16    13    1
     3    14    13    1
     4    13    12    1
     5    12     6    1
     6    10     4    1
     7     6     5    1
     8     4     5    1
     9     4     3    1
    10     9     3    1
    11     5    11    1
    12     3     2    1
    13    11     1    1
    14     2     1    1
    15     2     8    1
    16     1     7    1
    17     7    17    1
    18    20    17    2
    19    17    18    1
    20    17    19    1
