@<TRIPOS>MOLECULE
1c4a_HC1_A_1.pdb
 16 16 0 0 0
SMALL
GASTEIGER

@<TRIPOS>ATOM
      1 FE1        51.6880   22.1960   17.7530 Fe    580  HC1580      0.0000
      2 FE2        49.5180   21.9530   19.1660 Fe    580  HC1580      0.0000
      3  S1        49.7480   23.3750   17.3690 S.3   580  HC1580      0.0000
      4  S2        51.3460   23.1290   19.8940 S.3   580  HC1580      0.0000
      5  O1        50.1600   25.3750   19.0820 O.3   580  HC1580      0.0000
      6  O2        48.0010   23.8260   20.3020 O.3   580  HC1580      0.0000
      7  O3        54.1580   20.9030   18.5240 O.3   580  HC1580      0.0000
      8  O4        51.6810   21.0360   15.0160 O.3   580  HC1580      0.0000
      9  O5        50.8120   19.3030   18.3830 O.2   580  HC1580      0.0000
     10  O6        49.6130   20.2800   21.6190 O.3   580  HC1580      0.0000
     11  O7        47.1700   20.5810   18.0200 O.3   580  HC1580      0.0000
     12  C3        53.2200   21.3850   18.2240 C.3   580  HC1580      0.0000
     13  C4        51.7060   21.4760   16.0530 C.3   580  HC1580      0.0000
     14  C5        50.6760   20.4130   18.3050 C.2   580  HC1580      0.0000
     15  C6        49.5570   20.9180   20.6880 C.3   580  HC1580      0.0000
     16  C7        48.0630   21.0950   18.4640 C.3   580  HC1580      0.0000
@<TRIPOS>BOND
     1     8    13    1
     2    13     1    1
     3     3     1    1
     4     3     2    1
     5     1    12    1
     6     1    14    1
     7     1     2    1
     8     1     4    1
     9    11    16    1
    10    12     7    1
    11    14     9    2
    12    14     2    1
    13    16     2    1
    14     2     4    1
    15     2    15    1
    16    15    10    1
