@<TRIPOS>MOLECULE
1c4c_HC0_A_1.pdb
 17 17 0 0 0
SMALL
GASTEIGER

@<TRIPOS>ATOM
      1 FE1        51.6830   22.2030   17.7170 Fe    580  HC0580      0.0000
      2 FE2        49.5490   21.9310   19.1730 Fe    580  HC0580      0.0000
      3  S1        49.7070   23.3480   17.3500 S.3   580  HC0580      0.0000
      4  S2        51.3110   23.2130   19.8760 S.3   580  HC0580      0.0000
      5  O1        50.0760   25.4050   19.0070 O.3   580  HC0580      0.0000
      6  O8        47.7800   23.9430   20.3390 O.3   580  HC0580      0.0000
      7  O3        54.1720   20.8530   18.5280 O.3   580  HC0580      0.0000
      8  O4        51.5920   21.0500   14.9810 O.3   580  HC0580      0.0000
      9  O5        50.6120   19.3950   17.9230 O.3   580  HC0580      0.0000
     10  O6        49.6360   20.2380   21.6210 O.3   580  HC0580      0.0000
     11  O7        47.2960   20.4010   18.0840 O.3   580  HC0580      0.0000
     12  C3        53.2330   21.3720   18.2090 C.3   580  HC0580      0.0000
     13  C4        51.6490   21.4790   16.0350 C.3   580  HC0580      0.0000
     14  C5        50.7950   20.3990   18.3900 C.3   580  HC0580      0.0000
     15  C6        49.5780   20.9030   20.7060 C.3   580  HC0580      0.0000
     16  C7        48.1400   20.9940   18.4930 C.3   580  HC0580      0.0000
     17  C8        48.4650   23.1690   19.9090 C.3   580  HC0580      0.0000
@<TRIPOS>BOND
     1     8    13    1
     2    13     1    1
     3     3     1    1
     4     3     2    1
     5     1    12    1
     6     1    14    1
     7     1     4    1
     8     9    14    1
     9    11    16    1
    10    12     7    1
    11    14     2    1
    12    16     2    1
    13     2     4    1
    14     2    17    1
    15     2    15    1
    16    17     6    1
    17    15    10    1
