@<TRIPOS>MOLECULE
1c4g_VG1_A_1.pdb
 20 20 0 0 0
SMALL
GASTEIGER

@<TRIPOS>ATOM
      1  C1        39.5480   68.7560   74.4120 C.3   563  VG1563      0.0000
      2  C2        39.9780   70.1640   73.9170 C.3   563  VG1563      0.0000
      3  C3        38.7520   70.8760   73.2760 C.3   563  VG1563      0.0000
      4  C4        38.2180   69.9560   72.1570 C.3   563  VG1563      0.0000
      5  C5        37.9000   68.5470   72.6810 C.3   563  VG1563      0.0000
      6  C6        37.3640   67.7350   71.5780 C.3   563  VG1563      0.0000
      7  O1        38.4020   68.8640   75.2810 O.3   563  VG1563      0.0000
      8  O2        40.3900   70.8880   75.1060 O.3   563  VG1563      0.0000
      9  O3        39.2380   72.0950   72.6450 O.3   563  VG1563      0.0000
     10  O4        37.0980   70.4960   71.4390 O.3   563  VG1563      0.0000
     11  O5        39.1830   68.0170   73.2460 O.3   563  VG1563      0.0000
     12  O6        38.4530   67.4190   70.7660 O.3   563  VG1563      0.0000
     13  P         38.4640   68.0860   76.5580 P.3   563  VG1563      0.0000
     14  OP1       39.7440   67.3120   76.6210 O.3   563  VG1563      0.0000
     15  OP2       38.3770   69.0580   77.6940 O.3   563  VG1563      0.0000
     16  OP3       37.3150   67.1260   76.6160 O.2   563  VG1563      0.0000
     17  V         38.5520   66.5400   69.1070 V     563  VG1563      0.0000
     18  OV1       39.5910   67.5910   68.2050 O.3   563  VG1563      0.0000
     19  OV2       39.2550   65.2780   70.0290 O.3   563  VG1563      0.0000
     20  OV3       36.8280   66.7340   68.9980 O.3   563  VG1563      0.0000
@<TRIPOS>BOND
     1    18    17    1
     2    20    17    1
     3    17    19    1
     4    17    12    1
     5    12     6    1
     6    10     4    1
     7     6     5    1
     8     4     5    1
     9     4     3    1
    10     9     3    1
    11     5    11    1
    12    11     1    1
    13     3     2    1
    14     2     1    1
    15     2     8    1
    16     1     7    1
    17     7    13    1
    18    13    16    2
    19    13    14    1
    20    13    15    1
