@<TRIPOS>MOLECULE
1c4k_PLP_A_1.pdb
 14 14 0 0 0
SMALL
GASTEIGER

@<TRIPOS>ATOM
      1  N1        84.1000   23.2250   38.5860 N.ar  955  PLP955     -0.2484
      2  C2        83.0150   23.5050   37.7410 C.ar  955  PLP955      0.0591
      3  C2A       82.0600   22.4280   37.3090 C.3   955  PLP955      0.0521
      4  C3        82.8530   24.7830   37.2430 C.ar  955  PLP955      0.0103
      5  C4        83.7590   25.7940   37.5400 C.ar  955  PLP955     -0.0208
      6  C4A       83.4920   27.2680   37.0110 C.3   955  PLP955      0.0309
      7  C5        84.8540   25.4880   38.3650 C.ar  955  PLP955      0.0231
      8  C6        85.0090   24.2140   38.8950 C.ar  955  PLP955      0.0963
      9  C5A       85.9240   26.5670   38.6430 C.3   955  PLP955      0.1814
     10  O4P       85.3040   27.4860   39.5100 O.3   955  PLP955     -0.2653
     11  P         85.7790   28.8990   39.5390 P.3   955  PLP955      0.5329
     12  O1P       85.1820   29.4340   38.3540 O.2   955  PLP955     -0.2224
     13  O2P       87.1390   29.3460   39.7310 O.3   955  PLP955     -0.1145
     14  O3P       84.9650   29.4020   40.6440 O.3   955  PLP955     -0.1145
@<TRIPOS>BOND
     1     6     5    1
     2     4     5   ar
     3     4     2   ar
     4     3     2    1
     5     5     7   ar
     6     2     1   ar
     7    12    11    2
     8     7     9    1
     9     7     8   ar
    10     1     8   ar
    11     9    10    1
    12    10    11    1
    13    11    13    1
    14    11    14    1
