@<TRIPOS>MOLECULE
1c4k_GTP_A_1.pdb
 32 34 0 0 0
SMALL
GASTEIGER

@<TRIPOS>ATOM
      1  PG        85.1110   17.7560   63.9370 P.3   999  GTP999      0.5373
      2  O1G       83.6950   17.5690   64.3470 O.3   999  GTP999     -0.1143
      3  O2G       85.3810   17.9530   62.4970 O.2   999  GTP999     -0.2221
      4  O3G       85.9450   16.4860   64.5590 O.3   999  GTP999     -0.1143
      5  O3B       85.8320   19.0150   64.6910 O.3   999  GTP999     -0.2258
      6  PB        84.9980   19.7700   65.8560 P.3   999  GTP999      0.2277
      7  O1B       84.0940   20.7120   65.1790 O.2   999  GTP999     -0.5168
      8  O2B       84.3910   18.7720   66.7840 O.3   999  GTP999     -0.4368
      9  O3A       86.0030   20.6460   66.7850 O.3   999  GTP999     -0.2700
     10  PA        87.3620   21.2820   66.1840 P.3   999  GTP999      0.2189
     11  O1A       88.1210   21.8560   67.2870 O.3   999  GTP999     -0.4371
     12  O2A       88.0390   20.3450   65.2660 O.2   999  GTP999     -0.5170
     13  O5'       86.6830   22.4650   65.3770 O.3   999  GTP999     -0.3112
     14  C5'       85.9960   23.4990   66.0860 C.3   999  GTP999      0.1813
     15  C4'       86.3240   24.8100   65.4070 C.3   999  GTP999      0.1799
     16  O4'       85.8590   24.8270   64.0590 O.3   999  GTP999     -0.3326
     17  C3'       85.6490   25.9640   66.0950 C.3   999  GTP999      0.2158
     18  O3'       86.4590   26.3630   67.2070 O.3   999  GTP999     -0.2175
     19  C2'       85.5810   26.9930   64.9910 C.3   999  GTP999      0.2310
     20  O2'       86.7020   27.8640   65.0320 O.3   999  GTP999     -0.2158
     21  C1'       85.5060   26.1720   63.7220 C.3   999  GTP999      0.2293
     22  N9        84.1590   26.1220   63.1490 N.pl3 999  GTP999     -0.2354
     23  C8        82.9720   25.8320   63.7420 C.3   999  GTP999      0.2246
     24  N7        81.9730   25.8350   62.8980 N.2   999  GTP999     -0.2322
     25  C5        82.5380   26.1780   61.6730 C.2   999  GTP999      0.2182
     26  C6        81.9630   26.3160   60.3620 C.1   999  GTP999      0.2372
     27  O6        80.7800   26.2520   59.9910 O.2   999  GTP999     -0.2069
     28  N1        82.9380   26.6230   59.4020 N.2   999  GTP999     -0.2485
     29  C2        84.2820   26.7560   59.6430 C.1   999  GTP999      0.2531
     30  N2        85.0520   27.0340   58.6000 N.pl3 999  GTP999     -0.0226
     31  N3        84.8120   26.6420   60.8650 N.2   999  GTP999     -0.3074
     32  C4        83.8960   26.3050   61.8220 C.2   999  GTP999      0.2300
@<TRIPOS>BOND
     1    30    29    1
     2    28    29    2
     3    28    26    2
     4    29    31    2
     5    27    26    2
     6    26    25    1
     7    31    32    2
     8    25    32    1
     9    25    24    2
    10    32    22    1
    11     3     1    2
    12    24    23    1
    13    22    21    1
    14    22    23    1
    15    21    16    1
    16    21    19    1
    17     1     2    1
    18     1     4    1
    19     1     5    1
    20    16    15    1
    21     5     6    1
    22    19    20    1
    23    19    17    1
    24     7     6    2
    25    12    10    2
    26    13    14    1
    27    13    10    1
    28    15    14    1
    29    15    17    1
    30     6     8    1
    31     6     9    1
    32    17    18    1
    33    10     9    1
    34    10    11    1
