@<TRIPOS>MOLECULE
1c4q_GAL_A_1.pdb
 11 11 0 0 0
SMALL
GASTEIGER

@<TRIPOS>ATOM
      1  C1       -10.0710   11.1780  -24.0300 C.3   191  GAL191      0.1777
      2  C2        -8.6450   10.6580  -23.9150 C.3   191  GAL191      0.2141
      3  C3        -8.6410    9.3590  -23.1050 C.3   191  GAL191      0.2173
      4  C4        -9.2680    9.6290  -21.7370 C.3   191  GAL191      0.2142
      5  C5       -10.6630   10.2040  -21.9310 C.3   191  GAL191      0.1810
      6  C6       -11.3700   10.5990  -20.6600 C.3   191  GAL191      0.2141
      7  O2        -8.1280   10.3850  -25.2200 O.3   191  GAL191     -0.2176
      8  O3        -7.3010    8.9060  -22.9380 O.3   191  GAL191     -0.2175
      9  O4        -8.4540   10.5470  -21.0050 O.3   191  GAL191     -0.2176
     10  O5       -10.6020   11.4170  -22.7220 O.3   191  GAL191     -0.3481
     11  O6       -12.7040   10.9850  -20.9700 O.3   191  GAL191     -0.2176
@<TRIPOS>BOND
     1     7     2    1
     2     1     2    1
     3     1    10    1
     4     2     3    1
     5     3     8    1
     6     3     4    1
     7    10     5    1
     8     5     4    1
     9     5     6    1
    10     4     9    1
    11    11     6    1
