@<TRIPOS>MOLECULE
1c4q_GLA_A_1.pdb
 11 11 0 0 0
SMALL
GASTEIGER

@<TRIPOS>ATOM
      1  C1        -8.2740   10.2530  -19.6330 C.3   190  GLA190      0.1777
      2  C2        -7.6490   11.4080  -18.8950 C.3   190  GLA190      0.2141
      3  C3        -6.2070   11.6330  -19.4150 C.3   190  GLA190      0.2173
      4  C4        -5.4090   10.3410  -19.2390 C.3   190  GLA190      0.2142
      5  C5        -6.1250    9.1860  -19.9490 C.3   190  GLA190      0.1810
      6  C6        -5.4830    7.7830  -19.8100 C.3   190  GLA190      0.2141
      7  O2        -8.4580   12.5800  -19.0750 O.3   190  GLA190     -0.2176
      8  O3        -5.5670   12.6390  -18.6600 O.3   190  GLA190     -0.2175
      9  O4        -5.2570   10.1310  -17.8340 O.3   190  GLA190     -0.2176
     10  O5        -7.4840    9.0810  -19.4500 O.3   190  GLA190     -0.3481
     11  O6        -5.3690    7.4340  -18.4340 O.3   190  GLA190     -0.2176
@<TRIPOS>BOND
     1     5     6    1
     2     5    10    1
     3     5     4    1
     4     6    11    1
     5     1    10    1
     6     1     2    1
     7     3     4    1
     8     3     2    1
     9     3     8    1
    10     4     9    1
    11     7     2    1
