@<TRIPOS>MOLECULE
1c4u_IH1_2_1.pdb
 36 39 0 0 0
SMALL
GASTEIGER

@<TRIPOS>ATOM
      1  C27       21.9140  -15.0870   25.5810 C.ar  370  IH1370      0.0346
      2  C28       21.0480  -14.3190   26.2120 C.ar  370  IH1370      0.0080
      3  C29       19.8910  -14.9510   26.5140 C.ar  370  IH1370      0.0188
      4  C24       19.6460  -16.2650   26.1410 C.ar  370  IH1370      0.1058
      5  C25       20.5030  -16.9760   25.4410 C.ar  370  IH1370      0.0188
      6  C26       21.6750  -16.3910   25.1330 C.ar  370  IH1370      0.0080
      7 BR         23.4420  -14.3210   25.1250 Br    370  IH1370     -0.0490
      8  S         18.1600  -17.1020   26.4320 S.O2  370  IH1370      0.0106
      9  O1        17.2280  -16.0250   26.7360 O.2   370  IH1370     -0.1686
     10  O2        18.4440  -17.9820   27.5840 O.2   370  IH1370     -0.1686
     11  C23       17.6480  -17.9860   25.0220 C.3   370  IH1370      0.1806
     12  C22       17.0590  -17.1230   23.8100 C.3   370  IH1370      0.1409
     13  C13       18.4770  -13.0140   21.7470 C.3   370  IH1370      0.2073
     14  C14       19.7290  -12.8770   21.1120 C.2   370  IH1370      0.0045
     15  C15       20.6890  -13.7440   20.8150 C.2   370  IH1370     -0.0021
     16  C16       20.4550  -15.1580   21.2980 C.3   370  IH1370      0.1562
     17  C19       19.0290  -16.4530   22.6890 C.ar  370  IH1370      0.3496
     18  C21       17.5700  -14.8640   23.0450 C.ar  370  IH1370      0.3500
     19  N17       19.2900  -15.2970   21.9610 N.ar  370  IH1370     -0.2131
     20  N18       18.5340  -14.2870   22.4350 N.ar  370  IH1370     -0.2067
     21  O21       16.5860  -14.3920   23.3750 O.2   370  IH1370     -0.2447
     22  O19       19.7750  -17.4080   22.5830 O.2   370  IH1370     -0.2447
     23  N20       17.8950  -16.2050   23.2180 N.ar  370  IH1370     -0.2303
     24  C12       17.1880  -12.6810   20.7050 C.2   370  IH1370      0.2720
     25  O12       17.3750  -12.1980   19.5280 O.2   370  IH1370     -0.2705
     26  C1        14.8760  -12.1880   20.4480 C.2   370  IH1370      0.0619
     27  C2        13.6350  -12.0180   21.1120 C.3   370  IH1370      0.0389
     28  C3        13.1260  -10.6710   21.5830 C.3   370  IH1370      0.0063
     29  C4        11.9440  -10.7790   22.3690 C.3   370  IH1370      0.0131
     30  C5        12.2410  -11.6020   23.7210 C.3   370  IH1370      0.1214
     31  C6        12.5930  -12.9820   23.0890 C.3   370  IH1370      0.0131
     32  N9        15.8230  -12.4690   20.9900 N.am  370  IH1370     -0.1807
     33  C7        13.5510  -13.1730   22.1480 C.3   370  IH1370      0.0063
     34  C8        10.9750  -11.8100   24.2710 C.2   370  IH1370      0.4532
     35  N11       10.3730  -12.9340   24.2100 N.pl3 370  IH1370      0.1994
     36  N10       10.4990  -10.8270   24.9970 N.pl3 370  IH1370      0.1994
@<TRIPOS>BOND
     1    25    24    2
     2    26    32    2
     3    26    27    1
     4    24    32    1
     5    24    13    1
     6    15    14    2
     7    15    16    1
     8    14    13    1
     9    27    28    1
    10    27    33    1
    11    16    19    1
    12    28    29    1
    13    13    20    1
    14    19    20   ar
    15    19    17   ar
    16    33    31    1
    17    29    30    1
    18    20    18   ar
    19    22    17    2
    20    17    23   ar
    21    18    23   ar
    22    18    21    2
    23    31    30    1
    24    23    12    1
    25    30    34    1
    26    12    11    1
    27    35    34    2
    28    34    36    1
    29    11     8    1
    30     7     1    1
    31     6     5   ar
    32     6     1   ar
    33     5     4   ar
    34     1     2   ar
    35     4     8    1
    36     4     3   ar
    37     2     3   ar
    38     8     9    2
    39     8    10    2
