@<TRIPOS>MOLECULE
1c4v_IH2_2_1.pdb
 39 43 0 0 0
SMALL
GASTEIGER

@<TRIPOS>ATOM
      1  N9        15.6250  -11.6940   20.2060 N.am  370  IH2370     -0.2038
      2  C1        14.1860  -11.5310   19.5180 C.3   370  IH2370      0.1155
      3  N10       10.2180  -12.9830   24.1760 N.pl3 370  IH2370      0.2043
      4  N11       10.6020  -10.7300   24.4190 N.pl3 370  IH2370      0.2043
      5  C8        10.8990  -11.9170   23.8410 C.2   370  IH2370      0.4724
      6  C2        13.1850  -11.6740   20.4640 C.3   370  IH2370      0.0264
      7  C7        13.7120  -12.7260   21.4900 C.3   370  IH2370      0.0070
      8  C6        12.5460  -13.0470   22.2850 C.3   370  IH2370      0.0342
      9  C5        11.8540  -11.8170   22.8470 C.2   370  IH2370      0.0710
     10  C4        12.1720  -10.5150   22.2700 C.2   370  IH2370     -0.0224
     11  C3        12.9000  -10.2960   21.0900 C.3   370  IH2370      0.0277
     12  C17       19.7730  -14.6910   20.1140 C.3   370  IH2370      0.1304
     13  N18       19.0050  -14.8790   21.2240 N.ar  370  IH2370     -0.2180
     14  C20       18.7480  -16.0820   21.7820 C.ar  370  IH2370      0.3492
     15  O20       19.1860  -17.2120   21.6330 O.2   370  IH2370     -0.2447
     16  N21       17.8360  -15.8460   22.6800 N.ar  370  IH2370     -0.2315
     17  C22       17.4990  -14.5170   22.6330 C.ar  370  IH2370      0.3496
     18  O22       16.7080  -14.0560   23.3090 O.2   370  IH2370     -0.2447
     19  N19       18.2500  -13.9370   21.7670 N.ar  370  IH2370     -0.2113
     20  C13       17.8250  -12.8060   20.9100 C.3   370  IH2370      0.1854
     21  C14       18.8360  -12.4240   20.0590 C.3   370  IH2370      0.0359
     22  C15       19.5620  -13.2920   19.4610 C.3   370  IH2370      0.0270
     23  C12       16.3400  -12.8150   20.3230 C.2   370  IH2370      0.2638
     24  C16       20.5540  -12.7780   18.6040 C.3   370  IH2370      0.0021
     25  O12       15.7340  -14.0720   20.0910 O.2   370  IH2370     -0.2712
     26  C23       17.3950  -16.8760   23.5280 C.3   370  IH2370      0.1238
     27  C24       18.0830  -16.5670   24.9160 C.3   370  IH2370      0.0674
     28  C28       22.1980  -14.6010   25.6620 C.ar  370  IH2370     -0.0000
     29  C29       21.1550  -13.9530   26.0430 C.ar  370  IH2370     -0.0003
     30  C30       19.8110  -14.5350   25.7810 C.ar  370  IH2370     -0.0039
     31  C25       19.4720  -15.8040   25.1090 C.ar  370  IH2370     -0.0165
     32  C26       20.5370  -16.4480   24.7200 C.ar  370  IH2370     -0.0039
     33  C27       21.8850  -15.8620   24.9490 C.ar  370  IH2370     -0.0003
     34  C34       17.7030  -19.2430   28.1470 C.ar  370  IH2370     -0.0000
     35  C35       18.5600  -19.6230   26.9910 C.ar  370  IH2370     -0.0003
     36  C36       18.5770  -18.7990   25.9180 C.ar  370  IH2370     -0.0039
     37  C31       17.7950  -17.5990   25.9330 C.ar  370  IH2370     -0.0165
     38  C32       16.9110  -17.2940   27.0850 C.ar  370  IH2370     -0.0039
     39  C33       16.8870  -18.1090   28.2000 C.ar  370  IH2370     -0.0003
@<TRIPOS>BOND
     1    24    22    1
     2    22    21    1
     3    22    12    1
     4     2     1    1
     5     2     6    1
     6    21    20    1
     7    25    23    2
     8    12    13    1
     9     1    23   am
    10    23    20    1
    11     6    11    1
    12     6     7    1
    13    20    19    1
    14    11    10    1
    15    13    19   ar
    16    13    14   ar
    17     7     8    1
    18    15    14    2
    19    19    17   ar
    20    14    16   ar
    21    10     9    2
    22     8     9    1
    23    17    16   ar
    24    17    18    2
    25    16    26    1
    26     9     5    1
    27    26    27    1
    28     5     3    2
    29     5     4    1
    30    32    33   ar
    31    32    31   ar
    32    27    31    1
    33    27    37    1
    34    33    28   ar
    35    31    30   ar
    36    28    29   ar
    37    30    29   ar
    38    36    37   ar
    39    36    35   ar
    40    37    38   ar
    41    35    34   ar
    42    38    39   ar
    43    34    39   ar
