@<TRIPOS>MOLECULE
1c4y_IH3_2_1.pdb
 41 46 0 0 0
SMALL
GASTEIGER

@<TRIPOS>ATOM
      1  C1        25.3450   48.5910   -4.8320 C.2   370  IH3370      0.1244
      2  NC        24.5070   48.3160   -3.7520 N.2   370  IH3370     -0.3423
      3  C3        23.4470   47.6070   -4.1920 C.1   370  IH3370      0.1817
      4  NA        23.5970   47.4300   -5.5070 N.2   370  IH3370     -0.1879
      5  C2        24.7420   48.0160   -5.9250 C.3   370  IH3370      0.1934
      6  NB        22.4400   47.1610   -3.4600 N.pl3 370  IH3370     -0.0348
      7  N10       29.0620   50.8460   -4.2020 N.am  370  IH3370     -0.2056
      8  C7        27.5850   51.6060   -5.7600 C.3   370  IH3370      0.0221
      9  C8        29.0090   50.9550   -5.4390 C.3   370  IH3370      0.0954
     10  C9        28.9780   49.4540   -5.8540 C.3   370  IH3370      0.0221
     11  C4        27.6040   48.7000   -5.8170 C.3   370  IH3370      0.0085
     12  C5        26.5890   49.3250   -4.7690 C.3   370  IH3370      0.0513
     13  C6        26.3500   50.7830   -5.0970 C.3   370  IH3370      0.0085
     14  N20       33.0760   49.0520   -2.2080 N.ar  370  IH3370     -0.2315
     15  C19       33.7510   50.2190   -1.8620 C.ar  370  IH3370      0.3492
     16  O19       35.0050   50.3120   -1.7280 O.2   370  IH3370     -0.2447
     17  N17       32.7570   51.1700   -1.6100 N.ar  370  IH3370     -0.2180
     18  N18       31.4860   50.5670   -1.8930 N.ar  370  IH3370     -0.2113
     19  C21       31.7170   49.2640   -2.3030 C.ar  370  IH3370      0.3496
     20  O21       30.8530   48.4160   -2.5980 O.2   370  IH3370     -0.2447
     21  C16       32.9110   52.5160   -1.2580 C.3   370  IH3370      0.1304
     22  C14       31.5550   53.2470   -1.2270 C.3   370  IH3370      0.0270
     23  C13       30.3570   52.6450   -1.4960 C.3   370  IH3370      0.0359
     24  C12       30.3380   51.2930   -2.2310 C.3   370  IH3370      0.1854
     25  C15       31.5190   54.7610   -0.8680 C.3   370  IH3370      0.0021
     26  C11       30.1040   51.4940   -3.6530 C.2   370  IH3370      0.2638
     27  O11       30.9070   52.1590   -4.3140 O.2   370  IH3370     -0.2712
     28  C23       33.4090   46.5440   -1.6680 C.3   370  IH3370      0.0674
     29  C22       33.8590   47.5820   -2.6430 C.3   370  IH3370      0.1238
     30  C24       33.6170   47.0110   -0.2250 C.ar  370  IH3370     -0.0165
     31  C25       32.4690   46.9980    0.6330 C.ar  370  IH3370     -0.0039
     32  C26       32.5910   47.4670    2.0170 C.ar  370  IH3370     -0.0003
     33  C27       33.8630   47.9730    2.5970 C.ar  370  IH3370     -0.0000
     34  C28       35.0480   48.0040    1.7420 C.ar  370  IH3370     -0.0003
     35  C29       34.9260   47.5260    0.3400 C.ar  370  IH3370     -0.0039
     36  C30       34.0780   45.2040   -2.0160 C.ar  370  IH3370     -0.0165
     37  C31       33.2280   44.1030   -2.4440 C.ar  370  IH3370     -0.0039
     38  C32       33.9040   42.6890   -2.7660 C.ar  370  IH3370     -0.0003
     39  C33       35.3280   42.4150   -2.6510 C.ar  370  IH3370     -0.0000
     40  C34       36.1700   43.5070   -2.2520 C.ar  370  IH3370     -0.0003
     41  C35       35.5900   44.8660   -1.9270 C.ar  370  IH3370     -0.0039
@<TRIPOS>BOND
     1     5     4    1
     2     5     1    1
     3    10    11    1
     4    10     9    1
     5    11    12    1
     6     8     9    1
     7     8    13    1
     8     4     3    2
     9     9     7    1
    10    13    12    1
    11     1    12    1
    12     1     2    2
    13    27    26    2
    14     7    26   am
    15     3     2    2
    16     3     6    1
    17    26    24    1
    18    38    39   ar
    19    38    37   ar
    20    39    40   ar
    21    29    14    1
    22    29    28    1
    23    20    19    2
    24    37    36   ar
    25    19    14   ar
    26    19    18   ar
    27    40    41   ar
    28    24    18    1
    29    24    23    1
    30    14    15   ar
    31    36    41   ar
    32    36    28    1
    33    18    17   ar
    34    15    16    2
    35    15    17   ar
    36    28    30    1
    37    17    21    1
    38    23    22    1
    39    21    22    1
    40    22    25    1
    41    30    35   ar
    42    30    31   ar
    43    35    34   ar
    44    31    32   ar
    45    34    33   ar
    46    32    33   ar
