@<TRIPOS>MOLECULE
1c50_CHI_A_1.pdb
 31 34 0 0 0
SMALL
GASTEIGER

@<TRIPOS>ATOM
      1 CL1        17.4960    7.6850   49.6050 Cl    920  CHI920     -0.0826
      2  C1        17.9620    8.9860   50.5590 C.2   920  CHI920      0.0536
      3  C2        18.5840   10.0270   49.9050 C.2   920  CHI920     -0.0073
      4  C3        18.9960   11.2080   50.6350 C.3   920  CHI920      0.0854
      5  C4        18.7160   11.1570   52.0920 C.2   920  CHI920      0.1096
      6  N1        18.9970   12.1260   52.9520 N.2   920  CHI920     -0.4055
      7  C5        18.1100   10.1130   52.6960 C.2   920  CHI920      0.0116
      8  C6        17.6680    8.9620   51.9940 C.2   920  CHI920      0.0094
      9  C7        18.0150   10.4300   54.1040 C.3   920  CHI920      0.0923
     10  C8        18.6590   11.7930   54.1700 C.2   920  CHI920      0.1676
     11  C9        18.8490   12.5480   55.4360 C.2   920  CHI920      0.2910
     12  O1        19.3550   13.6320   55.2530 O.2   920  CHI920     -0.2659
     13  N2        18.4780   12.0820   56.6830 N.am  920  CHI920     -0.1918
     14  C10       18.7420   12.9100   57.9080 C.3   920  CHI920      0.1759
     15  C11       20.2620   13.0890   58.1330 C.2   920  CHI920      0.2458
     16  O2        21.0010   11.9680   58.3170 O.2   920  CHI920     -0.2730
     17  N3        20.8900   14.2860   58.1740 N.am  920  CHI920     -0.2780
     18  C12       19.9240   15.3970   58.4740 C.3   920  CHI920      0.0961
     19  C13       20.6690   16.7520   58.5520 C.3   920  CHI920      0.0544
     20  C14       21.7850   16.6900   59.6430 C.3   920  CHI920      0.1554
     21  O3        22.5080   17.9300   59.7510 O.3   920  CHI920     -0.2230
     22  C15       22.7750   15.5550   59.3100 C.3   920  CHI920      0.0544
     23  C16       22.0160   14.1970   59.1750 C.3   920  CHI920      0.0961
     24  C17       18.1550   12.2170   59.2290 C.3   920  CHI920      0.0574
     25  C18       18.3930   13.0720   60.5040 C.ar  920  CHI920     -0.0198
     26  C19       17.5860   14.1970   60.8740 C.ar  920  CHI920     -0.0019
     27  C20       17.8870   14.9170   62.0450 C.ar  920  CHI920      0.0293
     28  C21       19.0100   14.5190   62.8470 C.ar  920  CHI920      0.1401
     29  F1        19.3280   15.1940   63.9460 F     920  CHI920     -0.2042
     30  C22       19.8010   13.4020   62.4760 C.ar  920  CHI920      0.0293
     31  C23       19.4950   12.7040   61.3270 C.ar  920  CHI920     -0.0019
@<TRIPOS>BOND
     1     1     2    1
     2     3     2    2
     3     3     4    1
     4     2     8    1
     5     4     5    1
     6     8     7    2
     7     5     7    1
     8     5     6    2
     9     7     9    1
    10     6    10    2
    11     9    10    1
    12    10    11    1
    13    12    11    2
    14    11    13   am
    15    13    14    1
    16    14    15    1
    17    14    24    1
    18    15    17   am
    19    15    16    2
    20    17    18    1
    21    17    23    1
    22    18    19    1
    23    19    20    1
    24    23    22    1
    25    24    25    1
    26    22    20    1
    27    20    21    1
    28    25    26   ar
    29    25    31   ar
    30    26    27   ar
    31    31    30   ar
    32    27    28   ar
    33    30    28   ar
    34    28    29    1
