@<TRIPOS>MOLECULE
1c50_PLP_A_1.pdb
 15 15 0 0 0
SMALL
GASTEIGER

@<TRIPOS>ATOM
      1  N1        24.8870   25.3990   30.5010 N.ar  999  PLP999     -0.2452
      2  C2        23.7470   24.6680   30.7010 C.ar  999  PLP999      0.0978
      3  C2A       22.6920   25.2470   31.6100 C.3   999  PLP999      0.0555
      4  C3        23.5040   23.5240   29.9400 C.ar  999  PLP999      0.2049
      5  O3        22.3030   22.7900   30.0820 O.3   999  PLP999     -0.2857
      6  C4        24.4200   23.1660   28.9540 C.ar  999  PLP999      0.0182
      7  C4A       24.2190   21.8210   28.1620 C.3   999  PLP999      0.0342
      8  C5        25.5590   23.9860   28.7370 C.ar  999  PLP999      0.0261
      9  C6        25.7650   25.0720   29.5330 C.ar  999  PLP999      0.0965
     10  C5A       26.5990   23.7120   27.5870 C.3   999  PLP999      0.1815
     11  O4P       26.3120   24.4600   26.4150 O.3   999  PLP999     -0.2653
     12  P         27.2690   24.6730   25.1370 P.3   999  PLP999      0.5329
     13  O1P       26.4570   25.3810   24.1160 O.2   999  PLP999     -0.2224
     14  O2P       28.4470   25.6390   25.6430 O.3   999  PLP999     -0.1145
     15  O3P       27.9000   23.4000   24.7530 O.3   999  PLP999     -0.1145
@<TRIPOS>BOND
     1    13    12    2
     2    15    12    1
     3    12    14    1
     4    12    11    1
     5    11    10    1
     6    10     8    1
     7     7     6    1
     8     8     6   ar
     9     8     9   ar
    10     6     4   ar
    11     9     1   ar
    12     4     5    1
    13     4     2   ar
    14     1     2   ar
    15     2     3    1
