@<TRIPOS>MOLECULE
1c52_HEM_A_1.pdb
 47 54 0 0 0
SMALL
GASTEIGER

@<TRIPOS>ATOM
      1 FE         16.5070   35.1620   34.3510 Fe    200  HEM200      0.0000
      2  CHA       14.7340   38.0180   33.8650 C.2   200  HEM200      0.0000
      3  CHB       18.8400   36.1640   32.1170 C.2   200  HEM200      0.0000
      4  CHC       18.4950   32.5700   35.3170 C.2   200  HEM200      0.0000
      5  CHD       13.9260   33.8550   36.1420 C.2   200  HEM200      0.0000
      6  NA        16.7540   36.7420   33.2030 N.ar  200  HEM200      0.0000
      7  C1A       15.9360   37.8730   33.1570 C.ar  200  HEM200      0.0000
      8  C2A       16.5010   38.8600   32.2480 C.ar  200  HEM200      0.0000
      9  C3A       17.6420   38.3160   31.7270 C.ar  200  HEM200      0.0000
     10  C4A       17.7750   37.0010   32.3190 C.ar  200  HEM200      0.0000
     11  CMA       18.6280   38.9310   30.7470 C.3   200  HEM200      0.0000
     12  CAA       15.9010   40.2320   31.9900 C.3   200  HEM200      0.0000
     13  CBA       14.7710   40.2150   30.9960 C.3   200  HEM200      0.0000
     14  CGA       14.0920   41.5620   30.8620 C.2   200  HEM200      0.0000
     15  O1A       13.1630   41.6660   30.0520 O.co2 200  HEM200      0.0000
     16  O2A       14.4570   42.5330   31.5600 O.co2 200  HEM200      0.0000
     17  NB        18.2660   34.4730   33.8050 N.2   200  HEM200      0.0000
     18  C1B       19.1030   34.9960   32.8260 C.2   200  HEM200      0.0000
     19  C2B       20.3150   34.2510   32.7360 C.2   200  HEM200      0.0000
     20  C3B       20.2910   33.2590   33.6910 C.2   200  HEM200      0.0000
     21  C4B       18.9850   33.4460   34.3380 C.2   200  HEM200      0.0000
     22  CMB       21.4150   34.5260   31.6900 C.3   200  HEM200      0.0000
     23  CAB       21.2700   32.2810   34.0480 C.3   200  HEM200      0.0000
     24  CBB       22.6080   32.7170   34.4210 C.3   200  HEM200      0.0000
     25  NC        16.2540   33.5570   35.4920 N.ar  200  HEM200      0.0000
     26  C1C       17.1830   32.6270   35.8120 C.ar  200  HEM200      0.0000
     27  C2C       16.6070   31.5410   36.5610 C.ar  200  HEM200      0.0000
     28  C3C       15.2540   31.8270   36.7060 C.ar  200  HEM200      0.0000
     29  C4C       15.0800   33.1150   36.0850 C.ar  200  HEM200      0.0000
     30  CMC       17.3310   30.3020   37.1110 C.3   200  HEM200      0.0000
     31  CAC       14.1780   31.0360   37.2190 C.3   200  HEM200      0.0000
     32  CBC       14.1410   30.5900   38.5950 C.3   200  HEM200      0.0000
     33  ND        14.7030   35.8060   34.8930 N.2   200  HEM200      0.0000
     34  C1D       13.7470   35.1060   35.6020 C.2   200  HEM200      0.0000
     35  C2D       12.5860   35.9240   35.8090 C.2   200  HEM200      0.0000
     36  C3D       12.8340   37.1090   35.2170 C.2   200  HEM200      0.0000
     37  C4D       14.1470   37.0240   34.6420 C.2   200  HEM200      0.0000
     38  CMD       11.3150   35.4980   36.5210 C.3   200  HEM200      0.0000
     39  CAD       11.8720   38.3090   35.2080 C.3   200  HEM200      0.0000
     40  CBD       11.9010   39.0550   36.5350 C.3   200  HEM200      0.0000
     41  CGD       10.7250   40.0040   36.6930 C.2   200  HEM200      0.0000
     42  O1D       10.9180   41.1490   37.1940 O.co2 200  HEM200      0.0000
     43  O2D        9.6050   39.5990   36.3170 O.co2 200  HEM200      0.0000
     44  HHA       14.2190   38.9740   33.8290 H     200  HEM200      0.0000
     45  HHB       19.5190   36.4200   31.3040 H     200  HEM200      0.0000
     46  HHC       19.1880   31.8250   35.7120 H     200  HEM200      0.0000
     47  HHD       13.0860   33.4000   36.6690 H     200  HEM200      0.0000
@<TRIPOS>BOND
     1    15    14   ar
     2    11     9    1
     3    14    13    1
     4    14    16   ar
     5    13    12    1
     6    45     3    1
     7    22    19    1
     8     9     8   ar
     9     9    10   ar
    10    12     8    1
    11     3    10    2
    12     3    18    1
    13     8     7   ar
    14    10     6   ar
    15    19    18    1
    16    19    20    2
    17    18    17    2
    18     7     6   ar
    19     7     2    2
    20     6     1    1
    21    20    23    1
    22    20    21    1
    23    17    21    1
    24    17     1    1
    25    44     2    1
    26     2    37    1
    27    23    24    1
    28    21     4    2
    29     1    33    1
    30     1    25    1
    31    37    33    2
    32    37    36    1
    33    33    34    1
    34    39    36    1
    35    39    40    1
    36    36    35    2
    37     4    46    1
    38     4    26    1
    39    25    26   ar
    40    25    29   ar
    41    34    35    1
    42    34     5    2
    43    35    38    1
    44    26    27   ar
    45    29     5    1
    46    29    28   ar
    47     5    47    1
    48    43    41   ar
    49    40    41    1
    50    27    28   ar
    51    27    30    1
    52    41    42   ar
    53    28    31    1
    54    31    32    1
