@<TRIPOS>MOLECULE
1c5c_TK4_L_1.pdb
 22 23 0 0 0
SMALL
GASTEIGER

@<TRIPOS>ATOM
      1  C1        20.2450   15.1870  158.0290 C.ar  1001  TK41001     0.1275
      2  C2        20.6260   15.3070  159.3580 C.ar  1001  TK41001     0.0909
      3  C3        21.9260   15.8510  159.6800 C.ar  1001  TK41001     0.0180
      4  C4        22.7730   16.2440  158.6590 C.ar  1001  TK41001     0.0027
      5  C5        23.2240   16.5140  156.1820 C.ar  1001  TK41001     0.1123
      6  C6        22.8280   16.3870  154.8610 C.ar  1001  TK41001     0.0189
      7  C7        21.5430   15.8490  154.5560 C.ar  1001  TK41001     0.0014
      8  C8        20.6860   15.4520  155.5710 C.ar  1001  TK41001     0.0014
      9  C9        21.1110   15.5890  156.9510 C.ar  1001  TK41001     0.0202
     10  C10       22.3850   16.1220  157.2830 C.ar  1001  TK41001     0.0190
     11  S1        18.6070   14.5040  157.5330 S.3   1001  TK41001     0.0433
     12  O11       17.8370   14.2390  158.8350 O.3   1001  TK41001    -0.0649
     13  O12       17.8300   15.4390  156.7020 O.3   1001  TK41001    -0.0649
     14  O13       18.9410   13.1800  156.9470 O.3   1001  TK41001    -0.0649
     15  N2        19.7160   14.8860  160.4130 N.am  1001  TK41001    -0.1779
     16  C21       20.1450   14.4100  161.6830 C.2   1001  TK41001     0.2461
     17  O2        21.3250   14.4200  162.0140 O.2   1001  TK41001    -0.2730
     18  C22       19.0790   13.8670  162.6070 C.3   1001  TK41001     0.0968
     19  S5        24.8620   17.1990  156.5780 S.3   1001  TK41001     0.0421
     20  O51       25.5410   17.4740  155.2690 O.3   1001  TK41001    -0.0650
     21  O52       24.7390   18.4600  157.3680 O.3   1001  TK41001    -0.0650
     22  O53       25.5630   16.1140  157.3150 O.3   1001  TK41001    -0.0650
@<TRIPOS>BOND
     1     7     6   ar
     2     7     8   ar
     3     6     5   ar
     4    20    19    1
     5     8     9   ar
     6     5    19    1
     7     5    10   ar
     8    19    22    1
     9    19    21    1
    10    13    11    1
    11    14    11    1
    12     9    10   ar
    13     9     1   ar
    14    10     4   ar
    15    11     1    1
    16    11    12    1
    17     1     2   ar
    18     4     3   ar
    19     2     3   ar
    20     2    15    1
    21    15    16   am
    22    16    17    2
    23    16    18    1
