@<TRIPOS>MOLECULE
1c5n_ESI_H_1.pdb
 21 22 0 0 0
SMALL
GASTEIGER

@<TRIPOS>ATOM
      1  C0        10.8040  -12.0750   24.5260 C.2   522  ESI522      0.2729
      2  C1        11.6090  -12.2200   23.4780 C.ar  522  ESI522      0.0991
      3  N1        10.1720  -13.1280   24.9620 N.2   522  ESI522     -0.2880
      4  N2        10.7500  -10.8640   25.0200 N.pl3 522  ESI522     -0.2493
      5  S2        12.4820  -10.7990   22.8680 S.2   522  ESI522     -0.0810
      6  C3        13.2420  -11.7990   21.6210 C.ar  522  ESI522      0.0211
      7  C4        12.8000  -13.1180   21.7330 C.ar  522  ESI522      0.0031
      8  C5        11.9090  -13.3260   22.7520 C.ar  522  ESI522     -0.0311
      9  C6        14.1420  -11.3940   20.6610 C.ar  522  ESI522     -0.0473
     10  C7        14.6270  -12.3380   19.7670 C.ar  522  ESI522     -0.0597
     11  C8        14.2030  -13.6740   19.8480 C.ar  522  ESI522     -0.0480
     12  C9        13.2780  -14.0870   20.8320 C.ar  522  ESI522      0.0216
     13  I9        12.5840  -16.0470   20.9790 I     522  ESI522     -0.0432
     14 HH11       10.3170  -14.0230   24.4880 H     522  ESI522      0.3009
     15 HH12        9.5750  -13.1150   25.7560 H     522  ESI522      0.3009
     16 HH21       11.3290  -10.1600   24.5750 H     522  ESI522      0.2883
     17 HH22       10.2130  -10.5780   25.8050 H     522  ESI522      0.2883
     18  H5        11.4860  -14.2970   22.9620 H     522  ESI522      0.0638
     19  H6        14.4500  -10.3630   20.6190 H     522  ESI522      0.0629
     20  H7        15.3330  -12.0470   19.0070 H     522  ESI522      0.0618
     21  H8        14.5910  -14.3980   19.1470 H     522  ESI522      0.0628
@<TRIPOS>BOND
     1    20    10    1
     2    21    11    1
     3    10    11   ar
     4    10     9   ar
     5    11    12   ar
     6    19     9    1
     7     9     6   ar
     8    12    13    1
     9    12     7   ar
    10     6     7   ar
    11     6     5   ar
    12     7     8   ar
    13     8    18    1
    14     8     2   ar
    15     5     2   ar
    16     2     1    1
    17    14     3    1
    18     1     3    2
    19     1     4    1
    20    16     4    1
    21     3    15    1
    22     4    17    1
