@<TRIPOS>MOLECULE
1c5o_BAM_H_1.pdb
 18 18 0 0 0
SMALL
GASTEIGER

@<TRIPOS>ATOM
      1  C1        11.8270  -11.7370   23.1510 C.ar  410  BAM410      0.0608
      2  C2        12.2520  -12.9160   22.5400 C.ar  410  BAM410     -0.0470
      3  C3        13.1770  -12.8950   21.5060 C.ar  410  BAM410     -0.0610
      4  C4        13.7030  -11.6970   21.0520 C.ar  410  BAM410     -0.0617
      5  C5        13.3090  -10.5250   21.6260 C.ar  410  BAM410     -0.0610
      6  C6        12.3830  -10.5490   22.6610 C.ar  410  BAM410     -0.0470
      7  C         10.9010  -11.7410   24.2070 C.2   410  BAM410      0.2662
      8  N1        10.3210  -12.8610   24.5160 N.2   410  BAM410     -0.2884
      9  N2        10.6290  -10.6390   24.8750 N.pl3 410  BAM410     -0.2497
     10 HC21       11.8690  -13.8740   22.8590 H     410  BAM410      0.0626
     11 HC31       13.4870  -13.8240   21.0470 H     410  BAM410      0.0618
     12 HC41       14.4220  -11.6850   20.2470 H     410  BAM410      0.0618
     13 HC51       13.7200   -9.5940   21.2680 H     410  BAM410      0.0618
     14 HC61       12.0860   -9.6060   23.0950 H     410  BAM410      0.0626
     15 HN11       10.5240  -13.6780   23.9620 H     410  BAM410      0.3009
     16 HN12        9.6960  -12.9890   25.2760 H     410  BAM410      0.3009
     17 HN21       11.1310   -9.7980   24.6360 H     410  BAM410      0.2883
     18 HN22        9.9990  -10.5800   25.6440 H     410  BAM410      0.2883
@<TRIPOS>BOND
     1    12     4    1
     2    11     3    1
     3     4     3   ar
     4     4     5   ar
     5    13     5    1
     6     3     2   ar
     7     5     6   ar
     8     2    10    1
     9     2     1   ar
    10     6    14    1
    11     6     1   ar
    12     1     7    1
    13    15     8    1
    14     7     8    2
    15     7     9    1
    16     8    16    1
    17    17     9    1
    18     9    18    1
