@<TRIPOS>MOLECULE
1c5p_BAM_A_1.pdb
 18 18 0 0 0
SMALL
GASTEIGER

@<TRIPOS>ATOM
      1  C1        45.5430   19.2870   52.9170 C.ar  246  BAM246      0.0608
      2  C2        45.6420   20.6680   53.1640 C.ar  246  BAM246     -0.0470
      3  C3        45.2920   21.6160   52.2010 C.ar  246  BAM246     -0.0610
      4  C4        44.8250   21.1990   50.9620 C.ar  246  BAM246     -0.0617
      5  C5        44.7100   19.8370   50.6840 C.ar  246  BAM246     -0.0610
      6  C6        45.0610   18.8980   51.6450 C.ar  246  BAM246     -0.0470
      7  C         45.9020   18.3560   53.8920 C.2   246  BAM246      0.2662
      8  N1        46.7420   18.6980   54.8210 N.pl3 246  BAM246     -0.2497
      9  N2        45.4030   17.1580   53.8400 N.2   246  BAM246     -0.2884
     10 HC21       46.0010   21.0140   54.1210 H     246  BAM246      0.0626
     11 HC31       45.3820   22.6690   52.4190 H     246  BAM246      0.0618
     12 HC41       44.5570   21.9260   50.2170 H     246  BAM246      0.0618
     13 HC51       44.3440   19.5060   49.7210 H     246  BAM246      0.0618
     14 HC61       44.9620   17.8510   51.3990 H     246  BAM246      0.0626
     15 HN11       47.1370   19.6230   54.7950 H     246  BAM246      0.2883
     16 HN12       46.9540   18.1450   55.6210 H     246  BAM246      0.2883
     17 HN21       44.7940   16.8980   53.0710 H     246  BAM246      0.3009
     18 HN22       45.6140   16.4620   54.5120 H     246  BAM246      0.3009
@<TRIPOS>BOND
     1    13     5    1
     2    12     4    1
     3     5     4   ar
     4     5     6   ar
     5     4     3   ar
     6    14     6    1
     7     6     1   ar
     8     3    11    1
     9     3     2   ar
    10     1     2   ar
    11     1     7    1
    12    17     9    1
    13     2    10    1
    14     9     7    2
    15     9    18    1
    16     7     8    1
    17    15     8    1
    18     8    16    1
