@<TRIPOS>MOLECULE
1c5q_ESI_A_1.pdb
 21 22 0 0 0
SMALL
GASTEIGER

@<TRIPOS>ATOM
      1  C0        44.1310   -3.9270   25.1420 C.2   246  ESI246      0.2729
      2  C1        43.9570   -3.2790   26.4120 C.ar  246  ESI246      0.0991
      3  N1        43.8910   -5.2050   24.9160 N.pl3 246  ESI246     -0.2493
      4  N2        44.5590   -3.1560   24.1610 N.2   246  ESI246     -0.2880
      5  S2        44.1630   -1.5820   26.6040 S.2   246  ESI246     -0.0810
      6  C3        43.7610   -1.8940   28.2420 C.ar  246  ESI246      0.0211
      7  C4        43.5070   -3.2050   28.5550 C.ar  246  ESI246      0.0031
      8  C5        43.6000   -4.1210   27.4660 C.ar  246  ESI246     -0.0311
      9  C6        43.6750   -0.9380   29.2610 C.ar  246  ESI246     -0.0473
     10  C7        43.3450   -1.3510   30.5550 C.ar  246  ESI246     -0.0597
     11  C8        43.0830   -2.7060   30.8330 C.ar  246  ESI246     -0.0480
     12  C9        43.1690   -3.6950   29.8180 C.ar  246  ESI246      0.0216
     13  I9        42.8350   -5.6220   30.4050 I     246  ESI246     -0.0432
     14 HH11       43.5950   -5.7680   25.6920 H     246  ESI246      0.2883
     15 HH12       43.9790   -5.6760   24.0490 H     246  ESI246      0.2883
     16 HH21       44.6570   -2.1770   24.3750 H     246  ESI246      0.3009
     17 HH22       44.7890   -3.4330   23.2310 H     246  ESI246      0.3009
     18  H5        43.4470   -5.1960   27.4760 H     246  ESI246      0.0638
     19  H6        43.8690    0.1140   29.0850 H     246  ESI246      0.0629
     20  H7        43.2700   -0.6300   31.3540 H     246  ESI246      0.0618
     21  H8        42.8270   -3.0110   31.8410 H     246  ESI246      0.0628
@<TRIPOS>BOND
     1    17     4    1
     2    15     3    1
     3     4    16    1
     4     4     1    2
     5     3     1    1
     6     3    14    1
     7     1     2    1
     8     2     5   ar
     9     2     8   ar
    10     5     6   ar
    11     8    18    1
    12     8     7   ar
    13     6     7   ar
    14     6     9   ar
    15     7    12   ar
    16    19     9    1
    17     9    10   ar
    18    12    13    1
    19    12    11   ar
    20    10    11   ar
    21    10    20    1
    22    11    21    1
