@<TRIPOS>MOLECULE
1c5r_ESI_A_1.pdb
 21 22 0 0 0
SMALL
GASTEIGER

@<TRIPOS>ATOM
      1  C0        46.1260   18.0990   54.2240 C.2   246  ESI246      0.2729
      2  C1        45.9020   19.1230   53.3350 C.ar  246  ESI246      0.0991
      3  N1        46.5720   18.3270   55.4250 N.pl3 246  ESI246     -0.2493
      4  N2        45.8850   16.9090   53.7750 N.2   246  ESI246     -0.2880
      5  S2        44.8630   18.9000   51.8400 S.2   246  ESI246     -0.0810
      6  C3        45.1480   20.6060   51.4190 C.ar  246  ESI246      0.0211
      7  C4        45.9560   21.2150   52.3510 C.ar  246  ESI246      0.0031
      8  C5        46.3750   20.4090   53.4110 C.ar  246  ESI246     -0.0311
      9  C6        44.6650   21.3080   50.3230 C.ar  246  ESI246     -0.0473
     10  C7        44.9900   22.6500   50.1570 C.ar  246  ESI246     -0.0597
     11  C8        45.8000   23.2730   51.0820 C.ar  246  ESI246     -0.0480
     12  C9        46.2860   22.5680   52.1890 C.ar  246  ESI246      0.0216
     13  I9        47.4410   23.5760   53.5080 I     246  ESI246     -0.0432
     14 HH11       46.8110   19.2790   55.6250 H     246  ESI246      0.2883
     15 HH12       46.7600   17.6530   56.1250 H     246  ESI246      0.2883
     16 HH21       45.6040   16.8010   52.8030 H     246  ESI246      0.3009
     17 HH22       45.9820   16.0890   54.3060 H     246  ESI246      0.3009
     18  H5        47.0070   20.7630   54.2100 H     246  ESI246      0.0638
     19  H6        44.0300   20.8120   49.6080 H     246  ESI246      0.0629
     20  H7        44.6190   23.2050   49.3120 H     246  ESI246      0.0618
     21  H8        46.0610   24.3150   50.9550 H     246  ESI246      0.0628
@<TRIPOS>BOND
     1    20    10    1
     2    19     9    1
     3    10     9   ar
     4    10    11   ar
     5     9     6   ar
     6    21    11    1
     7    11    12   ar
     8     6     5   ar
     9     6     7   ar
    10     5     2   ar
    11    12     7   ar
    12    12    13    1
    13     7     8   ar
    14    16     4    1
    15     2     8   ar
    16     2     1    1
    17     8    18    1
    18     4     1    2
    19     4    17    1
    20     1     3    1
    21     3    14    1
    22     3    15    1
