@<TRIPOS>MOLECULE
1c5s_ESX_A_1.pdb
 21 22 0 0 0
SMALL
GASTEIGER

@<TRIPOS>ATOM
      1  C0        46.0670   18.1780   54.2560 C.2   246  ESX246      0.2729
      2  C1        45.8750   19.2150   53.3870 C.ar  246  ESX246      0.0991
      3  N1        46.5760   18.4090   55.4250 N.pl3 246  ESX246     -0.2493
      4  N2        45.7310   17.0050   53.8170 N.2   246  ESX246     -0.2880
      5  S2        45.0680   18.9640   51.7180 S.2   246  ESX246     -0.0811
      6  C3        45.2060   20.6700   51.2840 C.ar  246  ESX246      0.0201
      7  C4        45.8110   21.3380   52.3400 C.ar  246  ESX246     -0.0100
      8  C5        46.1700   20.5660   53.4500 C.ar  246  ESX246     -0.0321
      9  C6        44.8030   21.3060   50.1230 C.ar  246  ESX246     -0.0474
     10  C7        45.0050   22.6670   49.9900 C.ar  246  ESX246     -0.0607
     11  C8        45.6130   23.3700   51.0240 C.ar  246  ESX246     -0.0611
     12  C9        46.0110   22.7070   52.1910 C.ar  246  ESX246     -0.0535
     13 HH11       46.8910   19.3520   55.5890 H     246  ESX246      0.2883
     14 HH12       46.7410   17.7430   56.1400 H     246  ESX246      0.2883
     15 HH21       45.4480   16.9160   52.8440 H     246  ESX246      0.3009
     16 HH22       45.8120   16.1690   54.3320 H     246  ESX246      0.3009
     17  H5        46.6450   20.9990   54.3140 H     246  ESX246      0.0637
     18  H6        44.3330   20.7430   49.3310 H     246  ESX246      0.0629
     19  H7        44.6970   23.1780   49.0900 H     246  ESX246      0.0618
     20  H8        45.7770   24.4330   50.9260 H     246  ESX246      0.0618
     21  H9        46.4780   23.2740   52.9820 H     246  ESX246      0.0624
@<TRIPOS>BOND
     1    19    10    1
     2    18     9    1
     3    10     9   ar
     4    10    11   ar
     5     9     6   ar
     6    20    11    1
     7    11    12   ar
     8     6     5   ar
     9     6     7   ar
    10     5     2   ar
    11    12     7   ar
    12    12    21    1
    13     7     8   ar
    14    15     4    1
    15     2     8   ar
    16     2     1    1
    17     8    17    1
    18     4     1    2
    19     4    16    1
    20     1     3    1
    21     3    13    1
    22     3    14    1
