@<TRIPOS>MOLECULE
1c5t_ESP_A_1.pdb
 20 21 0 0 0
SMALL
GASTEIGER

@<TRIPOS>ATOM
      1  C0        46.0350   18.3120   54.2970 C.2   246  ESP246      0.2730
      2  C1        45.6910   19.3400   53.4410 C.ar  246  ESP246      0.1014
      3  N1        46.7870   18.6030   55.3100 N.pl3 246  ESP246     -0.2493
      4  N2        45.5950   17.1170   54.0300 N.2   246  ESP246     -0.2880
      5  S2        44.8720   18.9810   51.8860 S.2   246  ESP246     -0.0488
      6  C3        44.7830   20.6750   51.4060 C.ar  246  ESP246      0.1585
      7  C4        45.3740   21.3960   52.4370 C.ar  246  ESP246      0.0173
      8  C5        45.8550   20.7030   53.5260 C.ar  246  ESP246     -0.0298
      9  N6        44.2810   21.1930   50.3030 N.2   246  ESP246     -0.4080
     10  C7        44.3460   22.5100   50.1950 C.2   246  ESP246      0.0644
     11  C8        44.9170   23.3330   51.1690 C.3   246  ESP246      0.0367
     12  C9        45.4390   22.7660   52.3180 C.2   246  ESP246     -0.0630
     13 HH11       47.0810   19.5690   55.3820 H     246  ESP246      0.2883
     14 HH12       47.0150   17.9910   56.0500 H     246  ESP246      0.2883
     15 HH21       45.1140   16.9900   53.1480 H     246  ESP246      0.3009
     16 HH22       45.7970   16.3140   54.5610 H     246  ESP246      0.3009
     17  H5        46.3250   21.1890   54.3670 H     246  ESP246      0.0638
     18  H7        43.9440   22.9720   49.3070 H     246  ESP246      0.0928
     19  H8        44.9470   24.4020   51.0270 H     246  ESP246      0.0421
     20  H9        45.8850   23.3770   53.0840 H     246  ESP246      0.0586
@<TRIPOS>BOND
     1    18    10    1
     2    10     9    2
     3    10    11    1
     4     9     6    2
     5    19    11    1
     6    11    12    1
     7     6     5   ar
     8     6     7   ar
     9     5     2   ar
    10    12     7    2
    11    12    20    1
    12     7     8   ar
    13    15     4    1
    14     2     8   ar
    15     2     1    1
    16     8    17    1
    17     4     1    2
    18     4    16    1
    19     1     3    1
    20     3    13    1
    21     3    14    1
