@<TRIPOS>MOLECULE
1c5u_ESP_A_1.pdb
 20 21 0 0 0
SMALL
GASTEIGER

@<TRIPOS>ATOM
      1  C0        46.0630   18.1970   54.1260 C.2   246  ESP246      0.2570
      2  C1        45.7390   19.2340   53.2930 C.3   246  ESP246      0.1691
      3  N1        46.7610   18.5080   55.1660 N.pl3 246  ESP246     -0.2524
      4  N2        45.6750   16.9990   53.8080 N.2   246  ESP246     -0.2911
      5  S2        45.0910   19.0510   51.7200 S.3   246  ESP246     -0.0673
      6  C3        44.9500   20.5180   51.3250 C.2   246  ESP246      0.1554
      7  C4        45.3910   21.3150   52.3810 C.2   246  ESP246      0.0170
      8  C5        45.8210   20.5950   53.4590 C.2   246  ESP246     -0.0435
      9  N6        44.4940   21.1030   50.2210 N.2   246  ESP246     -0.4046
     10  C7        44.4460   22.4260   50.0810 C.2   246  ESP246      0.0793
     11  C8        44.8870   23.2220   51.1430 C.2   246  ESP246     -0.0311
     12  C9        45.3650   22.6740   52.2970 C.2   246  ESP246     -0.0489
     13 HH11       47.0460   19.4810   55.1930 H     246  ESP246      0.2880
     14 HH12       47.0760   17.9080   55.8790 H     246  ESP246      0.2880
     15 HH21       45.2550   16.8970   52.8920 H     246  ESP246      0.3006
     16 HH22       45.8650   16.1790   54.3160 H     246  ESP246      0.3006
     17  H5        46.1960   21.0610   54.3590 H     246  ESP246      0.0599
     18  H7        44.0650   22.8660   49.1810 H     246  ESP246      0.0970
     19  H8        44.8540   24.2970   51.0470 H     246  ESP246      0.0643
     20  H9        45.7060   23.2940   53.1130 H     246  ESP246      0.0625
@<TRIPOS>BOND
     1    18    10    1
     2    10     9    2
     3    10    11    1
     4     9     6    2
     5    19    11    1
     6    11    12    2
     7     6     5    1
     8     6     7    1
     9     5     2    1
    10    12     7    1
    11    12    20    1
    12     7     8    2
    13    15     4    1
    14     2     8    1
    15     2     1    1
    16     8    17    1
    17     4     1    2
    18     4    16    1
    19     1     3    1
    20     3    13    1
    21     3    14    1
