@<TRIPOS>MOLECULE
1c5w_ESI_B_1.pdb
 21 22 0 0 0
SMALL
GASTEIGER

@<TRIPOS>ATOM
      1  C0         8.0050   -0.9330   25.8760 C.2   251  ESI251      0.2729
      2  C1         8.3730    0.3470   25.4750 C.ar  251  ESI251      0.0991
      3  N1         7.2890   -1.1050   26.9560 N.pl3 251  ESI251     -0.2493
      4  N2         8.4200   -1.9120   25.1260 N.2   251  ESI251     -0.2880
      5  S2         9.0650    0.6780   23.8360 S.2   251  ESI251     -0.0810
      6  C3         9.2230    2.4130   24.1640 C.ar  251  ESI251      0.0211
      7  C4         8.7640    2.6650   25.4470 C.ar  251  ESI251      0.0031
      8  C5         8.3230    1.5600   26.1270 C.ar  251  ESI251     -0.0311
      9  C6         9.6990    3.4080   23.3400 C.ar  251  ESI251     -0.0473
     10  C7         9.7290    4.7090   23.8190 C.ar  251  ESI251     -0.0597
     11  C8         9.2760    4.9890   25.1020 C.ar  251  ESI251     -0.0480
     12  C9         8.7930    3.9770   25.9230 C.ar  251  ESI251      0.0216
     13  I9         8.1600    4.5340   27.8570 I     251  ESI251     -0.0432
     14 HH11        7.0920   -0.2920   27.5200 H     251  ESI251      0.2883
     15 HH12        6.9710   -1.9810   27.3070 H     251  ESI251      0.2883
     16 HH21        9.0350   -1.7020   24.3480 H     251  ESI251      0.3009
     17 HH22        8.2300   -2.8700   25.2880 H     251  ESI251      0.3009
     18  H5         7.9420    1.6430   27.1320 H     251  ESI251      0.0638
     19  H6        10.0500    3.1760   22.3430 H     251  ESI251      0.0629
     20  H7        10.0950    5.5120   23.1960 H     251  ESI251      0.0618
     21  H8         9.3030    6.0050   25.4570 H     251  ESI251      0.0628
@<TRIPOS>BOND
     1    19     9    1
     2    20    10    1
     3     9    10   ar
     4     9     6   ar
     5    10    11   ar
     6     5     6   ar
     7     5     2   ar
     8     6     7   ar
     9    16     4    1
    10    11    21    1
    11    11    12   ar
    12     4    17    1
    13     4     1    2
    14     7    12   ar
    15     7     8   ar
    16     2     1    1
    17     2     8   ar
    18     1     3    1
    19    12    13    1
    20     8    18    1
    21     3    15    1
    22     3    14    1
