@<TRIPOS>MOLECULE
1c5x_ESI_B_1.pdb
 21 22 0 0 0
SMALL
GASTEIGER

@<TRIPOS>ATOM
      1  C0         7.9510   -0.9830   25.9110 C.2   251  ESI251      0.2729
      2  C1         8.2930    0.2880   25.5050 C.ar  251  ESI251      0.0991
      3  N1         7.3070   -1.1620   27.0290 N.pl3 251  ESI251     -0.2493
      4  N2         8.3420   -1.9500   25.1290 N.2   251  ESI251     -0.2880
      5  S2         9.0260    0.6610   23.8540 S.2   251  ESI251     -0.0810
      6  C3         9.1720    2.3800   24.1510 C.ar  251  ESI251      0.0211
      7  C4         8.6640    2.6270   25.4550 C.ar  251  ESI251      0.0031
      8  C5         8.2290    1.5180   26.1370 C.ar  251  ESI251     -0.0311
      9  C6         9.6550    3.3990   23.3520 C.ar  251  ESI251     -0.0473
     10  C7         9.6440    4.6920   23.8400 C.ar  251  ESI251     -0.0597
     11  C8         9.1550    4.9540   25.1360 C.ar  251  ESI251     -0.0480
     12  C9         8.6720    3.9300   25.9340 C.ar  251  ESI251      0.0216
     13  I9         8.0320    4.5270   27.8120 I     251  ESI251     -0.0432
     14 HH11        7.1350   -0.3460   27.5900 H     251  ESI251      0.2883
     15 HH12        6.9980   -2.0340   27.3950 H     251  ESI251      0.2883
     16 HH21        8.8990   -1.7150   24.3130 H     251  ESI251      0.3009
     17 HH22        8.1870   -2.9120   25.2880 H     251  ESI251      0.3009
     18  H5         7.8360    1.6200   27.1390 H     251  ESI251      0.0638
     19  H6        10.0150    3.1840   22.3600 H     251  ESI251      0.0629
     20  H7        10.0160    5.5040   23.2320 H     251  ESI251      0.0618
     21  H8         9.1590    5.9550   25.5180 H     251  ESI251      0.0628
@<TRIPOS>BOND
     1    19     9    1
     2    20    10    1
     3     9    10   ar
     4     9     6   ar
     5    10    11   ar
     6     5     6   ar
     7     5     2   ar
     8     6     7   ar
     9    16     4    1
    10     4    17    1
    11     4     1    2
    12    11    21    1
    13    11    12   ar
    14     7    12   ar
    15     7     8   ar
    16     2     1    1
    17     2     8   ar
    18     1     3    1
    19    12    13    1
    20     8    18    1
    21     3    15    1
    22     3    14    1
