@<TRIPOS>MOLECULE
1c5y_ESP_B_1.pdb
 20 21 0 0 0
SMALL
GASTEIGER

@<TRIPOS>ATOM
      1  C0         8.1660   -0.9270   25.8650 C.2   251  ESP251      0.2730
      2  C1         8.4900    0.3310   25.4350 C.ar  251  ESP251      0.1014
      3  N1         7.5500   -1.0330   27.0040 N.pl3 251  ESP251     -0.2493
      4  N2         8.5110   -1.9100   25.0980 N.2   251  ESP251     -0.2880
      5  S2         9.0730    0.5490   23.7620 S.2   251  ESP251     -0.0488
      6  C3         9.2650    2.2370   23.9650 C.ar  251  ESP251      0.1585
      7  C4         8.8960    2.5900   25.2540 C.ar  251  ESP251      0.0173
      8  C5         8.4730    1.5580   26.0570 C.ar  251  ESP251     -0.0298
      9  N6         9.6740    3.1910   23.1680 N.2   251  ESP251     -0.4080
     10  C7         9.7660    4.4770   23.4640 C.2   251  ESP251      0.0644
     11  C8         9.3970    4.8440   24.7560 C.3   251  ESP251      0.0367
     12  C9         8.9570    3.9010   25.6530 C.2   251  ESP251     -0.0630
     13 HH11        7.4060   -0.1620   27.4970 H     251  ESP251      0.2883
     14 HH12        7.2170   -1.8680   27.4210 H     251  ESP251      0.2883
     15 HH21        9.0400   -1.6980   24.2650 H     251  ESP251      0.3009
     16 HH22        8.3260   -2.8560   25.2870 H     251  ESP251      0.3009
     17  H5         8.1590    1.7090   27.0830 H     251  ESP251      0.0638
     18  H7        10.1130    5.2030   22.7470 H     251  ESP251      0.0928
     19  H8         9.4470    5.8810   25.0600 H     251  ESP251      0.0421
     20  H9         8.6680    4.1770   26.6510 H     251  ESP251      0.0586
@<TRIPOS>BOND
     1    18    10    1
     2     9    10    2
     3     9     6    2
     4    10    11    1
     5     5     6   ar
     6     5     2   ar
     7     6     7   ar
     8    15     4    1
     9    11    19    1
    10    11    12    1
    11     4    16    1
    12     4     1    2
    13     7    12    2
    14     7     8   ar
    15     2     1    1
    16     2     8   ar
    17    12    20    1
    18     1     3    1
    19     8    17    1
    20     3    14    1
    21     3    13    1
