@<TRIPOS>MOLECULE
1c5z_BAM_B_1.pdb
 18 18 0 0 0
SMALL
GASTEIGER

@<TRIPOS>ATOM
      1  C1         8.7740    0.7720   25.1310 C.ar  251  BAM251      0.0608
      2  C2         8.6590    1.9420   25.9110 C.ar  251  BAM251     -0.0470
      3  C3         9.0010    3.1910   25.3970 C.ar  251  BAM251     -0.0610
      4  C4         9.4630    3.2990   24.0930 C.ar  251  BAM251     -0.0617
      5  C5         9.5890    2.1720   23.3030 C.ar  251  BAM251     -0.0610
      6  C6         9.2490    0.9350   23.8170 C.ar  251  BAM251     -0.0470
      7  C          8.4270   -0.4950   25.6370 C.2   251  BAM251      0.2662
      8  N1         7.8210   -0.6090   26.8000 N.pl3 251  BAM251     -0.2497
      9  N2         8.7180   -1.5550   24.9310 N.2   251  BAM251     -0.2884
     10 HC21        8.3040    1.8860   26.9280 H     251  BAM251      0.0626
     11 HC31        8.9040    4.0730   26.0130 H     251  BAM251      0.0618
     12 HC41        9.7290    4.2630   23.6890 H     251  BAM251      0.0618
     13 HC51        9.9530    2.2530   22.2890 H     251  BAM251      0.0618
     14 HC61        9.3680    0.0890   23.1710 H     251  BAM251      0.0626
     15 HN11        7.6160    0.2110   27.3470 H     251  BAM251      0.2883
     16 HN12        7.5260   -1.4740   27.1890 H     251  BAM251      0.2883
     17 HN21        9.1850   -1.4790   24.0380 H     251  BAM251      0.3009
     18 HN22        8.5180   -2.4810   25.2080 H     251  BAM251      0.3009
@<TRIPOS>BOND
     1    13     5    1
     2    14     6    1
     3     5     6   ar
     4     5     4   ar
     5    12     4    1
     6     6     1   ar
     7    17     9    1
     8     4     3   ar
     9     9    18    1
    10     9     7    2
    11     1     7    1
    12     1     2   ar
    13     3     2   ar
    14     3    11    1
    15     7     8    1
    16     2    10    1
    17     8    16    1
    18     8    15    1
