@<TRIPOS>MOLECULE
1c6o_HEM_A_1.pdb
 43 50 0 0 0
SMALL
GASTEIGER

@<TRIPOS>ATOM
      1 FE         22.2010   24.8800    3.6380 Fe     90  HEM90       0.0000
      2  CHA       25.0630   23.0720    2.8090 C.2    90  HEM90       0.0000
      3  CHB       23.3810   25.2560    6.8320 C.2    90  HEM90       0.0000
      4  CHC       19.5880   26.9560    4.3000 C.2    90  HEM90       0.0000
      5  CHD       20.8920   24.1160    0.5590 C.2    90  HEM90       0.0000
      6  NA        23.8460   24.2520    4.6040 N.2    90  HEM90       0.0000
      7  C1A       24.9310   23.5120    4.1420 C.2    90  HEM90       0.0000
      8  C2A       25.9050   23.3310    5.1550 C.2    90  HEM90       0.0000
      9  C3A       25.4990   23.9770    6.2600 C.2    90  HEM90       0.0000
     10  C4A       24.1890   24.5170    5.9420 C.2    90  HEM90       0.0000
     11  CMA       26.2880   24.0520    7.5820 C.3    90  HEM90       0.0000
     12  CAA       27.1060   22.4910    5.0340 C.3    90  HEM90       0.0000
     13  CBA       26.7750   21.0040    5.0630 C.3    90  HEM90       0.0000
     14  CGA       27.9500   20.1540    4.6500 C.2    90  HEM90       0.0000
     15  O1A       27.9340   18.9330    4.9040 O.co2  90  HEM90       0.0000
     16  O2A       28.9020   20.7120    4.0570 O.co2  90  HEM90       0.0000
     17  NB        21.5840   25.8690    5.2420 N.ar   90  HEM90       0.0000
     18  C1B       22.2090   25.9170    6.5230 C.ar   90  HEM90       0.0000
     19  C2B       21.5370   26.7560    7.4100 C.ar   90  HEM90       0.0000
     20  C3B       20.4600   27.3440    6.7050 C.ar   90  HEM90       0.0000
     21  C4B       20.5070   26.7180    5.3730 C.ar   90  HEM90       0.0000
     22  CMB       21.8340   26.8220    8.9270 C.3    90  HEM90       0.0000
     23  CAB       19.4370   28.2430    7.2010 C.3    90  HEM90       0.0000
     24  CBB       19.6880   29.6110    7.5870 C.3    90  HEM90       0.0000
     25  NC        20.6330   25.4870    2.6340 N.2    90  HEM90       0.0000
     26  C1C       19.6460   26.3520    3.0360 C.2    90  HEM90       0.0000
     27  C2C       18.5280   26.3190    2.1200 C.2    90  HEM90       0.0000
     28  C3C       18.8420   25.4690    1.0820 C.2    90  HEM90       0.0000
     29  C4C       20.1880   24.9880    1.3830 C.2    90  HEM90       0.0000
     30  CMC       17.1780   26.9780    2.3470 C.3    90  HEM90       0.0000
     31  CAC       17.9790   25.1310   -0.0120 C.3    90  HEM90       0.0000
     32  CBC       17.4820   26.1840   -0.8500 C.3    90  HEM90       0.0000
     33  ND        22.8160   23.8510    2.0370 N.ar   90  HEM90       0.0000
     34  C1D       22.1660   23.6830    0.7880 C.ar   90  HEM90       0.0000
     35  C2D       23.0860   23.1860   -0.2200 C.ar   90  HEM90       0.0000
     36  C3D       24.2700   22.9750    0.4120 C.ar   90  HEM90       0.0000
     37  C4D       24.0910   23.3000    1.8120 C.ar   90  HEM90       0.0000
     38  CMD       22.8500   22.7990   -1.6860 C.3    90  HEM90       0.0000
     39  CAD       25.5690   22.4600   -0.1960 C.3    90  HEM90       0.0000
     40  CBD       26.4580   23.6200   -0.5380 C.3    90  HEM90       0.0000
     41  CGD       27.6880   23.1790   -1.3090 C.2    90  HEM90       0.0000
     42  O1D       28.7360   22.9410   -0.6780 O.co2  90  HEM90       0.0000
     43  O2D       27.6220   23.0610   -2.5570 O.co2  90  HEM90       0.0000
@<TRIPOS>BOND
     1    43    41   ar
     2    38    35    1
     3    41    42   ar
     4    41    40    1
     5    32    31    1
     6    40    39    1
     7    35    36   ar
     8    35    34   ar
     9    39    36    1
    10    31    28    1
    11    36    37   ar
    12     5    34    2
    13     5    29    1
    14    34    33   ar
    15    28    29    1
    16    28    27    2
    17    29    25    2
    18    37    33   ar
    19    37     2    2
    20    33     1    1
    21    27    30    1
    22    27    26    1
    23    25    26    1
    24    25     1    1
    25     2     7    1
    26    26     4    2
    27     1     6    1
    28     1    17    1
    29    16    14   ar
    30     7     6    2
    31     7     8    1
    32     4    21    1
    33     6    10    1
    34    14    15   ar
    35    14    13    1
    36    12    13    1
    37    12     8    1
    38     8     9    2
    39    17    21   ar
    40    17    18   ar
    41    21    20   ar
    42    10     9    1
    43    10     3    2
    44     9    11    1
    45    18     3    1
    46    18    19   ar
    47    20    23    1
    48    20    19   ar
    49    23    24    1
    50    19    22    1
