@<TRIPOS>MOLECULE
1c6r_HEM_A_1.pdb
 43 50 0 0 0
SMALL
GASTEIGER

@<TRIPOS>ATOM
      1 FE          6.3300   13.1400    5.5580 Fe     90  HEM90       0.0000
      2  CHA        8.7350   15.4870    5.3740 C.2    90  HEM90       0.0000
      3  CHB        7.2000   12.4590    8.7610 C.2    90  HEM90       0.0000
      4  CHC        3.7500   11.0220    5.7820 C.2    90  HEM90       0.0000
      5  CHD        5.7170   13.5210    2.1460 C.2    90  HEM90       0.0000
      6  NA         7.7040   13.8450    6.8150 N.2    90  HEM90       0.0000
      7  C1A        8.6700   14.7790    6.5600 C.2    90  HEM90       0.0000
      8  C2A        9.5600   14.9910    7.7060 C.2    90  HEM90       0.0000
      9  C3A        9.0510   14.1920    8.7040 C.2    90  HEM90       0.0000
     10  C4A        7.9400   13.4540    8.1200 C.2    90  HEM90       0.0000
     11  CMA        9.4930   14.1140   10.1650 C.3    90  HEM90       0.0000
     12  CAA       10.8150   15.9200    7.7010 C.3    90  HEM90       0.0000
     13  CBA       11.9980   15.4120    6.8500 C.3    90  HEM90       0.0000
     14  CGA       13.1160   16.4390    6.6800 C.2    90  HEM90       0.0000
     15  O1A       14.2510   16.0300    6.3250 O.co2  90  HEM90       0.0000
     16  O2A       12.8660   17.6500    6.8690 O.co2  90  HEM90       0.0000
     17  NB         5.5840   12.0170    7.0020 N.ar   90  HEM90       0.0000
     18  C1B        6.0980   11.7820    8.2380 C.ar   90  HEM90       0.0000
     19  C2B        5.3330   10.7880    8.9310 C.ar   90  HEM90       0.0000
     20  C3B        4.2950   10.4420    8.1310 C.ar   90  HEM90       0.0000
     21  C4B        4.4790   11.2250    6.9390 C.ar   90  HEM90       0.0000
     22  CMB        5.6780   10.2420   10.3100 C.3    90  HEM90       0.0000
     23  CAB        3.2200    9.5570    8.3910 C.3    90  HEM90       0.0000
     24  CBB        2.2240    9.8710    9.3310 C.3    90  HEM90       0.0000
     25  NC         5.0360   12.3870    4.2600 N.2    90  HEM90       0.0000
     26  C1C        4.0000   11.5350    4.5400 C.2    90  HEM90       0.0000
     27  C2C        3.2640   11.1970    3.3380 C.2    90  HEM90       0.0000
     28  C3C        3.8570   11.8400    2.3130 C.2    90  HEM90       0.0000
     29  C4C        4.9470   12.6000    2.8700 C.2    90  HEM90       0.0000
     30  CMC        2.1900   10.1250    3.2530 C.3    90  HEM90       0.0000
     31  CAC        3.6250   11.6530    0.9360 C.3    90  HEM90       0.0000
     32  CBC        2.4430   12.1280    0.3280 C.3    90  HEM90       0.0000
     33  ND         6.9910   14.3260    4.1020 N.ar   90  HEM90       0.0000
     34  C1D        6.6340   14.3750    2.7330 C.ar   90  HEM90       0.0000
     35  C2D        7.3240   15.4950    2.0680 C.ar   90  HEM90       0.0000
     36  C3D        8.1180   16.0860    2.9950 C.ar   90  HEM90       0.0000
     37  C4D        7.9470   15.3170    4.2380 C.ar   90  HEM90       0.0000
     38  CMD        7.2320   15.8620    0.6140 C.3    90  HEM90       0.0000
     39  CAD        9.0010   17.2970    2.8160 C.3    90  HEM90       0.0000
     40  CBD        8.3090   18.4870    3.4420 C.3    90  HEM90       0.0000
     41  CGD        8.9670   19.8030    3.0620 C.2    90  HEM90       0.0000
     42  O1D        9.9350   20.2200    3.7350 O.co2  90  HEM90       0.0000
     43  O2D        8.5480   20.4220    2.0680 O.co2  90  HEM90       0.0000
@<TRIPOS>BOND
     1    32    31    1
     2    38    35    1
     3    31    28    1
     4    43    41   ar
     5    35    34   ar
     6    35    36   ar
     7     5    34    2
     8     5    29    1
     9    28    29    1
    10    28    27    2
    11    34    33   ar
    12    39    36    1
    13    39    40    1
    14    29    25    2
    15    36    37   ar
    16    41    40    1
    17    41    42   ar
    18    30    27    1
    19    27    26    1
    20    33    37   ar
    21    33     1    1
    22    37     2    2
    23    25    26    1
    24    25     1    1
    25    26     4    2
    26     2     7    1
    27     1     6    1
    28     1    17    1
    29     4    21    1
    30    15    14   ar
    31     7     6    2
    32     7     8    1
    33    14    13    1
    34    14    16   ar
    35     6    10    1
    36    13    12    1
    37    21    17   ar
    38    21    20   ar
    39    17    18   ar
    40    12     8    1
    41     8     9    2
    42    10     9    1
    43    10     3    2
    44    20    23    1
    45    20    19   ar
    46    18     3    1
    47    18    19   ar
    48    23    24    1
    49     9    11    1
    50    19    22    1
