@<TRIPOS>MOLECULE
1c6y_MK1_B_1.pdb
 45 49 0 0 0
SMALL
GASTEIGER

@<TRIPOS>ATOM
      1  N1         9.6990   25.2450    3.2100 N.3   524  MK1524     -0.2661
      2  C1         9.6770   25.3590    4.7010 C.3   524  MK1524      0.0980
      3  C2        10.9380   26.0730    5.1550 C.3   524  MK1524      0.1527
      4  C3        10.8940   26.3430    6.6200 C.2   524  MK1524      0.2572
      5  O1        11.3860   25.5440    7.4050 O.2   524  MK1524     -0.2718
      6  N2        10.3230   27.4990    7.0590 N.am  524  MK1524     -0.2077
      7  C4        10.3660   27.8070    8.5210 C.3   524  MK1524      0.0788
      8  C5        11.7190   27.5910    9.2050 C.3   524  MK1524      0.0217
      9  C6         9.3240   26.8700    9.2300 C.3   524  MK1524      0.0217
     10  C7        10.1480   29.3650    8.7070 C.3   524  MK1524      0.0217
     11  N3        12.0990   25.2500    4.8060 N.3   524  MK1524     -0.2619
     12  C8        12.1230   25.0900    3.3230 C.3   524  MK1524      0.0901
     13  C9        10.8500   24.5320    2.7350 C.3   524  MK1524      0.0899
     14  C10       13.2550   26.1740    4.6800 C.3   524  MK1524      0.1057
     15  C11       14.6140   25.5620    4.9970 C.3   524  MK1524      0.1684
     16  O2        15.5460   26.3460    4.4710 O.3   524  MK1524     -0.2216
     17  C12       14.8000   25.4690    6.4730 C.3   524  MK1524      0.0438
     18  C13       16.0710   24.7820    7.0010 C.3   524  MK1524      0.0851
     19  C14       16.1650   25.0190    8.5190 C.3   524  MK1524      0.0356
     20  C15       17.3000   24.1620    9.0520 C.ar  524  MK1524     -0.0217
     21  C16       18.6130   24.2300    8.5040 C.ar  524  MK1524     -0.0043
     22  C17       19.6480   23.5720    9.1560 C.ar  524  MK1524     -0.0003
     23  C18       19.3640   22.8960   10.3450 C.ar  524  MK1524     -0.0000
     24  C19       18.0400   22.5990   10.7330 C.ar  524  MK1524     -0.0003
     25  C20       16.9880   23.2700   10.0870 C.ar  524  MK1524     -0.0043
     26  C21       16.0830   23.1750    6.6870 C.2   524  MK1524      0.2416
     27  O3        15.1900   22.4150    7.0730 O.2   524  MK1524     -0.2733
     28  N4        17.1480   22.7100    6.1060 N.am  524  MK1524     -0.2001
     29  C22       17.4460   21.2760    6.2430 C.3   524  MK1524      0.1477
     30  C23       18.9400   20.9680    6.5180 C.3   524  MK1524      0.1802
     31  O4        19.6840   21.7400    5.6700 O.3   524  MK1524     -0.2206
     32  C24       19.1730   19.4500    6.1960 C.3   524  MK1524      0.0611
     33  C25       18.2770   19.5520    4.9180 C.ar  524  MK1524     -0.0218
     34  C26       18.4410   18.8610    3.7400 C.ar  524  MK1524     -0.0044
     35  C27       17.6260   19.3360    2.6860 C.ar  524  MK1524     -0.0003
     36  C28       16.6860   20.4010    2.7630 C.ar  524  MK1524     -0.0003
     37  C29       16.4960   21.0390    3.9520 C.ar  524  MK1524     -0.0029
     38  C30       17.3320   20.6070    4.9740 C.ar  524  MK1524     -0.0040
     39  C31        8.5060   24.5940    2.5860 C.3   524  MK1524      0.1008
     40  C32        7.9260   23.4130    3.4090 C.ar  524  MK1524      0.0130
     41  C33        6.9230   23.6130    4.3960 C.ar  524  MK1524      0.0959
     42  N5         6.3890   22.5620    5.0620 N.ar  524  MK1524     -0.2426
     43  C34        6.7530   21.2810    4.8100 C.ar  524  MK1524      0.0989
     44  C35        7.7640   20.9610    3.8650 C.ar  524  MK1524      0.0204
     45  C36        8.3540   22.0670    3.1730 C.ar  524  MK1524      0.0002
@<TRIPOS>BOND
     1    39     1    1
     2    39    40    1
     3    35    36   ar
     4    35    34   ar
     5    13     1    1
     6    13    12    1
     7    36    37   ar
     8    45    40   ar
     9    45    44   ar
    10     1     2    1
    11    12    11    1
    12    40    41   ar
    13    34    33   ar
    14    44    43   ar
    15    37    38   ar
    16    41    42   ar
    17    16    15    1
    18    14    11    1
    19    14    15    1
    20     2     3    1
    21    11     3    1
    22    43    42   ar
    23    33    38   ar
    24    33    32    1
    25    38    29    1
    26    15    17    1
    27     3     4    1
    28    31    30    1
    29    28    29    1
    30    28    26   am
    31    32    30    1
    32    29    30    1
    33    17    18    1
    34     4     6   am
    35     4     5    2
    36    26    18    1
    37    26    27    2
    38    18    19    1
    39     6     7    1
    40    21    20   ar
    41    21    22   ar
    42    19    20    1
    43     7    10    1
    44     7     8    1
    45     7     9    1
    46    20    25   ar
    47    22    23   ar
    48    25    24   ar
    49    23    24   ar
