@<TRIPOS>MOLECULE
1c6z_ROC_B_1.pdb
 49 53 0 0 0
SMALL
GASTEIGER

@<TRIPOS>ATOM
      1  C         35.8390   24.1210   25.4780 C.2   505  ROC505      0.2949
      2  O         36.4700   23.0730   25.3770 O.2   505  ROC505     -0.2655
      3  N1        34.9440   25.9870   26.6900 N.2   505  ROC505     -0.4012
      4  C2        35.4210   24.7400   26.7190 C.2   505  ROC505      0.1857
      5  C3        35.5160   24.0160   27.8980 C.2   505  ROC505      0.0369
      6  C4        34.9600   24.6010   29.0270 C.2   505  ROC505      0.0050
      7  C5        33.7580   26.4320   30.0780 C.2   505  ROC505      0.0019
      8  C6        33.1760   27.6990   29.9830 C.2   505  ROC505     -0.0041
      9  C7        33.0860   28.3600   28.7750 C.2   505  ROC505     -0.0187
     10  C8        33.6820   27.7960   27.6520 C.3   505  ROC505      0.0849
     11  C4A       34.3460   25.8480   28.9570 C.2   505  ROC505      0.0258
     12  C8A       34.3240   26.5490   27.7450 C.2   505  ROC505      0.1135
     13  N         35.4540   24.8210   24.4230 N.am  505  ROC505     -0.1913
     14  CA        35.9090   24.3080   23.1320 C.3   505  ROC505      0.1823
     15  C1        36.6660   25.3360   22.3550 C.2   505  ROC505      0.2618
     16  O1        36.0870   26.1200   21.6010 O.2   505  ROC505     -0.2715
     17  CB        34.7750   23.8130   22.2570 C.3   505  ROC505      0.1195
     18  CG        34.1720   22.5210   22.7510 C.2   505  ROC505      0.2630
     19  OD1       34.6200   21.4340   22.3910 O.2   505  ROC505     -0.2716
     20  ND2       33.1090   22.5410   23.5920 N.am  505  ROC505     -0.0877
     21  C9        39.7040   25.3570   20.8500 C.3   505  ROC505      0.1879
     22  O2        40.3020   24.2940   21.2700 O.3   505  ROC505     -0.2198
     23  CA1       38.9420   26.1750   21.9200 C.3   505  ROC505      0.1313
     24  N2        37.9980   25.2720   22.5840 N.am  505  ROC505     -0.2027
     25  CB1       39.9180   26.7020   22.9820 C.3   505  ROC505      0.0506
     26  CG1       39.1910   27.1720   24.2390 C.ar  505  ROC505     -0.0204
     27  CD1       38.6030   28.4730   24.2960 C.ar  505  ROC505     -0.0042
     28  CD2       39.1250   26.2620   25.3430 C.ar  505  ROC505     -0.0042
     29  CE1       37.9200   28.8390   25.4840 C.ar  505  ROC505     -0.0003
     30  CE2       38.4380   26.6790   26.5110 C.ar  505  ROC505     -0.0003
     31  CZ        37.8460   27.9620   26.5780 C.ar  505  ROC505     -0.0000
     32  N11       39.7550   27.0450   18.9190 N.3   505  ROC505     -0.2643
     33  CM        40.5110   26.2440   19.8860 C.3   505  ROC505      0.1075
     34  C21       40.6720   28.1460   18.5910 C.3   505  ROC505      0.1365
     35  CC        40.8000   29.2010   19.6390 C.2   505  ROC505      0.2558
     36  O3        39.8740   29.4270   20.4100 O.2   505  ROC505     -0.2719
     37  C31       40.2620   28.8470   17.2930 C.3   505  ROC505      0.0254
     38  C3A       40.1280   27.8870   16.1160 C.3   505  ROC505      0.0032
     39  C41       39.6540   28.5720   14.8550 C.3   505  ROC505      0.0001
     40  C51       38.2400   29.1470   14.9790 C.3   505  ROC505      0.0000
     41  C61       37.2690   28.0300   15.3520 C.3   505  ROC505      0.0000
     42  C71       37.7330   27.3430   16.6430 C.3   505  ROC505      0.0014
     43  C7A       39.1590   26.7690   16.4860 C.3   505  ROC505      0.0161
     44  C81       39.6330   26.0870   17.7720 C.3   505  ROC505      0.0725
     45  N3        42.0030   29.8230   19.5710 N.am  505  ROC505     -0.2077
     46  CD        42.4180   30.8950   20.4640 C.3   505  ROC505      0.0788
     47  C11       43.8200   31.3210   20.0130 C.3   505  ROC505      0.0217
     48  C22       41.4750   32.0810   20.3430 C.3   505  ROC505      0.0217
     49  C32       42.4150   30.4130   21.9300 C.3   505  ROC505      0.0217
@<TRIPOS>BOND
     1    39    40    1
     2    39    38    1
     3    40    41    1
     4    41    42    1
     5    38    43    1
     6    38    37    1
     7    43    42    1
     8    43    44    1
     9    37    34    1
    10    44    32    1
    11    34    32    1
    12    34    35    1
    13    32    33    1
    14    45    35   am
    15    45    46    1
    16    35    36    2
    17    33    21    1
    18    47    46    1
    19    48    46    1
    20    46    49    1
    21    21    22    1
    22    21    23    1
    23    16    15    2
    24    23    24    1
    25    23    25    1
    26    17    18    1
    27    17    14    1
    28    15    24   am
    29    15    14    1
    30    19    18    2
    31    18    20   am
    32    25    26    1
    33    14    13    1
    34    26    27   ar
    35    26    28   ar
    36    27    29   ar
    37    13     1   am
    38    28    30   ar
    39     2     1    2
    40     1     4    1
    41    29    31   ar
    42    30    31   ar
    43     3     4    2
    44     3    12    2
    45     4     5    1
    46    10    12    1
    47    10     9    1
    48    12    11    1
    49     5     6    2
    50     9     8    2
    51    11     6    1
    52    11     7    2
    53     8     7    1
