@<TRIPOS>MOLECULE
1c70_L75_B_1.pdb
 48 53 0 0 0
SMALL
GASTEIGER

@<TRIPOS>ATOM
      1  N1         9.2130   23.9200    2.6960 N.3   423  L75423     -0.2635
      2  C1         9.2320   23.8990    4.1620 C.3   423  L75423      0.0981
      3  C2        10.3950   24.7820    4.6440 C.3   423  L75423      0.1527
      4  C3        10.3890   24.8560    6.1620 C.2   423  L75423      0.2572
      5  O1        10.7510   23.8540    6.8230 O.2   423  L75423     -0.2718
      6  N2        10.0480   26.0520    6.6740 N.am  423  L75423     -0.2077
      7  C4        10.0400   26.3380    8.1330 C.3   423  L75423      0.0788
      8  C5         9.5350   27.7760    8.3410 C.3   423  L75423      0.0217
      9  C6        11.4640   26.2560    8.6960 C.3   423  L75423      0.0217
     10  C7         9.0790   25.3510    8.8630 C.3   423  L75423      0.0217
     11  N3        11.6710   24.2400    4.1300 N.3   423  L75423     -0.2619
     12  C8        11.6610   24.1760    2.6430 C.3   423  L75423      0.0901
     13  C9        10.4460   23.3390    2.1640 C.3   423  L75423      0.0900
     14  C10       12.7950   25.0880    4.5620 C.3   423  L75423      0.1057
     15  C11       13.9980   24.2240    4.8280 C.3   423  L75423      0.1684
     16  O2        15.1190   24.9000    4.3380 O.3   423  L75423     -0.2216
     17  C12       14.2440   23.9660    6.2840 C.3   423  L75423      0.0438
     18  C13       15.4490   23.1300    6.7380 C.3   423  L75423      0.0851
     19  C14       15.5560   23.1740    8.2650 C.3   423  L75423      0.0356
     20  C15       16.5840   22.1750    8.8200 C.ar  423  L75423     -0.0217
     21  C16       17.9720   22.3160    8.5250 C.ar  423  L75423     -0.0043
     22  C17       18.8750   21.4040    9.0630 C.ar  423  L75423     -0.0003
     23  C18       18.4030   20.3540    9.8720 C.ar  423  L75423     -0.0000
     24  C19       17.0430   20.1910   10.1550 C.ar  423  L75423     -0.0003
     25  C20       16.1260   21.1030    9.6350 C.ar  423  L75423     -0.0043
     26  C21       15.3170   21.6910    6.2250 C.2   423  L75423      0.2416
     27  O3        14.2920   21.0510    6.4710 O.2   423  L75423     -0.2733
     28  N4        16.3950   21.2200    5.5770 N.am  423  L75423     -0.2001
     29  C22       16.5420   19.7620    5.4030 C.3   423  L75423      0.1477
     30  C23       17.9850   19.3260    5.8830 C.3   423  L75423      0.1802
     31  O4        18.9080   20.2670    5.3540 O.3   423  L75423     -0.2206
     32  C24       18.1730   18.0050    5.0670 C.3   423  L75423      0.0611
     33  C25       17.3740   18.2930    3.8190 C.ar  423  L75423     -0.0218
     34  C26       17.6360   17.7740    2.5530 C.ar  423  L75423     -0.0044
     35  C27       16.9120   18.2950    1.4880 C.ar  423  L75423     -0.0003
     36  C28       15.9700   19.3330    1.7130 C.ar  423  L75423     -0.0003
     37  C29       15.7440   19.8340    2.9960 C.ar  423  L75423     -0.0029
     38  C30       16.5100   19.3110    4.0150 C.ar  423  L75423     -0.0040
     39  C31        8.0010   23.2110    2.1710 C.3   423  L75423      0.1377
     40  C32        8.9420   17.2010    2.1820 C.ar  423  L75423      0.0031
     41  C33        9.5700   18.4780    1.9380 C.ar  423  L75423      0.0375
     42  C34        8.7650   19.6210    2.1370 C.ar  423  L75423      0.1449
     43  C35        7.4530   19.5700    2.5920 C.ar  423  L75423      0.0373
     44  C36        6.7990   18.3310    2.7810 C.ar  423  L75423      0.0031
     45  C37        7.5540   17.1370    2.5700 C.ar  423  L75423      0.0002
     46  O5         9.1560   20.8990    1.9530 O.2   423  L75423     -0.4564
     47  C38        8.0760   21.6860    2.3730 C.ar  423  L75423      0.1390
     48  C39        6.9360   20.8970    2.8340 C.ar  423  L75423      0.0374
@<TRIPOS>BOND
     1    35    36   ar
     2    35    34   ar
     3    36    37   ar
     4    41    42   ar
     5    41    40   ar
     6    46    42   ar
     7    46    47   ar
     8    42    43   ar
     9    13    12    1
    10    13     1    1
    11    39    47    1
    12    39     1    1
    13    40    45   ar
    14    47    48   ar
    15    34    33   ar
    16    45    44   ar
    17    43    44   ar
    18    43    48   ar
    19    12    11    1
    20     1     2    1
    21    37    38   ar
    22    33    38   ar
    23    33    32    1
    24    38    29    1
    25    11    14    1
    26    11     3    1
    27     2     3    1
    28    16    15    1
    29    14    15    1
    30     3     4    1
    31    15    17    1
    32    32    30    1
    33    31    30    1
    34    29    28    1
    35    29    30    1
    36    28    26   am
    37     4     6   am
    38     4     5    2
    39    26    27    2
    40    26    18    1
    41    17    18    1
    42     6     7    1
    43    18    19    1
    44     7     8    1
    45     7     9    1
    46     7    10    1
    47    19    20    1
    48    21    20   ar
    49    21    22   ar
    50    20    25   ar
    51    22    23   ar
    52    25    24   ar
    53    23    24   ar
