@<TRIPOS>MOLECULE
1c72_EPY_A_1.pdb
 34 34 0 0 0
SMALL
GASTEIGER

@<TRIPOS>ATOM
      1  S         56.2210   36.1040   71.6200 S.3   220  EPY220     -0.1323
      2  C2A       55.7020   34.0780   73.1460 C.3   220  EPY220      0.1834
      3  C3A       54.5850   33.7410   74.2390 C.2   220  EPY220      0.2626
      4  N4A       54.3570   32.4510   74.3450 N.am  220  EPY220     -0.1917
      5  C1A       55.9340   35.5640   72.9490 C.3   220  EPY220      0.0887
      6  C5A       55.3480   31.4660   74.8720 C.3   220  EPY220      0.2285
      7  C6A       54.7260   30.2570   75.4610 C.2   220  EPY220      0.3865
      8  O6A       53.5020   30.1250   75.4910 O.co2 220  EPY220     -0.2437
      9  O3A       53.8250   34.5750   74.7140 O.2   220  EPY220     -0.2714
     10  O7A       55.4270   29.3320   75.9500 O.co2 220  EPY220     -0.2437
     11  O6B       54.5320   32.6690   65.2550 O.co2 220  EPY220     -0.2441
     12  C6B       54.3810   32.3480   66.4980 C.2   220  EPY220      0.3819
     13  O7B       53.3520   32.5520   67.0870 O.co2 220  EPY220     -0.2441
     14  C5B       55.5900   31.6520   67.2320 C.3   220  EPY220      0.1948
     15  N5B       56.7080   31.4020   66.1870 N.3   220  EPY220     -0.1208
     16  C4B       56.2120   32.4970   68.3770 C.3   220  EPY220      0.0402
     17  C3B       55.2590   32.8380   69.5170 C.3   220  EPY220      0.0889
     18  C2B       55.9940   33.4540   70.7360 C.2   220  EPY220      0.2418
     19  O2B       57.1420   33.7970   70.6750 O.2   220  EPY220     -0.2733
     20  N1B       55.1820   33.5280   71.9580 N.am  220  EPY220     -0.1969
     21  C1C       57.5490   36.6410   72.1930 C.3   220  EPY220      0.1242
     22  C3C       57.5530   37.4720   73.4930 C.3   220  EPY220      0.1965
     23  O2C       58.6720   38.1530   73.9590 O.3   220  EPY220     -0.2193
     24  C2C       58.4860   37.2600   71.2950 C.3   220  EPY220      0.2187
     25  O3C       59.7970   37.8610   71.3750 O.3   220  EPY220     -0.4745
     26  C4C       59.6940   38.6240   70.2070 C.ar  220  EPY220      0.1387
     27  C9C       59.6060   40.0340   70.3420 C.ar  220  EPY220      0.0386
     28  C8C       59.4910   40.8620   69.1950 C.ar  220  EPY220      0.0272
     29  C7C       59.4720   40.2720   67.9030 C.ar  220  EPY220      0.1431
     30  C6C       59.5660   38.8740   67.7780 C.ar  220  EPY220      0.0272
     31  C5C       59.6810   38.0560   68.9160 C.ar  220  EPY220      0.0386
     32  N8C       59.4080   41.0140   66.8180 N.pl3 220  EPY220      0.0577
     33  O8C       59.1680   40.6190   65.6800 O.2   220  EPY220     -0.1261
     34  O9C       59.5540   42.1970   66.9960 O.2   220  EPY220     -0.1261
@<TRIPOS>BOND
     1    11    12   ar
     2    33    32    2
     3    15    14    1
     4    12    13   ar
     5    12    14    1
     6    32    34    2
     7    32    29    1
     8    14    16    1
     9    30    29   ar
    10    30    31   ar
    11    29    28   ar
    12    16    17    1
    13    31    26   ar
    14    28    27   ar
    15    17    18    1
    16    26    27   ar
    17    26    25    1
    18    19    18    2
    19    18    20   am
    20    24    25    1
    21    24    21    1
    22     1    21    1
    23     1     5    1
    24    20     2    1
    25    21    22    1
    26     5     2    1
    27     2     3    1
    28    22    23    1
    29     3     4   am
    30     3     9    2
    31     4     6    1
    32     6     7    1
    33     7     8   ar
    34     7    10   ar
