@<TRIPOS>MOLECULE
1c7b_HEM_A_1.pdb
 43 50 0 0 0
SMALL
GASTEIGER

@<TRIPOS>ATOM
      1 FE         18.3810   18.5210   23.8110 Fe    150  HEM150      0.0000
      2  CHA       18.8280   18.6240   20.3800 C.2   150  HEM150      0.0000
      3  CHB       20.9240   20.8330   24.1520 C.2   150  HEM150      0.0000
      4  CHC       18.7580   17.7250   27.1790 C.2   150  HEM150      0.0000
      5  CHD       16.6640   15.5180   23.4110 C.2   150  HEM150      0.0000
      6  NA        19.6910   19.4800   22.5110 N.2   150  HEM150      0.0000
      7  C1A       19.6350   19.4410   21.1360 C.2   150  HEM150      0.0000
      8  C2A       20.5870   20.3980   20.6070 C.2   150  HEM150      0.0000
      9  C3A       21.2250   20.9650   21.6660 C.2   150  HEM150      0.0000
     10  C4A       20.6190   20.4340   22.8710 C.2   150  HEM150      0.0000
     11  CMA       22.3720   21.9750   21.6450 C.3   150  HEM150      0.0000
     12  CAA       20.7980   20.6840   19.1200 C.2   150  HEM150      0.0000
     13  CBA       20.1790   21.9440   18.5270 C.2   150  HEM150      0.0000
     14  CGA       20.5750   22.2500   17.0930 C.2   150  HEM150      0.0000
     15  O1A       21.7930   22.4380   16.8800 O.co2 150  HEM150      0.0000
     16  O2A       19.6480   22.2890   16.2540 O.co2 150  HEM150      0.0000
     17  NB        19.6430   19.1210   25.3610 N.ar  150  HEM150      0.0000
     18  C1B       20.5300   20.1720   25.2930 C.ar  150  HEM150      0.0000
     19  C2B       20.9960   20.4720   26.6310 C.ar  150  HEM150      0.0000
     20  C3B       20.3600   19.6210   27.4900 C.ar  150  HEM150      0.0000
     21  C4B       19.5260   18.7480   26.6760 C.ar  150  HEM150      0.0000
     22  CMB       21.9950   21.5740   26.9710 C.3   150  HEM150      0.0000
     23  CAB       20.3420   19.4420   28.9040 C.3   150  HEM150      0.0000
     24  CBB       21.4510   19.8520   29.7310 C.3   150  HEM150      0.0000
     25  NC        17.7120   17.0040   25.0680 N.2   150  HEM150      0.0000
     26  C1C       17.9420   16.9170   26.4220 C.2   150  HEM150      0.0000
     27  C2C       17.1960   15.7900   26.9450 C.2   150  HEM150      0.0000
     28  C3C       16.7140   15.0890   25.8750 C.2   150  HEM150      0.0000
     29  C4C       17.0220   15.8770   24.6890 C.2   150  HEM150      0.0000
     30  CMC       17.0250   15.4720   28.4250 C.3   150  HEM150      0.0000
     31  CAC       16.0040   13.8610   25.7370 C.3   150  HEM150      0.0000
     32  CBC       16.2450   12.7540   26.6440 C.3   150  HEM150      0.0000
     33  ND        17.7640   17.3610   22.2080 N.ar  150  HEM150      0.0000
     34  C1D       17.0420   16.1910   22.2730 C.ar  150  HEM150      0.0000
     35  C2D       16.7410   15.7570   20.9220 C.ar  150  HEM150      0.0000
     36  C3D       17.3880   16.6000   20.0750 C.ar  150  HEM150      0.0000
     37  C4D       18.0520   17.6040   20.8790 C.ar  150  HEM150      0.0000
     38  CMD       15.8790   14.5520   20.5590 C.3   150  HEM150      0.0000
     39  CAD       17.4710   16.5030   18.5510 C.2   150  HEM150      0.0000
     40  CBD       18.5070   15.5480   17.9570 C.2   150  HEM150      0.0000
     41  CGD       18.6130   15.5730   16.4420 C.2   150  HEM150      0.0000
     42  O1D       19.6710   16.0450   15.9670 O.co2 150  HEM150      0.0000
     43  O2D       17.6370   15.1140   15.8150 O.co2 150  HEM150      0.0000
@<TRIPOS>BOND
     1    43    41   ar
     2    42    41   ar
     3    16    14   ar
     4    41    40    1
     5    15    14   ar
     6    14    13    1
     7    40    39    2
     8    13    12    2
     9    39    36    1
    10    12     8    1
    11    36    37   ar
    12    36    35   ar
    13     2    37    2
    14     2     7    1
    15    38    35    1
    16     8     7    1
    17     8     9    2
    18    37    33   ar
    19    35    34   ar
    20     7     6    2
    21    11     9    1
    22     9    10    1
    23    33    34   ar
    24    33     1    1
    25    34     5    2
    26     6    10    1
    27     6     1    1
    28    10     3    2
    29     5    29    1
    30     1    25    1
    31     1    17    1
    32     3    18    1
    33    29    25    2
    34    29    28    1
    35    25    26    1
    36    18    17   ar
    37    18    19   ar
    38    17    21   ar
    39    31    28    1
    40    31    32    1
    41    28    27    2
    42    26    27    1
    43    26     4    2
    44    19    22    1
    45    19    20   ar
    46    21     4    1
    47    21    20   ar
    48    27    30    1
    49    20    23    1
    50    23    24    1
