@<TRIPOS>MOLECULE
1c7c_HEM_A_1.pdb
 43 50 0 0 0
SMALL
GASTEIGER

@<TRIPOS>ATOM
      1 FE         18.6930   18.3970   23.7700 Fe    284  HEM284      0.0000
      2  CHA       19.0920   18.5570   20.3640 C.2   284  HEM284      0.0000
      3  CHB       21.1680   20.7330   24.1170 C.2   284  HEM284      0.0000
      4  CHC       19.0080   17.6480   27.1150 C.2   284  HEM284      0.0000
      5  CHD       16.9250   15.4640   23.3570 C.2   284  HEM284      0.0000
      6  NA        20.0340   19.3570   22.4590 N.2   284  HEM284      0.0000
      7  C1A       19.9240   19.3780   21.0870 C.2   284  HEM284      0.0000
      8  C2A       20.8440   20.3680   20.5570 C.2   284  HEM284      0.0000
      9  C3A       21.4740   20.9400   21.6170 C.2   284  HEM284      0.0000
     10  C4A       20.8990   20.3680   22.8190 C.2   284  HEM284      0.0000
     11  CMA       22.6060   21.9620   21.6130 C.3   284  HEM284      0.0000
     12  CAA       21.0590   20.6390   19.0670 C.2   284  HEM284      0.0000
     13  CBA       20.4180   21.8540   18.4240 C.2   284  HEM284      0.0000
     14  CGA       20.5530   21.9590   16.9150 C.2   284  HEM284      0.0000
     15  O1A       21.3320   21.1510   16.3610 O.co2 284  HEM284      0.0000
     16  O2A       19.8650   22.8430   16.3530 O.co2 284  HEM284      0.0000
     17  NB        19.9580   19.0060   25.3370 N.ar  284  HEM284      0.0000
     18  C1B       20.8380   20.0640   25.2750 C.ar  284  HEM284      0.0000
     19  C2B       21.3410   20.3370   26.6040 C.ar  284  HEM284      0.0000
     20  C3B       20.7110   19.4820   27.4640 C.ar  284  HEM284      0.0000
     21  C4B       19.8340   18.6460   26.6560 C.ar  284  HEM284      0.0000
     22  CMB       22.3890   21.3990   26.9220 C.3   284  HEM284      0.0000
     23  CAB       20.7370   19.2850   28.8720 C.3   284  HEM284      0.0000
     24  CBB       21.8890   19.6370   29.6670 C.3   284  HEM284      0.0000
     25  NC        17.9800   16.8900   25.0350 N.2   284  HEM284      0.0000
     26  C1C       18.2130   16.7890   26.3900 C.2   284  HEM284      0.0000
     27  C2C       17.5450   15.6080   26.8930 C.2   284  HEM284      0.0000
     28  C3C       17.0450   14.9300   25.8170 C.2   284  HEM284      0.0000
     29  C4C       17.3130   15.7500   24.6460 C.2   284  HEM284      0.0000
     30  CMC       17.4570   15.2000   28.3620 C.3   284  HEM284      0.0000
     31  CAC       16.3410   13.7050   25.6600 C.3   284  HEM284      0.0000
     32  CBC       16.5420   12.5930   26.5550 C.3   284  HEM284      0.0000
     33  ND        18.0740   17.2360   22.1450 N.ar  284  HEM284      0.0000
     34  C1D       17.3010   16.0990   22.1950 C.ar  284  HEM284      0.0000
     35  C2D       16.9590   15.7030   20.8420 C.ar  284  HEM284      0.0000
     36  C3D       17.5880   16.5660   20.0000 C.ar  284  HEM284      0.0000
     37  C4D       18.2900   17.5350   20.8160 C.ar  284  HEM284      0.0000
     38  CMD       16.0680   14.5250   20.4710 C.3   284  HEM284      0.0000
     39  CAD       17.6760   16.5070   18.4780 C.3   284  HEM284      0.0000
     40  CBD       18.7080   15.5560   17.8720 C.3   284  HEM284      0.0000
     41  CGD       18.7770   15.5680   16.3540 C.2   284  HEM284      0.0000
     42  O1D       19.8030   16.0780   15.8550 O.co2 284  HEM284      0.0000
     43  O2D       17.8100   15.0550   15.7560 O.co2 284  HEM284      0.0000
@<TRIPOS>BOND
     1    43    41   ar
     2    42    41   ar
     3    16    14   ar
     4    41    40    1
     5    15    14   ar
     6    14    13    1
     7    40    39    1
     8    13    12    2
     9    39    36    1
    10    12     8    1
    11    36    37   ar
    12    36    35   ar
    13     2    37    2
    14     2     7    1
    15    38    35    1
    16     8     7    1
    17     8     9    2
    18    37    33   ar
    19    35    34   ar
    20     7     6    2
    21    11     9    1
    22     9    10    1
    23    33    34   ar
    24    33     1    1
    25    34     5    2
    26     6    10    1
    27     6     1    1
    28    10     3    2
    29     5    29    1
    30     1    25    1
    31     1    17    1
    32     3    18    1
    33    29    25    2
    34    29    28    1
    35    25    26    1
    36    18    17   ar
    37    18    19   ar
    38    17    21   ar
    39    31    28    1
    40    31    32    1
    41    28    27    2
    42    26    27    1
    43    26     4    2
    44    19    22    1
    45    19    20   ar
    46    21     4    1
    47    21    20   ar
    48    27    30    1
    49    20    23    1
    50    23    24    1
