@<TRIPOS>MOLECULE
1c7d_HEM_A_1.pdb
 43 50 0 0 0
SMALL
GASTEIGER

@<TRIPOS>ATOM
      1 FE         18.6220   18.4710   23.8010 Fe    285  HEM285      0.0000
      2  CHA       18.9660   18.6610   20.4150 C.2   285  HEM285      0.0000
      3  CHB       21.0890   20.7860   24.1340 C.2   285  HEM285      0.0000
      4  CHC       18.9730   17.6960   27.1170 C.2   285  HEM285      0.0000
      5  CHD       16.8480   15.5680   23.3940 C.2   285  HEM285      0.0000
      6  NA        19.9360   19.4290   22.4940 N.2   285  HEM285      0.0000
      7  C1A       19.8420   19.4480   21.1240 C.2   285  HEM285      0.0000
      8  C2A       20.8050   20.3820   20.5820 C.2   285  HEM285      0.0000
      9  C3A       21.4590   20.9350   21.6380 C.2   285  HEM285      0.0000
     10  C4A       20.8420   20.4070   22.8360 C.2   285  HEM285      0.0000
     11  CMA       22.6340   21.9070   21.6150 C.3   285  HEM285      0.0000
     12  CAA       21.0090   20.6500   19.0920 C.2   285  HEM285      0.0000
     13  CBA       20.3390   21.8800   18.4830 C.2   285  HEM285      0.0000
     14  CGA       20.7970   22.2330   17.0790 C.2   285  HEM285      0.0000
     15  O1A       22.0300   22.3680   16.9190 O.co2 285  HEM285      0.0000
     16  O2A       19.9000   22.3550   16.2160 O.co2 285  HEM285      0.0000
     17  NB        19.8860   19.0690   25.3490 N.ar  285  HEM285      0.0000
     18  C1B       20.7650   20.1290   25.2990 C.ar  285  HEM285      0.0000
     19  C2B       21.2670   20.4100   26.6230 C.ar  285  HEM285      0.0000
     20  C3B       20.6060   19.5830   27.4870 C.ar  285  HEM285      0.0000
     21  C4B       19.7650   18.7250   26.6700 C.ar  285  HEM285      0.0000
     22  CMB       22.3320   21.4510   26.9460 C.3   285  HEM285      0.0000
     23  CAB       20.5900   19.4180   28.8990 C.3   285  HEM285      0.0000
     24  CBB       21.7440   19.7440   29.7090 C.3   285  HEM285      0.0000
     25  NC        17.9150   16.9740   25.0570 N.2   285  HEM285      0.0000
     26  C1C       18.1520   16.8550   26.4060 C.2   285  HEM285      0.0000
     27  C2C       17.4340   15.7150   26.9290 C.2   285  HEM285      0.0000
     28  C3C       16.9120   15.0470   25.8570 C.2   285  HEM285      0.0000
     29  C4C       17.2180   15.8490   24.6860 C.2   285  HEM285      0.0000
     30  CMC       17.3250   15.3480   28.4030 C.3   285  HEM285      0.0000
     31  CAC       16.1920   13.8290   25.7120 C.3   285  HEM285      0.0000
     32  CBC       16.4160   12.7220   26.6180 C.3   285  HEM285      0.0000
     33  ND        17.9740   17.3360   22.1860 N.ar  285  HEM285      0.0000
     34  C1D       17.2110   16.1960   22.2270 C.ar  285  HEM285      0.0000
     35  C2D       16.8690   15.7880   20.8810 C.ar  285  HEM285      0.0000
     36  C3D       17.5210   16.6300   20.0360 C.ar  285  HEM285      0.0000
     37  C4D       18.1950   17.6120   20.8570 C.ar  285  HEM285      0.0000
     38  CMD       15.9640   14.6160   20.5250 C.3   285  HEM285      0.0000
     39  CAD       17.5900   16.5790   18.5170 C.3   285  HEM285      0.0000
     40  CBD       18.8030   15.9250   17.8590 C.3   285  HEM285      0.0000
     41  CGD       18.7430   15.8470   16.3430 C.2   285  HEM285      0.0000
     42  O1D       19.6880   16.3750   15.7230 O.co2 285  HEM285      0.0000
     43  O2D       17.7520   15.2560   15.8600 O.co2 285  HEM285      0.0000
@<TRIPOS>BOND
     1    42    41   ar
     2    43    41   ar
     3    16    14   ar
     4    41    40    1
     5    15    14   ar
     6    14    13    1
     7    40    39    1
     8    13    12    2
     9    39    36    1
    10    12     8    1
    11    36    37   ar
    12    36    35   ar
    13     2    37    2
    14     2     7    1
    15    38    35    1
    16     8     7    1
    17     8     9    2
    18    37    33   ar
    19    35    34   ar
    20     7     6    2
    21    11     9    1
    22     9    10    1
    23    33    34   ar
    24    33     1    1
    25    34     5    2
    26     6    10    1
    27     6     1    1
    28    10     3    2
    29     5    29    1
    30     1    25    1
    31     1    17    1
    32     3    18    1
    33    29    25    2
    34    29    28    1
    35    25    26    1
    36    18    17   ar
    37    18    19   ar
    38    17    21   ar
    39    31    28    1
    40    31    32    1
    41    28    27    2
    42    26    27    1
    43    26     4    2
    44    19    22    1
    45    19    20   ar
    46    21     4    1
    47    21    20   ar
    48    27    30    1
    49    20    23    1
    50    23    24    1
