@<TRIPOS>MOLECULE
1c7e_FMN_A_1.pdb
 31 33 0 0 0
SMALL
GASTEIGER

@<TRIPOS>ATOM
      1  N1         7.3650    0.1050    0.9520 N.2   1149  FMN1149    -0.2887
      2  C2         7.8280    1.3390    0.6770 C.1   1149  FMN1149     0.3669
      3  O2         8.5200    1.7280   -0.4010 O.2   1149  FMN1149    -0.1744
      4  N3         7.4050    2.2210    1.5950 N.2   1149  FMN1149    -0.2300
      5  C4         6.6640    1.8990    2.6670 C.1   1149  FMN1149     0.2513
      6  O4         6.1150    2.5780    3.7680 O.2   1149  FMN1149    -0.2057
      7  C4A        6.2620    0.5010    2.9530 C.2   1149  FMN1149     0.2706
      8  N5         5.5250    0.2380    4.0960 N.2   1149  FMN1149    -0.3841
      9  C5A        5.1310   -1.1230    4.2360 C.2   1149  FMN1149     0.1452
     10  C6         4.3260   -1.3870    5.3930 C.2   1149  FMN1149     0.0252
     11  C7         3.8420   -2.6660    5.6120 C.2   1149  FMN1149    -0.0375
     12  C7M        2.9940   -3.0480    6.7130 C.3   1149  FMN1149     0.0268
     13  C8         4.2120   -3.6860    4.7080 C.3   1149  FMN1149     0.0417
     14  C8M        3.7040   -4.9900    5.0830 C.3   1149  FMN1149     0.0091
     15  C9         5.0340   -3.3940    3.5920 C.2   1149  FMN1149    -0.0049
     16  C9A        5.5230   -2.0990    3.2870 C.2   1149  FMN1149     0.0795
     17  N10        6.3380   -1.7940    2.1900 N.pl3 1149  FMN1149    -0.2545
     18  C10        6.6570   -0.3760    2.0100 C.2   1149  FMN1149     0.2449
     19  C1'        6.8480   -2.5570    1.1590 C.3   1149  FMN1149     0.1336
     20  C2'        7.8600   -3.5750    1.6800 C.3   1149  FMN1149     0.2048
     21  O2'        9.0460   -2.9350    2.1750 O.3   1149  FMN1149    -0.2185
     22  C3'        8.2970   -4.4830    0.5000 C.3   1149  FMN1149     0.2165
     23  O3'        7.7480   -5.7850    0.7300 O.3   1149  FMN1149    -0.2175
     24  C4'        9.7370   -4.6270    0.3510 C.3   1149  FMN1149     0.2147
     25  O4'       10.1940   -5.4750   -0.7410 O.3   1149  FMN1149    -0.2176
     26  C5'       10.2430   -5.5260    1.3970 C.3   1149  FMN1149     0.1892
     27  O5'       11.5600   -5.6520    0.8190 O.3   1149  FMN1149    -0.2674
     28  P         12.5130   -6.7750    1.5300 P.3   1149  FMN1149     0.5327
     29  O1P       12.5040   -6.7960    3.1580 O.3   1149  FMN1149    -0.1145
     30  O2P       14.1010   -6.5040    1.0810 O.2   1149  FMN1149    -0.2224
     31  O3P       12.2360   -8.5170    1.2540 O.3   1149  FMN1149    -0.1145
@<TRIPOS>BOND
     1    25    24    1
     2     3     2    2
     3    24    22    1
     4    24    26    1
     5    22    23    1
     6    22    20    1
     7     2     1    2
     8     2     4    2
     9    27    26    1
    10    27    28    1
    11     1    18    2
    12    30    28    2
    13    19    20    1
    14    19    17    1
    15    31    28    1
    16    28    29    1
    17     4     5    2
    18    20    21    1
    19    18    17    1
    20    18     7    1
    21    17    16    1
    22     5     7    1
    23     5     6    2
    24     7     8    2
    25    16    15    2
    26    16     9    1
    27    15    13    1
    28     8     9    2
    29     9    10    1
    30    13    14    1
    31    13    11    1
    32    10    11    2
    33    11    12    1
