@<TRIPOS>MOLECULE
1c7f_FMN_A_1.pdb
 31 33 0 0 0
SMALL
GASTEIGER

@<TRIPOS>ATOM
      1  N1         7.4490   -0.1850    1.2860 N.2   1149  FMN1149    -0.2887
      2  C2         7.7240    1.1690    1.0820 C.1   1149  FMN1149     0.3669
      3  O2         8.3660    1.5120   -0.0350 O.2   1149  FMN1149    -0.1744
      4  N3         7.2760    2.1550    1.9220 N.2   1149  FMN1149    -0.2300
      5  C4         6.6100    1.8570    3.0750 C.1   1149  FMN1149     0.2513
      6  O4         6.1690    2.7160    4.0270 O.2   1149  FMN1149    -0.2057
      7  C4A        6.3450    0.4520    3.2920 C.2   1149  FMN1149     0.2706
      8  N5         5.6840    0.2030    4.4650 N.2   1149  FMN1149    -0.3841
      9  C5A        5.3040   -1.1480    4.5890 C.2   1149  FMN1149     0.1452
     10  C6         4.4620   -1.4240    5.6970 C.2   1149  FMN1149     0.0252
     11  C7         4.0700   -2.7560    5.8320 C.2   1149  FMN1149    -0.0375
     12  C7M        3.1910   -3.0870    6.9160 C.3   1149  FMN1149     0.0268
     13  C8         4.4630   -3.7640    4.9510 C.3   1149  FMN1149     0.0417
     14  C8M        4.0190   -5.1250    5.1000 C.3   1149  FMN1149     0.0091
     15  C9         5.3010   -3.4720    3.8670 C.2   1149  FMN1149    -0.0049
     16  C9A        5.7370   -2.1150    3.7190 C.2   1149  FMN1149     0.0795
     17  N10        6.5510   -1.9070    2.6360 N.pl3 1149  FMN1149    -0.2545
     18  C10        6.8020   -0.5420    2.4350 C.2   1149  FMN1149     0.2449
     19  C1'        6.9740   -2.8560    1.7040 C.3   1149  FMN1149     0.1336
     20  C2'        8.2400   -3.6080    2.1630 C.3   1149  FMN1149     0.2048
     21  O2'        9.2970   -2.6670    2.3310 O.3   1149  FMN1149    -0.2185
     22  C3'        8.6730   -4.5670    0.9780 C.3   1149  FMN1149     0.2165
     23  O3'        7.7930   -5.6930    1.1830 O.3   1149  FMN1149    -0.2175
     24  C4'       10.0830   -4.9730    0.9210 C.3   1149  FMN1149     0.2147
     25  O4'       10.4260   -5.7390   -0.2580 O.3   1149  FMN1149    -0.2176
     26  C5'       10.5910   -5.6340    2.1310 C.3   1149  FMN1149     0.1892
     27  O5'       11.9920   -5.8610    1.8570 O.3   1149  FMN1149    -0.2674
     28  P         12.8930   -6.8080    2.9100 P.3   1149  FMN1149     0.5327
     29  O1P       12.6350   -6.5440    4.5040 O.3   1149  FMN1149    -0.1145
     30  O2P       14.4970   -6.6700    2.4650 O.2   1149  FMN1149    -0.2224
     31  O3P       12.5270   -8.4080    2.4990 O.3   1149  FMN1149    -0.1145
@<TRIPOS>BOND
     1    25    24    1
     2     3     2    2
     3    24    22    1
     4    24    26    1
     5    22    23    1
     6    22    20    1
     7     2     1    2
     8     2     4    2
     9     1    18    2
    10    19    20    1
    11    19    17    1
    12    27    26    1
    13    27    28    1
    14     4     5    2
    15    20    21    1
    16    18    17    1
    17    18     7    1
    18    30    28    2
    19    31    28    1
    20    17    16    1
    21    28    29    1
    22     5     7    1
    23     5     6    2
    24     7     8    2
    25    16    15    2
    26    16     9    1
    27    15    13    1
    28     8     9    2
    29     9    10    1
    30    13    14    1
    31    13    11    1
    32    10    11    2
    33    11    12    1
