@<TRIPOS>MOLECULE
1c7g_PLP_A_1.pdb
 15 15 0 0 0
SMALL
GASTEIGER

@<TRIPOS>ATOM
      1  N1       -19.9780   93.4180   83.2210 N.ar  1000  PLP1000    -0.2452
      2  C2       -20.2040   93.0260   81.9040 C.ar  1000  PLP1000     0.0978
      3  C2A      -21.3270   93.7730   81.1770 C.3   1000  PLP1000     0.0555
      4  C3       -19.3620   91.9760   81.3910 C.ar  1000  PLP1000     0.2049
      5  O3       -19.6520   91.6710   80.1210 O.3   1000  PLP1000    -0.2857
      6  C4       -18.3640   91.3920   82.1910 C.ar  1000  PLP1000     0.0182
      7  C4A      -17.5580   90.3170   81.5950 C.3   1000  PLP1000     0.0342
      8  C5       -18.2130   91.9210   83.6280 C.ar  1000  PLP1000     0.0261
      9  C6       -19.0420   92.9160   84.0660 C.ar  1000  PLP1000     0.0965
     10  C5A      -17.1230   91.3800   84.5930 C.3   1000  PLP1000     0.1815
     11  O4P      -16.8130   90.0140   84.5180 O.3   1000  PLP1000    -0.2653
     12  P        -15.2760   89.5390   84.2710 P.3   1000  PLP1000     0.5329
     13  O1P      -15.0260   88.1240   84.1990 O.2   1000  PLP1000    -0.2224
     14  O2P      -14.1530   90.4870   84.5250 O.3   1000  PLP1000    -0.1145
     15  O3P      -15.2990   89.4600   85.7320 O.3   1000  PLP1000    -0.1145
@<TRIPOS>BOND
     1     5     4    1
     2     3     2    1
     3     4     2   ar
     4     4     6   ar
     5     7     6    1
     6     2     1   ar
     7     6     8   ar
     8     1     9   ar
     9     8     9   ar
    10     8    10    1
    11    13    12    2
    12    12    11    1
    13    12    14    1
    14    12    15    1
    15    11    10    1
