@<TRIPOS>MOLECULE
1c7n_PLP_A_1.pdb
 15 15 0 0 0
SMALL
GASTEIGER

@<TRIPOS>ATOM
      1  N1        12.5820    0.7650   39.5080 N.ar  400  PLP400     -0.2452
      2  C2        13.1180   -0.0910   38.5260 C.ar  400  PLP400      0.0978
      3  C2A       13.7470    0.6100   37.3360 C.3   400  PLP400      0.0555
      4  C3        13.0870   -1.5240   38.8290 C.ar  400  PLP400      0.2049
      5  O3        13.5040   -2.2840   37.8150 O.3   400  PLP400     -0.2857
      6  C4        12.5830   -1.9650   40.0760 C.ar  400  PLP400      0.0182
      7  C4A       12.6230   -3.3760   40.4580 C.3   400  PLP400      0.0342
      8  C5        12.0770   -0.9400   41.0430 C.ar  400  PLP400      0.0261
      9  C6        12.0670    0.3870   40.7230 C.ar  400  PLP400      0.0965
     10  C5A       11.8990   -1.4160   42.4820 C.3   400  PLP400      0.1815
     11  O4P       10.7140   -1.2990   43.1640 O.3   400  PLP400     -0.2653
     12  P         10.8340   -1.7800   44.7130 P.3   400  PLP400      0.5329
     13  O1P        9.4310   -1.8990   45.1010 O.3   400  PLP400     -0.1145
     14  O2P       11.5550   -0.6920   45.4880 O.3   400  PLP400     -0.1145
     15  O3P       11.5460   -3.0590   44.8040 O.2   400  PLP400     -0.2224
@<TRIPOS>BOND
     1     3     2    1
     2     5     4    1
     3     2     4   ar
     4     2     1   ar
     5     4     6   ar
     6     1     9   ar
     7     6     7    1
     8     6     8   ar
     9     9     8   ar
    10     8    10    1
    11    10    11    1
    12    11    12    1
    13    12    15    2
    14    12    13    1
    15    12    14    1
