@<TRIPOS>MOLECULE
1c7o_PPG_A_1.pdb
 26 26 0 0 0
SMALL
GASTEIGER

@<TRIPOS>ATOM
      1  N1        11.3750   -0.6330   22.7010 N.ar  1500  PPG1500    -0.2452
      2  C2        10.8060   -1.4770   23.6450 C.ar  1500  PPG1500     0.0978
      3  C2A       10.1690   -0.7980   24.8120 C.3   1500  PPG1500     0.0555
      4  C3        10.8580   -2.9200   23.3760 C.ar  1500  PPG1500     0.2062
      5  O3        10.2800   -3.6710   24.3810 O.3   1500  PPG1500    -0.2856
      6  C4        11.4600   -3.4080   22.2050 C.ar  1500  PPG1500     0.0353
      7  C4A       11.6510   -4.9220   22.0720 C.3   1500  PPG1500     0.1186
      8  C5        12.0530   -2.3880   21.2510 C.ar  1500  PPG1500     0.0275
      9  C6        11.9730   -1.0350   21.5610 C.ar  1500  PPG1500     0.0965
     10  C5A       12.8300   -2.8270   19.9480 C.3   1500  PPG1500     0.1816
     11  OP4       12.4650   -2.0190   18.8120 O.3   1500  PPG1500    -0.2653
     12  P         13.3040   -2.1340   17.4350 P.3   1500  PPG1500     0.5329
     13  OP1       14.6590   -1.6220   17.7480 O.3   1500  PPG1500    -0.1145
     14  OP2       12.5540   -1.2790   16.3990 O.2   1500  PPG1500    -0.2224
     15  OP3       13.2500   -3.5610   17.0380 O.3   1500  PPG1500    -0.1145
     16  N4A       12.8520   -5.3650   22.7430 N.3   1500  PPG1500    -0.2034
     17  CAI       13.1240   -6.8120   22.8100 C.3   1500  PPG1500     0.1785
     18  CBC       12.8550   -7.5310   24.0990 C.2   1500  PPG1500     0.3803
     19  O2B       13.1310   -8.8940   24.2500 O.co2 1500  PPG1500    -0.2441
     20  O3B       12.3410   -6.8720   25.1010 O.co2 1500  PPG1500    -0.2441
     21  CBI       13.5620   -7.5210   21.6390 C.3   1500  PPG1500     0.0610
     22  CGI       14.9070   -7.9610   21.5130 C.3   1500  PPG1500     0.1442
     23  OET       16.0270   -7.0360   21.4220 O.3   1500  PPG1500    -0.3521
     24  CEI       17.2140   -7.8690   21.0240 C.3   1500  PPG1500     0.1626
     25  CFI       16.9890   -8.4620   19.6150 C.3   1500  PPG1500     0.1413
     26  NI        18.0510   -9.3260   19.2060 N.3   1500  PPG1500    -0.1286
@<TRIPOS>BOND
     1    14    12    2
     2    15    12    1
     3    12    13    1
     4    12    11    1
     5    11    10    1
     6    26    25    1
     7    25    24    1
     8    10     8    1
     9    24    23    1
    10     8     9   ar
    11     8     6   ar
    12    23    22    1
    13    22    21    1
    14     9     1   ar
    15    21    17    1
    16     7     6    1
    17     7    16    1
    18     6     4   ar
    19     1     2   ar
    20    16    17    1
    21    17    18    1
    22     4     2   ar
    23     4     5    1
    24     2     3    1
    25    18    19   ar
    26    18    20   ar
