@<TRIPOS>MOLECULE
1c7s_CBS_A_1.pdb
 29 30 0 0 0
SMALL
GASTEIGER

@<TRIPOS>ATOM
      1  C1A       27.0090   43.0160   20.4460 C.3   1001  CBS1001     0.2586
      2  C2A       26.6660   44.4780   20.4500 C.3   1001  CBS1001     0.1842
      3  C3A       25.1960   44.8130   20.4450 C.3   1001  CBS1001     0.2094
      4  C4A       24.3920   43.5010   20.5740 C.3   1001  CBS1001     0.2136
      5  C5A       24.9560   42.6790   21.7200 C.3   1001  CBS1001     0.1834
      6  C6A       24.1750   41.3770   21.9080 C.3   1001  CBS1001     0.2142
      7  C7A       28.0570   46.1960   21.5210 C.2   1001  CBS1001     0.2420
      8  C8A       28.6330   46.7570   22.7770 C.3   1001  CBS1001     0.0964
      9  N2A       27.2920   45.1040   21.6680 N.am  1001  CBS1001    -0.1992
     10  O1A       26.8060   42.5440   19.1350 O.3   1001  CBS1001    -0.3264
     11  O3A       24.8660   45.4250   19.1950 O.3   1001  CBS1001    -0.2183
     12  O4A       23.0020   43.7930   20.8520 O.3   1001  CBS1001    -0.2176
     13  O5A       26.2910   42.2670   21.4200 O.3   1001  CBS1001    -0.3262
     14  O6A       24.6970   40.7150   23.0330 O.3   1001  CBS1001    -0.2176
     15  O7A       28.2770   46.6510   20.4840 O.2   1001  CBS1001    -0.2733
     16  C1B       27.6720   39.1400   16.9530 C.3   1001  CBS1001     0.2917
     17  C2B       26.3470   39.1100   17.6920 C.3   1001  CBS1001     0.1870
     18  C3B       25.9330   40.5100   18.1380 C.3   1001  CBS1001     0.2063
     19  C4B       27.0780   41.1340   18.9620 C.3   1001  CBS1001     0.1795
     20  C5B       28.4090   41.0360   18.2040 C.3   1001  CBS1001     0.1803
     21  C6B       29.6390   41.4080   19.0560 C.3   1001  CBS1001     0.2141
     22  C7B       24.5940   37.4190   17.2700 C.2   1001  CBS1001     0.2420
     23  C8B       23.5260   36.9720   16.3550 C.3   1001  CBS1001     0.0964
     24  N2B       25.2760   38.5350   16.8380 N.am  1001  CBS1001    -0.1991
     25  O1B       28.1530   37.9170   16.4320 O.3   1001  CBS1001    -0.1879
     26  O3B       24.7640   40.3690   18.9200 O.3   1001  CBS1001    -0.2184
     27  O5B       28.6470   39.6870   17.8780 O.3   1001  CBS1001    -0.3243
     28  O6B       30.7830   41.4100   18.1890 O.3   1001  CBS1001    -0.2176
     29  O7B       24.8490   36.8530   18.2520 O.2   1001  CBS1001    -0.2733
@<TRIPOS>BOND
     1    23    22    1
     2    25    16    1
     3    24    22   am
     4    24    17    1
     5    16    17    1
     6    16    27    1
     7    22    29    2
     8    17    18    1
     9    27    20    1
    10    18    26    1
    11    18    19    1
    12    28    21    1
    13    20    19    1
    14    20    21    1
    15    19    10    1
    16    10     1    1
    17    11     3    1
    18     3     2    1
    19     3     4    1
    20     1     2    1
    21     1    13    1
    22     2     9    1
    23    15     7    2
    24     4    12    1
    25     4     5    1
    26    13     5    1
    27     7     9   am
    28     7     8    1
    29     5     6    1
    30     6    14    1
