@<TRIPOS>MOLECULE
1c7t_CBS_A_1.pdb
 29 30 0 0 0
SMALL
GASTEIGER

@<TRIPOS>ATOM
      1  C1A       26.7210   42.8820   20.4690 C.3   1001  CBS1001     0.2586
      2  C2A       26.2990   44.2980   20.3180 C.3   1001  CBS1001     0.1842
      3  C3A       24.8290   44.5050   20.6160 C.3   1001  CBS1001     0.2094
      4  C4A       24.0720   43.1490   20.5600 C.3   1001  CBS1001     0.2136
      5  C5A       24.6810   42.2720   21.6950 C.3   1001  CBS1001     0.1834
      6  C6A       23.8840   40.9820   21.7760 C.3   1001  CBS1001     0.2142
      7  C7A       27.5560   45.1310   22.3290 C.2   1001  CBS1001     0.2420
      8  C8A       28.2330   46.3630   22.8630 C.3   1001  CBS1001     0.0964
      9  N2A       27.1150   45.2870   21.0770 N.am  1001  CBS1001    -0.1992
     10  O1A       26.6200   42.1710   19.2460 O.3   1001  CBS1001    -0.3264
     11  O3A       24.3220   45.3040   19.5540 O.3   1001  CBS1001    -0.2183
     12  O4A       22.6610   43.2970   20.8500 O.3   1001  CBS1001    -0.2176
     13  O5A       26.0180   42.0170   21.3760 O.3   1001  CBS1001    -0.3262
     14  O6A       24.3700   40.1210   22.7600 O.3   1001  CBS1001    -0.2176
     15  O7A       27.3340   44.1440   22.9040 O.2   1001  CBS1001    -0.2733
     16  C1B       27.5570   38.8930   16.8440 C.3   1001  CBS1001     0.2917
     17  C2B       26.2170   38.8110   17.6110 C.3   1001  CBS1001     0.1870
     18  C3B       25.8080   40.2110   18.0180 C.3   1001  CBS1001     0.2063
     19  C4B       26.9330   40.7940   18.9090 C.3   1001  CBS1001     0.1795
     20  C5B       28.2610   40.7310   18.1740 C.3   1001  CBS1001     0.1803
     21  C6B       29.4670   41.1700   19.0190 C.3   1001  CBS1001     0.2141
     22  C7B       24.5330   37.0600   17.1260 C.2   1001  CBS1001     0.2420
     23  C8B       23.3730   36.6950   16.2390 C.3   1001  CBS1001     0.0964
     24  N2B       25.1960   38.1580   16.7450 N.am  1001  CBS1001    -0.1991
     25  O1B       28.1530   37.9170   16.4320 O.3   1001  CBS1001    -0.1879
     26  O3B       24.5980   40.1500   18.7920 O.3   1001  CBS1001    -0.2184
     27  O5B       28.5360   39.3850   17.7810 O.3   1001  CBS1001    -0.3243
     28  O6B       30.6540   40.8140   18.3550 O.3   1001  CBS1001    -0.2176
     29  O7B       24.7400   36.4370   18.0960 O.2   1001  CBS1001    -0.2733
@<TRIPOS>BOND
     1    23    22    1
     2    25    16    1
     3    24    22   am
     4    24    17    1
     5    16    17    1
     6    16    27    1
     7    22    29    2
     8    17    18    1
     9    27    20    1
    10    18    26    1
    11    18    19    1
    12    20    19    1
    13    20    21    1
    14    28    21    1
    15    19    10    1
    16    10     1    1
    17    11     3    1
    18     2     1    1
    19     2     3    1
    20     2     9    1
    21     1    13    1
    22     4     3    1
    23     4    12    1
    24     4     5    1
    25     9     7   am
    26    13     5    1
    27     5     6    1
    28     6    14    1
    29     7     8    1
    30     7    15    2
