@<TRIPOS>MOLECULE
1c7z_G3H_A_1.pdb
 10 9 0 0 0
SMALL
GASTEIGER

@<TRIPOS>ATOM
      1  O1        27.9970   12.6990   29.3510 O.3   501  G3H501     -0.2175
      2  C1        27.0670   11.6460   29.2810 C.3   501  G3H501      0.2174
      3  C2        27.8100   10.3410   29.1980 C.3   501  G3H501      0.2147
      4  O2        27.4960    9.6310   30.3690 O.3   501  G3H501     -0.2176
      5  C3        27.3190    9.4640   27.9900 C.3   501  G3H501      0.1892
      6  O1P       26.4060    8.3900   28.3940 O.3   501  G3H501     -0.2674
      7  O2P       24.0560    7.6560   27.4410 O.2   501  G3H501     -0.2224
      8  O3P       24.1810    8.4140   29.7960 O.3   501  G3H501     -0.1145
      9  O4P       24.4410   10.0420   27.9410 O.3   501  G3H501     -0.1145
     10  P         24.7510    8.6270   28.3940 P.3   501  G3H501      0.5327
@<TRIPOS>BOND
     1     7    10    2
     2     9    10    1
     3     5     6    1
     4     5     3    1
     5     6    10    1
     6    10     8    1
     7     3     2    1
     8     3     4    1
     9     2     1    1
