@<TRIPOS>MOLECULE
1c80_GTP_A_1.pdb
 32 34 0 0 0
SMALL
GASTEIGER

@<TRIPOS>ATOM
      1  PG         0.9450   17.2560   57.3540 P.3   356  GTP356      0.5373
      2  O1G        0.8060   16.5310   58.6130 O.3   356  GTP356     -0.1143
      3  O2G        2.3090   17.4130   56.7250 O.2   356  GTP356     -0.2221
      4  O3G       -0.0790   18.2810   57.1100 O.3   356  GTP356     -0.1143
      5  O3B        0.1830   16.2190   56.5520 O.3   356  GTP356     -0.2258
      6  PB        -0.5510   14.8110   56.9230 P.3   356  GTP356      0.2277
      7  O1B        0.3500   13.7210   56.5250 O.2   356  GTP356     -0.5168
      8  O2B       -1.0240   14.7980   58.3670 O.3   356  GTP356     -0.4368
      9  O3A       -1.8050   14.7230   55.9060 O.3   356  GTP356     -0.2700
     10  PA        -2.1860   13.7600   54.6080 P.3   356  GTP356      0.2189
     11  O1A       -1.9980   12.3790   55.0810 O.3   356  GTP356     -0.4371
     12  O2A       -3.5500   14.1440   54.0950 O.2   356  GTP356     -0.5170
     13  O5'       -1.0460   14.1460   53.5220 O.3   356  GTP356     -0.3112
     14  C5'        0.3380   13.8360   53.6520 C.3   356  GTP356      0.1813
     15  C4'        1.2310   14.9380   53.2080 C.3   356  GTP356      0.1799
     16  O4'        0.6920   15.6670   52.0840 O.3   356  GTP356     -0.3326
     17  C3'        1.4210   15.9730   54.2930 C.3   356  GTP356      0.2158
     18  O3'        2.7240   16.5670   54.2550 O.3   356  GTP356     -0.2175
     19  C2'        0.3450   17.0440   53.9720 C.3   356  GTP356      0.2310
     20  O2'        0.6350   18.3390   54.4680 O.3   356  GTP356     -0.2158
     21  C1'        0.3380   17.0390   52.4550 C.3   356  GTP356      0.2293
     22  N9        -0.9780   17.2400   51.8490 N.pl3 356  GTP356     -0.2354
     23  C8        -2.2270   17.6170   52.3320 C.3   356  GTP356      0.2246
     24  N7        -3.1440   17.6590   51.4200 N.2   356  GTP356     -0.2322
     25  C5        -2.4330   17.2810   50.2740 C.2   356  GTP356      0.2182
     26  C6        -2.8450   17.1160   48.8940 C.1   356  GTP356      0.2372
     27  O6        -3.9290   17.2590   48.3470 O.2   356  GTP356     -0.2069
     28  N1        -1.7760   16.7300   48.0910 N.2   356  GTP356     -0.2485
     29  C2        -0.4910   16.5300   48.5400 C.1   356  GTP356      0.2531
     30  N2         0.4440   16.1780   47.7050 N.pl3 356  GTP356     -0.0226
     31  N3        -0.1390   16.6760   49.7730 N.2   356  GTP356     -0.3074
     32  C4        -1.1480   17.0530   50.5660 C.2   356  GTP356      0.2300
@<TRIPOS>BOND
     1    30    29    1
     2    28    29    2
     3    28    26    2
     4    27    26    2
     5    29    31    2
     6    26    25    1
     7    31    32    2
     8    25    32    1
     9    25    24    2
    10    32    22    1
    11    24    23    1
    12    22    23    1
    13    22    21    1
    14    16    21    1
    15    16    15    1
    16    21    19    1
    17    15    14    1
    18    15    17    1
    19    13    14    1
    20    13    10    1
    21    19    17    1
    22    19    20    1
    23    12    10    2
    24    18    17    1
    25    10    11    1
    26    10     9    1
    27     9     6    1
    28     7     6    2
    29     5     6    1
    30     5     1    1
    31     3     1    2
    32     6     8    1
    33     4     1    1
    34     1     2    1
