@<TRIPOS>MOLECULE
1c81_FDQ_A_1.pdb
 18 18 0 0 0
SMALL
GASTEIGER

@<TRIPOS>ATOM
      1  P1       -49.8090   23.4270   34.0590 P.3   441  FDQ441      0.1197
      2  O1P      -49.3230   23.8290   35.4280 O.3   441  FDQ441     -0.3571
      3  O2P      -49.7860   24.5970   33.1420 O.2   441  FDQ441     -0.4600
      4  O3P      -51.2130   23.0140   34.1630 O.3   441  FDQ441     -0.3571
      5  C21      -49.1250   22.3620   33.3160 C.3   441  FDQ441      0.0911
      6  C2       -48.6970   22.2070   31.9050 C.3   441  FDQ441      0.1554
      7  C3       -47.2720   22.7210   31.5520 C.3   441  FDQ441      0.2119
      8  O3       -46.7300   23.7520   32.4490 O.3   441  FDQ441     -0.2177
      9  C4       -46.4320   21.4300   31.4560 C.3   441  FDQ441      0.2139
     10  O4       -45.4170   21.4300   30.5230 O.3   441  FDQ441     -0.2176
     11  C5       -47.4160   20.2860   31.2300 C.3   441  FDQ441      0.1781
     12  O5       -48.7170   20.8040   31.5130 O.3   441  FDQ441     -0.3503
     13  C6       -47.0430   19.1540   32.1380 C.3   441  FDQ441      0.1858
     14  O6       -47.5120   17.9240   31.5250 O.3   441  FDQ441     -0.2675
     15  P2       -46.6150   16.9250   30.6300 P.3   441  FDQ441      0.5327
     16  O4P      -45.3570   17.6170   30.2310 O.3   441  FDQ441     -0.1145
     17  O5P      -46.3130   15.6680   31.4020 O.3   441  FDQ441     -0.1145
     18  O6P      -47.3880   16.5080   29.4110 O.2   441  FDQ441     -0.2224
@<TRIPOS>BOND
     1    18    15    2
     2    16    15    1
     3    10     9    1
     4    15    17    1
     5    15    14    1
     6    11     9    1
     7    11    12    1
     8    11    13    1
     9     9     7    1
    10    12     6    1
    11    14    13    1
    12     7     6    1
    13     7     8    1
    14     6     5    1
    15     3     1    2
    16     5     1    1
    17     1     4    1
    18     1     2    1
