@<TRIPOS>MOLECULE
1c82_GCD_A_1.pdb
 11 11 0 0 0
SMALL
GASTEIGER

@<TRIPOS>ATOM
      1  C1         4.9390  -10.6330   30.5040 C.3   901  GCD901      0.2413
      2  C2         3.6690  -10.5670   31.2940 C.3   901  GCD901      0.2297
      3  C3         2.5320  -11.0070   30.3060 C.3   901  GCD901      0.2111
      4  C4         2.6250  -10.5430   28.8380 C.2   901  GCD901      0.0526
      5  C5         3.6770   -9.7940   28.4470 C.2   901  GCD901      0.2164
      6  C6         3.8740   -9.2800   27.0430 C.2   901  GCD901      0.4208
      7  O2         3.7100  -11.4500   32.4610 O.3   901  GCD901     -0.2160
      8  O3         1.3060  -10.9230   31.0090 O.3   901  GCD901     -0.2153
      9  O5         4.8370   -9.6180   29.3910 O.2   901  GCD901     -0.4664
     10  O6A        3.2580   -9.9150   26.1050 O.co2 901  GCD901     -0.2371
     11  O6B        4.4160   -8.1150   27.0460 O.co2 901  GCD901     -0.2371
@<TRIPOS>BOND
     1    10     6   ar
     2     6    11   ar
     3     6     5    1
     4     5     4    2
     5     5     9    1
     6     4     3    1
     7     9     1    1
     8     3     8    1
     9     3     2    1
    10     1     2    1
    11     2     7    1
