@<TRIPOS>MOLECULE
1c83_OAI_A_1.pdb
 18 19 0 0 0
SMALL
GASTEIGER

@<TRIPOS>ATOM
      1  C1        45.2730   11.8160    2.0900 C.2   301  OAI301      0.0821
      2  C2        45.4060   12.8930    2.9080 C.2   301  OAI301      0.0322
      3  C3        44.7280   14.0900    2.6170 C.2   301  OAI301      0.0676
      4  C4        43.9300   14.1620    1.4510 C.3   301  OAI301      0.1630
      5  C5        43.7760   13.0250    0.6270 C.2   301  OAI301     -0.0079
      6  C6        44.4320   11.8720    0.9520 C.2   301  OAI301      0.0159
      7  C9        44.5060   10.6040    0.3000 C.2   301  OAI301      0.0218
      8  C10       45.4200    9.8590    1.0550 C.2   301  OAI301      0.0989
      9  N11       45.8610   10.5730    2.1030 N.2   301  OAI301     -0.2438
     10  N12       44.8250   15.1820    3.4280 N.am  301  OAI301     -0.1732
     11  C13       45.4730   15.3880    4.6380 C.2   301  OAI301      0.3488
     12  C14       45.1660   16.7690    5.2480 C.2   301  OAI301      0.4422
     13  O15       45.8860   17.4310    5.9040 O.co2 301  OAI301     -0.2353
     14  O16       43.8630   17.1050    5.1330 O.co2 301  OAI301     -0.2353
     15  O17       46.0400   14.4980    5.2770 O.2   301  OAI301     -0.2607
     16  C18       43.3010   15.4190    1.0660 C.2   301  OAI301      0.3737
     17  O19       43.0980   16.2930    1.8560 O.co2 301  OAI301     -0.2449
     18  O20       42.9630   15.4370   -0.2200 O.co2 301  OAI301     -0.2449
@<TRIPOS>BOND
     1    18    16   ar
     2     7     6    1
     3     7     8    2
     4     5     6    2
     5     5     4    1
     6     6     1    1
     7     8     9    1
     8    16     4    1
     9    16    17   ar
    10     4     3    1
    11     1     9    2
    12     1     2    1
    13     3     2    2
    14     3    10    1
    15    10    11   am
    16    11    12    1
    17    11    15    2
    18    14    12   ar
    19    12    13   ar
