@<TRIPOS>MOLECULE
1c84_761_A_1.pdb
 19 20 0 0 0
SMALL
GASTEIGER

@<TRIPOS>ATOM
      1  C1        46.1120    9.8450    1.1060 C.ar  301  761301      0.0000
      2  C2        46.2680   10.9550    1.9320 C.ar  301  761301      0.0000
      3  C3        45.5140   12.1070    1.7330 C.ar  301  761301      0.0013
      4  C4        44.5780   12.1350    0.6840 C.ar  301  761301      0.0003
      5  C5        44.4070   11.0050   -0.1500 C.ar  301  761301      0.0000
      6  C6        45.1610    9.8620    0.0800 C.ar  301  761301      0.0000
      7  C11       45.5930   13.2190    2.5900 C.ar  301  761301      0.0168
      8  C12       44.8060   14.3510    2.3370 C.ar  301  761301      0.0802
      9  C13       43.9380   14.3960    1.2320 C.ar  301  761301      0.0951
     10  C14       43.8280   13.2750    0.3920 C.ar  301  761301      0.0079
     11  C17       43.2860   15.6450    0.8670 C.2   301  761301      0.3890
     12  O18       43.0190   16.4860    1.6590 O.co2 301  761301     -0.2405
     13  O19       43.0500   15.7450   -0.4360 O.co2 301  761301     -0.2405
     14  N20       44.7710   15.4290    3.1600 N.am  301  761301     -0.1696
     15  C21       45.1960   15.5540    4.4340 C.2   301  761301      0.3491
     16  O22       45.4380   14.5940    5.1840 O.2   301  761301     -0.2607
     17  C23       45.3600   17.0140    4.9800 C.2   301  761301      0.4422
     18  O24       44.4140   17.7450    5.1450 O.co2 301  761301     -0.2353
     19  O25       46.6300   17.3760    5.3420 O.co2 301  761301     -0.2353
@<TRIPOS>BOND
     1    13    11   ar
     2     5     6   ar
     3     5     4   ar
     4     6     1   ar
     5    10     4   ar
     6    10     9   ar
     7     4     3   ar
     8    11     9    1
     9    11    12   ar
    10     1     2   ar
    11     9     8   ar
    12     3     2   ar
    13     3     7   ar
    14     8     7   ar
    15     8    14    1
    16    14    15   am
    17    15    17    1
    18    15    16    2
    19    17    18   ar
    20    17    19   ar
