@<TRIPOS>MOLECULE
1c85_OBA_A_1.pdb
 15 15 0 0 0
SMALL
GASTEIGER

@<TRIPOS>ATOM
      1  C1        12.4100   45.1770   19.0250 C.ar  301  OBA301      0.0013
      2  C2        11.4800   45.8550   19.8130 C.ar  301  OBA301      0.0168
      3  C3        10.1210   45.8720   19.4630 C.ar  301  OBA301      0.0802
      4  C4         9.7490   45.2960   18.2630 C.ar  301  OBA301      0.0951
      5  C5        10.6950   44.6340   17.4660 C.ar  301  OBA301      0.0079
      6  C6        12.0100   44.5500   17.8660 C.ar  301  OBA301      0.0003
      7  C10        8.3610   45.4000   17.7930 C.2   301  OBA301      0.3890
      8  O11        8.3270   45.2570   16.4810 O.co2 301  OBA301     -0.2405
      9  O12        7.4030   45.4890   18.4750 O.co2 301  OBA301     -0.2405
     10  N13        9.1840   46.4720   20.2310 N.am  301  OBA301     -0.1696
     11  C14        9.2780   47.0290   21.4530 C.2   301  OBA301      0.3491
     12  O15       10.3650   47.0510   22.1100 O.2   301  OBA301     -0.2607
     13  C16        7.8280   47.2610   22.0490 C.2   301  OBA301      0.4422
     14  O17        7.3860   48.1360   22.6900 O.co2 301  OBA301     -0.2353
     15  O18        6.9850   46.1480   21.9320 O.co2 301  OBA301     -0.2353
@<TRIPOS>BOND
     1     8     7   ar
     2     5     6   ar
     3     5     4   ar
     4     7     4    1
     5     7     9   ar
     6     6     1   ar
     7     4     3   ar
     8     1     2   ar
     9     3     2   ar
    10     3    10    1
    11    10    11   am
    12    11    13    1
    13    11    12    2
    14    15    13   ar
    15    13    14   ar
