@<TRIPOS>MOLECULE
1c86_OPA_A_1.pdb
 18 19 0 0 0
SMALL
GASTEIGER

@<TRIPOS>ATOM
      1  O1        13.8890   44.9070   17.3510 O.3   301  OPA301     -0.3522
      2  C2        13.8400   45.5110   18.6430 C.3   301  OPA301      0.1570
      3  C3        12.4690   45.7520   19.0560 C.3   301  OPA301      0.0974
      4  C4        11.2930   45.4210   18.1720 C.2   301  OPA301     -0.0248
      5  C5        11.4470   44.7150   16.9190 C.3   301  OPA301      0.0549
      6  C6        12.8020   44.0280   17.0010 C.3   301  OPA301      0.1466
      7  S13       11.9750   46.4310   20.5650 S.3   301  OPA301     -0.1091
      8  C14       10.3030   46.2120   20.1590 C.3   301  OPA301      0.1714
      9  C15       10.0950   45.8770   18.7950 C.2   301  OPA301      0.0805
     10  C16        8.8010   45.8600   18.3150 C.2   301  OPA301      0.3857
     11  O17        7.6300   45.6820   19.0490 O.co2 301  OPA301     -0.2408
     12  O18        8.4260   45.7710   16.9980 O.co2 301  OPA301     -0.2408
     13  N19        9.2820   46.7880   20.9020 N.am  301  OPA301     -0.1818
     14  C20        9.3020   47.3290   22.1800 C.2   301  OPA301      0.3460
     15  C21        8.0870   47.6560   22.8400 C.2   301  OPA301      0.4419
     16  O22        6.9390   46.7860   22.7940 O.co2 301  OPA301     -0.2354
     17  O23        7.9340   48.7300   23.6790 O.co2 301  OPA301     -0.2354
     18  O24       10.5730   47.5160   22.8540 O.2   301  OPA301     -0.2610
@<TRIPOS>BOND
     1     5     6    1
     2     5     4    1
     3    12    10   ar
     4     6     1    1
     5     1     2    1
     6     4     9    2
     7     4     3    1
     8    10     9    1
     9    10    11   ar
    10     2     3    1
    11     9     8    1
    12     3     7    1
    13     8     7    1
    14     8    13    1
    15    13    14   am
    16    14    15    1
    17    14    18    2
    18    16    15   ar
    19    15    17   ar
