@<TRIPOS>MOLECULE
1c87_OPA_A_1.pdb
 18 19 0 0 0
SMALL
GASTEIGER

@<TRIPOS>ATOM
      1  O1        13.8520   44.7350   16.7810 O.3   301  OPA301     -0.3481
      2  C2        13.8860   45.2420   18.1090 C.3   301  OPA301      0.1747
      3  C3        12.4530   45.3500   18.5400 C.ar  301  OPA301      0.0344
      4  C4        11.3710   45.0070   17.8060 C.ar  301  OPA301     -0.0071
      5  C5        11.4160   44.1730   16.5640 C.3   301  OPA301      0.0589
      6  C6        12.8920   43.6890   16.5220 C.3   301  OPA301      0.1473
      7  S13       12.0250   46.1190   20.0430 S.2   301  OPA301     -0.0724
      8  C14       10.3900   45.9070   19.6500 C.ar  301  OPA301      0.1091
      9  C15       10.1010   45.3820   18.4480 C.ar  301  OPA301      0.0976
     10  C16        8.6910   45.2280   17.9250 C.2   301  OPA301      0.3892
     11  O17        7.6230   45.4050   18.6800 O.co2 301  OPA301     -0.2405
     12  O18        8.5240   44.8110   16.8090 O.co2 301  OPA301     -0.2405
     13  N19        9.3280   46.2860   20.5150 N.am  301  OPA301     -0.1630
     14  C20        9.4010   46.9470   21.6870 C.2   301  OPA301      0.3496
     15  C21        7.9860   47.3240   22.2660 C.2   301  OPA301      0.4422
     16  O22        7.0460   46.5860   22.2500 O.co2 301  OPA301     -0.2353
     17  O23        7.8950   48.5360   22.8840 O.co2 301  OPA301     -0.2353
     18  O24       10.4090   47.1980   22.3170 O.2   301  OPA301     -0.2607
@<TRIPOS>BOND
     1     6     5    1
     2     6     1    1
     3     5     4    1
     4     1     2    1
     5    12    10   ar
     6     4     9   ar
     7     4     3   ar
     8    10     9    1
     9    10    11   ar
    10     2     3    1
    11     9     8   ar
    12     3     7   ar
    13     8     7   ar
    14     8    13    1
    15    13    14   am
    16    14    15    1
    17    14    18    2
    18    16    15   ar
    19    15    17   ar
