@<TRIPOS>MOLECULE
1c88_OTA_A_1.pdb
 18 19 0 0 0
SMALL
GASTEIGER

@<TRIPOS>ATOM
      1  N1        45.3360   10.3740   -0.2750 N.3   301  OTA301     -0.2124
      2  C2        45.8220   10.6290    1.1010 C.3   301  OTA301      0.1211
      3  C3        45.3220   11.9950    1.5280 C.ar  301  OTA301      0.0223
      4  C4        44.5870   12.8170    0.7260 C.ar  301  OTA301     -0.0092
      5  C5        43.9230   12.4140   -0.5600 C.3   301  OTA301      0.0457
      6  C6        43.9320   10.8990   -0.6460 C.3   301  OTA301      0.0938
      7  S13       45.8010   12.7620    3.0770 S.2   301  OTA301     -0.0735
      8  C14       44.9160   14.1380    2.5710 C.ar  301  OTA301      0.1090
      9  C15       44.3520   14.0960    1.3660 C.ar  301  OTA301      0.0975
     10  C16       43.6680   15.2970    0.8590 C.2   301  OTA301      0.3892
     11  O17       43.3030   16.2120    1.5490 O.co2 301  OTA301     -0.2405
     12  O18       43.4890   15.2180   -0.4400 O.co2 301  OTA301     -0.2405
     13  N19       44.8140   15.2810    3.4350 N.am  301  OTA301     -0.1630
     14  C20       45.4360   15.4480    4.6130 C.2   301  OTA301      0.3496
     15  C21       45.2080   16.8310    5.1820 C.2   301  OTA301      0.4422
     16  O22       46.0190   17.4230    5.8110 O.co2 301  OTA301     -0.2353
     17  O23       43.9100   17.2990    5.0610 O.co2 301  OTA301     -0.2353
     18  O24       46.0470   14.5650    5.2640 O.2   301  OTA301     -0.2607
@<TRIPOS>BOND
     1     6     5    1
     2     6     1    1
     3     5     4    1
     4    12    10   ar
     5     1     2    1
     6     4     9   ar
     7     4     3   ar
     8    10     9    1
     9    10    11   ar
    10     2     3    1
    11     9     8   ar
    12     3     7   ar
    13     8     7   ar
    14     8    13    1
    15    13    14   am
    16    14    15    1
    17    14    18    2
    18    17    15   ar
    19    15    16   ar
