@<TRIPOS>MOLECULE
1c8i_BMA_A_1.pdb
 11 11 0 0 0
SMALL
GASTEIGER

@<TRIPOS>ATOM
      1  C1        23.5230    9.0500   13.1690 C.3   350  BMA350      0.1777
      2  C2        22.0360    8.8380   13.2770 C.3   350  BMA350      0.2141
      3  C3        21.7140    8.7810   14.7490 C.3   350  BMA350      0.2173
      4  C4        22.5830    7.6980   15.4320 C.3   350  BMA350      0.2142
      5  C5        24.0620    7.7480   15.0220 C.3   350  BMA350      0.1810
      6  C6        24.8920    6.5710   15.4550 C.3   350  BMA350      0.2141
      7  O2        21.6580    7.6450   12.6180 O.3   350  BMA350     -0.2176
      8  O3        20.3460    8.4890   14.8840 O.3   350  BMA350     -0.2175
      9  O4        22.5370    7.9270   16.8250 O.3   350  BMA350     -0.2176
     10  O5        24.1750    7.8490   13.5860 O.3   350  BMA350     -0.3481
     11  O6        26.1820    6.7130   14.8620 O.3   350  BMA350     -0.2176
@<TRIPOS>BOND
     1     7     2    1
     2     1     2    1
     3     1    10    1
     4     2     3    1
     5    10     5    1
     6     3     8    1
     7     3     4    1
     8    11     6    1
     9     5     4    1
    10     5     6    1
    11     4     9    1
