@<TRIPOS>MOLECULE
1c8i_HEM_A_1.pdb
 43 50 0 0 0
SMALL
GASTEIGER

@<TRIPOS>ATOM
      1  CHA       18.6830   20.1530   29.1090 C.2   345  HEM345      0.0000
      2  CHB       15.3640   23.6460   28.7500 C.2   345  HEM345      0.0000
      3  CHC       18.5560   26.8210   30.4690 C.2   345  HEM345      0.0000
      4  CHD       21.5340   23.2200   31.5090 C.2   345  HEM345      0.0000
      5  C1A       17.4870   20.8280   28.8720 C.ar  345  HEM345      0.0000
      6  C2A       16.2400   20.2010   28.5010 C.ar  345  HEM345      0.0000
      7  C3A       15.2870   21.1730   28.4720 C.ar  345  HEM345      0.0000
      8  C4A       15.9590   22.3940   28.8030 C.ar  345  HEM345      0.0000
      9  CMA       13.8030   21.0360   28.1790 C.3   345  HEM345      0.0000
     10  CAA       16.0660   18.7150   28.2350 C.3   345  HEM345      0.0000
     11  CBA       15.8070   17.9040   29.5010 C.3   345  HEM345      0.0000
     12  CGA       15.4740   16.4710   29.1550 C.2   345  HEM345      0.0000
     13  O1A       16.2430   15.5720   29.4880 O.co2 345  HEM345      0.0000
     14  O2A       14.4560   16.2300   28.5100 O.co2 345  HEM345      0.0000
     15  C1B       16.0010   24.8470   29.0310 C.2   345  HEM345      0.0000
     16  C2B       15.3860   26.1630   28.9010 C.2   345  HEM345      0.0000
     17  C3B       16.2900   27.0560   29.3950 C.2   345  HEM345      0.0000
     18  C4B       17.4720   26.2880   29.7630 C.2   345  HEM345      0.0000
     19  CMB       14.0060   26.4860   28.3210 C.3   345  HEM345      0.0000
     20  CAB       16.0650   28.4120   29.6720 C.3   345  HEM345      0.0000
     21  CBB       16.3200   29.4760   28.7300 C.3   345  HEM345      0.0000
     22  C1C       19.6130   26.1000   30.9920 C.ar  345  HEM345      0.0000
     23  C2C       20.6150   26.6690   31.8630 C.ar  345  HEM345      0.0000
     24  C3C       21.4320   25.6360   32.2370 C.ar  345  HEM345      0.0000
     25  C4C       20.9200   24.4590   31.5290 C.ar  345  HEM345      0.0000
     26  CMC       20.6740   28.1610   32.2190 C.3   345  HEM345      0.0000
     27  CAC       22.4620   25.5830   33.1950 C.3   345  HEM345      0.0000
     28  CBC       23.4650   26.5700   33.5130 C.3   345  HEM345      0.0000
     29  C1D       21.0650   22.0900   30.8470 C.2   345  HEM345      0.0000
     30  C2D       21.8310   20.8910   30.6560 C.2   345  HEM345      0.0000
     31  C3D       21.0210   20.0320   29.9980 C.2   345  HEM345      0.0000
     32  C4D       19.7920   20.7150   29.7260 C.2   345  HEM345      0.0000
     33  CMD       23.3070   20.7210   30.9910 C.3   345  HEM345      0.0000
     34  CAD       21.3260   18.6100   29.5920 C.3   345  HEM345      0.0000
     35  CBD       20.8100   17.5470   30.5510 C.3   345  HEM345      0.0000
     36  CGD       21.1460   16.1320   30.1330 C.2   345  HEM345      0.0000
     37  O1D       20.7000   15.2030   30.7970 O.co2 345  HEM345      0.0000
     38  O2D       21.8310   15.9270   29.1370 O.co2 345  HEM345      0.0000
     39  NA        17.2950   22.1750   29.1010 N.ar  345  HEM345      0.0000
     40  NB        17.2970   24.9410   29.5120 N.2   345  HEM345      0.0000
     41  NC        19.7900   24.7430   30.8080 N.ar  345  HEM345      0.0000
     42  ND        19.8510   22.0070   30.1950 N.2   345  HEM345      0.0000
     43 FE         18.6060   23.4680   29.8130 Fe    345  HEM345      0.0000
@<TRIPOS>BOND
     1     9     7    1
     2    10     6    1
     3    10    11    1
     4    19    16    1
     5     7     6   ar
     6     7     8   ar
     7     6     5   ar
     8    14    12   ar
     9    21    20    1
    10     2     8    2
    11     2    15    1
    12     8    39   ar
    13     5    39   ar
    14     5     1    2
    15    16    15    1
    16    16    17    2
    17    15    40    2
    18    39    43    1
    19     1    32    1
    20    38    36   ar
    21    12    13   ar
    22    12    11    1
    23    17    20    1
    24    17    18    1
    25    40    18    1
    26    40    43    1
    27    34    31    1
    28    34    35    1
    29    32    31    1
    30    32    42    2
    31    18     3    2
    32    43    42    1
    33    43    41    1
    34    31    30    2
    35    36    35    1
    36    36    37   ar
    37    42    29    1
    38     3    22    1
    39    30    29    1
    40    30    33    1
    41    41    22   ar
    42    41    25   ar
    43    29     4    2
    44    22    23   ar
    45     4    25    1
    46    25    24   ar
    47    23    26    1
    48    23    24   ar
    49    24    27    1
    50    27    28    1
