@<TRIPOS>MOLECULE
1c8j_HEM_A_1.pdb
 43 50 0 0 0
SMALL
GASTEIGER

@<TRIPOS>ATOM
      1 FE         23.9100   -9.9060  -49.1870 Fe    417  HEM417      0.0000
      2  CHA       25.2830   -9.4120  -46.0270 C.2   417  HEM417      0.0000
      3  CHB       20.7150   -9.4200  -47.8560 C.2   417  HEM417      0.0000
      4  CHC       22.4690  -10.7820  -52.1820 C.2   417  HEM417      0.0000
      5  CHD       26.9690  -11.0040  -50.3580 C.2   417  HEM417      0.0000
      6  NA        23.1940   -9.5460  -47.3170 N.2   417  HEM417      0.0000
      7  C1A       23.8750   -9.3210  -46.1420 C.2   417  HEM417      0.0000
      8  C2A       22.9030   -8.9500  -45.0850 C.2   417  HEM417      0.0000
      9  C3A       21.6820   -8.9770  -45.5920 C.2   417  HEM417      0.0000
     10  C4A       21.8230   -9.3420  -47.0100 C.2   417  HEM417      0.0000
     11  CMA       20.2980   -8.6830  -44.9510 C.3   417  HEM417      0.0000
     12  CAA       23.2950   -8.5860  -43.6180 C.3   417  HEM417      0.0000
     13  CBA       23.5380   -9.7550  -42.6630 C.3   417  HEM417      0.0000
     14  CGA       23.9630   -9.2410  -41.2250 C.2   417  HEM417      0.0000
     15  O1A       24.0490   -8.0590  -41.0060 O.co2 417  HEM417      0.0000
     16  O2A       24.1650  -10.2420  -40.5040 O.co2 417  HEM417      0.0000
     17  NB        21.9800  -10.1900  -49.8190 N.ar  417  HEM417      0.0000
     18  C1B       20.8260   -9.7580  -49.1880 C.ar  417  HEM417      0.0000
     19  C2B       19.7180   -9.7420  -50.1000 C.ar  417  HEM417      0.0000
     20  C3B       20.1670  -10.1150  -51.2820 C.ar  417  HEM417      0.0000
     21  C4B       21.6250  -10.3870  -51.1610 C.ar  417  HEM417      0.0000
     22  CMB       18.3060   -9.3260  -49.6310 C.3   417  HEM417      0.0000
     23  CAB       19.4370  -10.2740  -52.6450 C.2   417  HEM417      0.0000
     24  CBB       18.1500  -10.0770  -52.8520 C.2   417  HEM417      0.0000
     25  NC        24.6010  -10.8020  -50.8980 N.2   417  HEM417      0.0000
     26  C1C       23.8340  -10.9950  -52.0750 C.2   417  HEM417      0.0000
     27  C2C       24.7070  -11.4220  -53.1430 C.2   417  HEM417      0.0000
     28  C3C       25.9520  -11.5010  -52.6230 C.2   417  HEM417      0.0000
     29  C4C       25.8640  -11.1140  -51.2110 C.2   417  HEM417      0.0000
     30  CMC       24.2490  -11.6960  -54.5980 C.3   417  HEM417      0.0000
     31  CAC       27.3200  -11.8920  -53.2900 C.2   417  HEM417      0.0000
     32  CBC       27.4030  -13.0690  -53.8420 C.2   417  HEM417      0.0000
     33  ND        25.7790  -10.2040  -48.3440 N.ar  417  HEM417      0.0000
     34  C1D       26.8820  -10.5620  -49.0450 C.ar  417  HEM417      0.0000
     35  C2D       28.0370  -10.4070  -48.1630 C.ar  417  HEM417      0.0000
     36  C3D       27.5730   -9.9610  -46.9570 C.ar  417  HEM417      0.0000
     37  C4D       26.1250   -9.8270  -47.0390 C.ar  417  HEM417      0.0000
     38  CMD       29.4940  -10.7270  -48.6400 C.3   417  HEM417      0.0000
     39  CAD       28.3680   -9.6330  -45.6450 C.3   417  HEM417      0.0000
     40  CBD       28.7220   -8.2220  -45.3090 C.3   417  HEM417      0.0000
     41  CGD       29.4660   -8.0900  -43.8960 C.2   417  HEM417      0.0000
     42  O1D       30.1410   -7.1090  -43.8500 O.co2 417  HEM417      0.0000
     43  O2D       29.1840   -8.9920  -43.0990 O.co2 417  HEM417      0.0000
@<TRIPOS>BOND
     1    30    27    1
     2    32    31    2
     3    31    28    1
     4    27    28    2
     5    27    26    1
     6    24    23    2
     7    23    20    1
     8    28    29    1
     9     4    26    2
    10     4    21    1
    11    26    25    1
    12    20    21   ar
    13    20    19   ar
    14    29    25    2
    15    29     5    1
    16    21    17   ar
    17    25     1    1
    18     5    34    2
    19    19    22    1
    20    19    18   ar
    21    17    18   ar
    22    17     1    1
    23    18     3    1
    24     1    33    1
    25     1     6    1
    26    34    33   ar
    27    34    35   ar
    28    38    35    1
    29    33    37   ar
    30    35    36   ar
    31     3    10    2
    32     6    10    1
    33     6     7    2
    34    37    36   ar
    35    37     2    2
    36    10     9    1
    37    36    39    1
    38     7     2    1
    39     7     8    1
    40    39    40    1
    41     9     8    2
    42     9    11    1
    43    40    41    1
    44     8    12    1
    45    41    42   ar
    46    41    43   ar
    47    12    13    1
    48    13    14    1
    49    14    15   ar
    50    14    16   ar
