@<TRIPOS>MOLECULE
1c8k_CPB_A_1.pdb
 28 31 0 0 0
SMALL
GASTEIGER

@<TRIPOS>ATOM
      1  C1        43.6080   40.0770   27.8640 C.3   940  CPB940      0.0897
      2  N1        42.6230   39.6510   28.8790 N.3   940  CPB940     -0.2693
      3  C16       41.2240   39.6490   28.3510 C.3   940  CPB940      0.0726
      4  C15       40.1800   39.2250   29.4250 C.3   940  CPB940      0.0245
      5  C14       40.6120   37.8860   30.0840 C.3   940  CPB940      0.0617
      6  C13       42.0980   37.9350   30.6030 C.3   940  CPB940      0.1720
      7  C12       43.0260   38.3180   29.4190 C.3   940  CPB940      0.1057
      8  C8        39.5350   37.5130   31.1380 C.ar  940  CPB940      0.0537
      9  C9        38.6990   36.4150   30.8150 C.ar  940  CPB940      0.1505
     10  O1        38.8860   35.7310   29.5890 O.2   940  CPB940     -0.4534
     11  C2        38.1580   34.6600   29.1780 C.ar  940  CPB940      0.1492
     12  C3        37.1540   34.1700   29.9490 C.ar  940  CPB940      0.0797
     13  C4        36.8480   34.7840   31.2610 C.ar  940  CPB940      0.2047
     14  O4        35.9610   34.3380   31.9540 O.2   940  CPB940     -0.2862
     15  C10       37.6840   35.9780   31.7160 C.ar  940  CPB940      0.1122
     16  C5        37.4860   36.6450   32.9650 C.ar  940  CPB940      0.2049
     17  O5        36.5010   36.2430   33.8840 O.3   940  CPB940     -0.2862
     18  C6        38.3120   37.7460   33.2850 C.ar  940  CPB940      0.0840
     19  C7        39.3360   38.1830   32.3920 C.ar  940  CPB940      0.1979
     20  O7        40.1330   39.2620   32.7390 O.3   940  CPB940     -0.2867
     21  C21       38.4970   34.0180   27.8170 C.ar  940  CPB940      0.0452
     22  C22       38.9230   34.8060   26.6740 C.ar  940  CPB940      0.0606
     23 CL1        39.0800   36.5310   26.7370 Cl    940  CPB940     -0.0821
     24  C23       39.2310   34.1870   25.4410 C.ar  940  CPB940      0.0115
     25  C24       39.1330   32.7750   25.2970 C.ar  940  CPB940      0.0009
     26  C25       38.7090   31.9770   26.4170 C.ar  940  CPB940      0.0002
     27  C26       38.4000   32.5920   27.6640 C.ar  940  CPB940      0.0039
     28  O3        42.3800   38.9180   31.6090 O.3   940  CPB940     -0.2213
@<TRIPOS>BOND
     1    25    24   ar
     2    25    26   ar
     3    24    22   ar
     4    26    27   ar
     5    22    23    1
     6    22    21   ar
     7    27    21   ar
     8    21    11    1
     9     1     2    1
    10     3     2    1
    11     3     4    1
    12     2     7    1
    13    11    10   ar
    14    11    12   ar
    15     7     6    1
    16     4     5    1
    17    10     9   ar
    18    12    13   ar
    19     5     6    1
    20     5     8    1
    21     6    28    1
    22     9     8   ar
    23     9    15   ar
    24     8    19   ar
    25    13    15   ar
    26    13    14    2
    27    15    16   ar
    28    19    20    1
    29    19    18   ar
    30    16    18   ar
    31    16    17    1
