@<TRIPOS>MOLECULE
1c8k_PLP_A_1.pdb
 15 15 0 0 0
SMALL
GASTEIGER

@<TRIPOS>ATOM
      1  N1        24.7390   25.6710   30.2840 N.ar  999  PLP999     -0.2452
      2  C2        23.6320   24.9320   30.5130 C.ar  999  PLP999      0.0978
      3  C2A       22.6180   25.4780   31.4900 C.3   999  PLP999      0.0555
      4  C3        23.4060   23.7790   29.7830 C.ar  999  PLP999      0.2049
      5  O3        22.2500   23.0430   29.9670 O.3   999  PLP999     -0.2857
      6  C4        24.3220   23.3810   28.8070 C.ar  999  PLP999      0.0182
      7  C4A       24.0430   22.0790   27.9850 C.3   999  PLP999      0.0342
      8  C5        25.4700   24.1620   28.5960 C.ar  999  PLP999      0.0261
      9  C6        25.6510   25.3020   29.3410 C.ar  999  PLP999      0.0965
     10  C5A       26.5270   23.8570   27.4430 C.3   999  PLP999      0.1815
     11  O4P       26.0670   24.5020   26.2540 O.3   999  PLP999     -0.2653
     12  P         27.0600   24.7420   24.9680 P.3   999  PLP999      0.5329
     13  O1P       26.2380   25.4770   23.9780 O.2   999  PLP999     -0.2224
     14  O2P       28.1540   25.7660   25.4770 O.3   999  PLP999     -0.1145
     15  O3P       27.6620   23.4450   24.6200 O.3   999  PLP999     -0.1145
@<TRIPOS>BOND
     1    13    12    2
     2    15    12    1
     3    12    14    1
     4    12    11    1
     5    11    10    1
     6    10     8    1
     7     7     6    1
     8     8     6   ar
     9     8     9   ar
    10     6     4   ar
    11     9     1   ar
    12     4     5    1
    13     4     2   ar
    14     1     2   ar
    15     2     3    1
