@<TRIPOS>MOLECULE
1c8l_BIN_A_1.pdb
 28 29 0 0 0
SMALL
GASTEIGER

@<TRIPOS>ATOM
      1  C1        27.9840    2.2510   52.8030 C.ar  930  BIN930     -0.0032
      2  C2        27.3740    3.6400   53.2040 C.ar  930  BIN930      0.0543
      3  C3        27.5180    4.1850   54.5800 C.ar  930  BIN930      0.0111
      4  C4        28.2810    3.3460   55.5780 C.ar  930  BIN930      0.0008
      5  C5        28.8430    2.1180   55.2840 C.ar  930  BIN930     -0.0002
      6  C6        28.7160    1.5580   53.9240 C.ar  930  BIN930     -0.0028
      7  C7        27.8130    1.6960   51.2780 C.3   930  BIN930      0.0827
      8  C8        26.9240    0.2420   51.2620 C.2   930  BIN930      0.0710
      9  C9        29.9220    0.3260   50.5510 C.2   930  BIN930      0.1351
     10  C11       27.5800   -1.0080   51.0400 C.2   930  BIN930      0.0321
     11  C12       29.2470    1.6420   50.7020 C.2   930  BIN930      0.0857
     12  C13       29.9120    3.0060   50.3170 C.2   930  BIN930      0.3859
     13  C14       31.2670    0.2260   50.0340 C.2   930  BIN930      0.4011
     14  C15       26.9550   -2.3850   50.9090 C.3   930  BIN930      0.0473
     15  C16       30.1650   -2.1880   53.0780 C.3   930  BIN930      0.0236
     16  C17       29.9110   -2.0780   51.5870 C.3   930  BIN930      0.0955
     17  C18       25.3130    0.4070   51.4540 C.2   930  BIN930      0.3386
     18  C19       23.3250    2.0490   51.2840 C.3   930  BIN930      0.1694
     19  C20       23.1830    2.5150   52.7870 C.3   930  BIN930      0.0473
     20  C21       23.1540    3.1190   50.2240 C.3   930  BIN930      0.0473
     21  N10       29.1240   -0.9320   50.9800 N.pl3 930  BIN930     -0.2853
     22  O3A       29.1510    3.9740   50.0270 O.co2 930  BIN930     -0.2408
     23  O3B       31.1170    3.2400   50.2400 O.co2 930  BIN930     -0.2408
     24  O4A       32.1510    0.5650   50.8990 O.co2 930  BIN930     -0.2392
     25  O4B       31.4150   -0.1680   48.9280 O.co2 930  BIN930     -0.2392
     26  O8A       24.6060   -0.4760   51.9310 O.2   930  BIN930     -0.2452
     27  O8        24.8660    1.6380   51.1200 O.3   930  BIN930     -0.4494
     28 CL2        26.5250    4.5890   52.1160 Cl    930  BIN930     -0.0826
@<TRIPOS>BOND
     1    25    13   ar
     2    22    12   ar
     3    13     9    1
     4    13    24   ar
     5    20    18    1
     6    23    12   ar
     7    12    11    1
     8     9    11    2
     9     9    21    1
    10    11     7    1
    11    14    10    1
    12    21    10    1
    13    21    16    1
    14    10     8    2
    15    27    18    1
    16    27    17    1
    17     8     7    1
    18     8    17    1
    19     7     1    1
    20    18    19    1
    21    17    26    2
    22    16    15    1
    23    28     2    1
    24     1     2   ar
    25     1     6   ar
    26     2     3   ar
    27     6     5   ar
    28     3     4   ar
    29     5     4   ar
