@<TRIPOS>MOLECULE
1c8l_PLP_A_1.pdb
 15 15 0 0 0
SMALL
GASTEIGER

@<TRIPOS>ATOM
      1  N1        24.3890   25.4540   30.0290 N.ar  999  PLP999     -0.2452
      2  C2        23.2950   24.6960   30.3110 C.ar  999  PLP999      0.0978
      3  C2A       22.3400   25.1780   31.4030 C.3   999  PLP999      0.0555
      4  C3        23.0860   23.5140   29.6450 C.ar  999  PLP999      0.2049
      5  O3        21.9460   22.7710   29.9470 O.3   999  PLP999     -0.2857
      6  C4        24.0220   23.0810   28.6820 C.ar  999  PLP999      0.0182
      7  C4A       23.7440   21.8020   27.7940 C.3   999  PLP999      0.0342
      8  C5        25.1560   23.8620   28.4430 C.ar  999  PLP999      0.0261
      9  C6        25.3140   25.0400   29.1160 C.ar  999  PLP999      0.0965
     10  C5A       26.1880   23.5500   27.3020 C.3   999  PLP999      0.1815
     11  O4P       25.7450   24.1770   26.0570 O.3   999  PLP999     -0.2653
     12  P         26.6390   24.4750   24.7440 P.3   999  PLP999      0.5329
     13  O1P       25.8070   25.3060   23.8810 O.2   999  PLP999     -0.2224
     14  O2P       27.9040   25.4080   25.1290 O.3   999  PLP999     -0.1145
     15  O3P       27.1260   23.1450   24.2810 O.3   999  PLP999     -0.1145
@<TRIPOS>BOND
     1    13    12    2
     2    15    12    1
     3    12    14    1
     4    12    11    1
     5    11    10    1
     6    10     8    1
     7     7     6    1
     8     8     6   ar
     9     8     9   ar
    10     6     4   ar
    11     9     1   ar
    12     4     5    1
    13     4     2   ar
    14     1     2   ar
    15     2     3    1
