@<TRIPOS>MOLECULE
1c8l_CFF_A_1.pdb
 14 15 0 0 0
SMALL
GASTEIGER

@<TRIPOS>ATOM
      1  N1        38.4310   36.4870   29.6380 N.am  940  CFF940     -0.1903
      2  C2        37.7800   35.3150   28.8680 C.2   940  CFF940      0.4044
      3  C10       39.3480   37.3680   28.8290 C.3   940  CFF940      0.1267
      4  C6        38.2230   36.7450   31.0120 C.2   940  CFF940      0.2609
      5  N3        36.9830   34.5730   29.6570 N.am  940  CFF940     -0.1218
      6  O11       38.0540   35.1990   27.7010 O.2   940  CFF940     -0.2230
      7  C12       36.2820   33.4100   29.0560 C.3   940  CFF940      0.2626
      8  C4        36.7380   34.8030   31.0380 C.2   940  CFF940      0.3276
      9  C5        37.3230   35.8550   31.7070 C.3   940  CFF940      0.2453
     10  N9        35.9620   34.1000   31.8300 N.2   940  CFF940     -0.0479
     11  O13       38.8080   37.7500   31.5740 O.2   940  CFF940     -0.2723
     12  N7        36.8760   35.7580   33.0260 N.3   940  CFF940     -0.2098
     13  C8        36.0730   34.7060   33.0220 C.3   940  CFF940      0.3428
     14  C14       37.2230   36.6340   34.1610 C.3   940  CFF940      0.0945
@<TRIPOS>BOND
     1     6     2    2
     2     3     1    1
     3     2     1   am
     4     2     5   am
     5     7     5    1
     6     1     4   am
     7     5     8    1
     8     4    11    2
     9     4     9    1
    10     8     9    1
    11     8    10    2
    12     9    12    1
    13    10    13    1
    14    13    12    1
    15    12    14    1
