@<TRIPOS>MOLECULE
1c8m_W11_1_1.pdb
 27 29 0 0 0
SMALL
GASTEIGER

@<TRIPOS>ATOM
      1  O1        38.7690    3.9240  124.1630 O.2   7001  W117001    -0.3581
      2  N2        37.6110    4.6800  124.8170 N.ar  7001  W117001    -0.0817
      3  C3        36.9870    5.3720  123.8590 C.ar  7001  W117001     0.1007
      4  CM3       35.8130    6.2310  124.2620 C.3   7001  W117001     0.0557
      5  C4        37.6330    5.1400  122.5950 C.ar  7001  W117001     0.0536
      6  C5        38.6930    4.2710  122.7990 C.ar  7001  W117001     0.1542
      7  C1C       39.6880    3.5510  121.9570 C.3   7001  W117001     0.0712
      8  C2C       41.0020    3.7770  122.6780 C.3   7001  W117001     0.0554
      9  C3C       42.1000    2.9640  122.0430 C.3   7001  W117001     0.2058
     10  O1B       42.5380    2.3970  123.2160 O.3   7001  W117001    -0.4761
     11  C1B       43.4860    1.3400  123.2280 C.ar  7001  W117001     0.1305
     12  C2B       44.8090    1.7300  123.5470 C.ar  7001  W117001     0.0125
     13  CM2       45.0440    3.1540  123.7850 C.3   7001  W117001     0.0342
     14  C3B       45.8960    0.8920  123.6030 C.ar  7001  W117001     0.0098
     15  C4B       45.6220   -0.4510  123.3010 C.ar  7001  W117001     0.0766
     16  C5B       44.3430   -0.9990  122.9740 C.ar  7001  W117001     0.0098
     17  C6B       43.2450   -0.0900  122.9490 C.ar  7001  W117001     0.0125
     18  CM6       41.8660   -0.7880  122.6890 C.3   7001  W117001     0.0342
     19  C2A       46.7680   -1.2830  123.1710 C.1   7001  W117001     0.1271
     20  N1A       48.0150   -0.8160  123.5770 N.2   7001  W117001    -0.0069
     21  N3A       46.7080   -2.5730  122.5450 N.2   7001  W117001    -0.3053
     22  C3A       48.1020   -2.8990  122.5790 C.2   7001  W117001     0.3890
     23  CM4       48.7640   -4.1280  121.9230 C.3   7001  W117001     0.4849
     24  O1A       49.0040   -1.9720  123.1630 O.2   7001  W117001    -0.3066
     25  F1        47.7810   -4.7550  121.1370 F     7001  W117001    -0.1610
     26  F2        49.1940   -4.9150  122.9270 F     7001  W117001    -0.1610
     27  F3        49.8310   -3.8080  121.1650 F     7001  W117001    -0.1610
@<TRIPOS>BOND
     1    25    23    1
     2    27    23    1
     3    23    22    1
     4    23    26    1
     5     7     8    1
     6     7     6    1
     7     9     8    1
     8     9    10    1
     9    21    22    2
    10    21    19    2
    11    22    24    1
    12     5     6   ar
    13     5     3   ar
    14    18    17    1
    15     6     1   ar
    16    17    16   ar
    17    17    11   ar
    18    16    15   ar
    19    24    20    1
    20    19    15    1
    21    19    20    2
    22    10    11    1
    23    11    12   ar
    24    15    14   ar
    25    12    14   ar
    26    12    13    1
    27     3     4    1
    28     3     2   ar
    29     1     2   ar
