@<TRIPOS>MOLECULE
1c8r_RET_A_1.pdb
 20 20 0 0 0
SMALL
GASTEIGER

@<TRIPOS>ATOM
      1  C1        14.8670   45.1040    0.2690 C.3   301  RET301      0.0152
      2  C2        14.6030   46.0410   -0.8960 C.3   301  RET301      0.0037
      3  C3        14.1280   47.4030   -0.5910 C.3   301  RET301      0.0006
      4  C4        14.9150   48.0590    0.5260 C.3   301  RET301      0.0040
      5  C5        14.9140   47.1450    1.7350 C.3   301  RET301      0.0183
      6  C6        15.0830   45.8200    1.6070 C.2   301  RET301     -0.0452
      7  C7        15.4740   45.0710    2.8010 C.2   301  RET301     -0.0088
      8  C8        15.6250   43.7460    3.0070 C.2   301  RET301     -0.0049
      9  C9        16.1820   43.0940    4.1770 C.2   301  RET301     -0.0219
     10  C10       16.3710   41.7620    4.0540 C.2   301  RET301     -0.0043
     11  C11       16.8100   40.9250    5.1800 C.2   301  RET301     -0.0010
     12  C12       17.0330   39.6070    4.8850 C.2   301  RET301     -0.0085
     13  C13       17.4010   38.6160    5.9100 C.2   301  RET301     -0.0439
     14  C14       17.4710   37.3500    5.4620 C.3   301  RET301      0.0220
     15  C15       16.8930   36.1690    6.0790 C.3   301  RET301      0.0047
     16  C16       13.6110   44.1800    0.4360 C.3   301  RET301      0.0040
     17  C17       16.0970   44.2400   -0.1940 C.3   301  RET301      0.0040
     18  C18       15.1440   47.9350    2.9850 C.3   301  RET301      0.0043
     19  C19       16.4920   43.8700    5.4130 C.3   301  RET301      0.0310
     20  C20       17.7910   39.0580    7.2880 C.3   301  RET301      0.0264
@<TRIPOS>BOND
     1     2     3    1
     2     2     1    1
     3     3     4    1
     4    17     1    1
     5     1    16    1
     6     1     6    1
     7     4     5    1
     8     6     5    1
     9     6     7    2
    10     5    18    1
    11     7     8    1
    12     8     9    2
    13    10     9    1
    14    10    11    2
    15     9    19    1
    16    12    11    1
    17    12    13    2
    18    14    13    1
    19    14    15    1
    20    13    20    1
