@<TRIPOS>MOLECULE
1c8s_RET_A_1.pdb
 20 20 0 0 0
SMALL
GASTEIGER

@<TRIPOS>ATOM
      1  C1        14.7020   44.6670    0.4370 C.3   301  RET301      0.0037
      2  C2        14.0920   45.5910   -0.6120 C.3   301  RET301      0.0003
      3  C3        14.8130   46.8760   -0.7600 C.3   301  RET301      0.0000
      4  C4        14.8480   47.6300    0.5450 C.3   301  RET301      0.0003
      5  C5        14.9980   46.7440    1.7620 C.3   301  RET301      0.0040
      6  C6        15.1380   45.4210    1.7070 C.3   301  RET301      0.0220
      7  C7        15.4920   44.7020    2.9370 C.2   301  RET301     -0.0268
      8  C8        15.7910   43.4090    3.1610 C.2   301  RET301     -0.0088
      9  C9        16.1370   42.8660    4.4780 C.2   301  RET301     -0.0222
     10  C10       16.3180   41.5300    4.6100 C.2   301  RET301     -0.0043
     11  C11       16.7460   40.8090    5.8000 C.2   301  RET301     -0.0007
     12  C12       16.9570   39.4480    5.8520 C.2   301  RET301     -0.0046
     13  C13       17.3420   38.8990    7.1690 C.2   301  RET301     -0.0261
     14  C14       17.5630   37.5830    7.1550 C.2   301  RET301     -0.0300
     15  C15       17.3620   36.8240    5.8920 C.3   301  RET301      0.0304
     16  C16       13.5420   43.6900    0.7710 C.3   301  RET301      0.0003
     17  C17       15.9030   43.9540   -0.2370 C.3   301  RET301      0.0003
     18  C18       15.2240   47.5800    2.9940 C.3   301  RET301      0.0003
     19  C19       16.3520   43.8480    5.5850 C.3   301  RET301      0.0310
     20  C20       17.5380   39.7790    8.3590 C.3   301  RET301      0.0307
@<TRIPOS>BOND
     1     3     2    1
     2     3     4    1
     3     2     1    1
     4    17     1    1
     5     1    16    1
     6     1     6    1
     7     4     5    1
     8     6     5    1
     9     6     7    1
    10     5    18    1
    11     7     8    2
    12     8     9    1
    13     9    10    2
    14     9    19    1
    15    10    11    1
    16    11    12    2
    17    12    13    1
    18    15    14    1
    19    14    13    2
    20    13    20    1
