@<TRIPOS>MOLECULE
1c8t_TR1_A_1.pdb
 32 33 0 0 0
SMALL
GASTEIGER

@<TRIPOS>ATOM
      1  N          9.9870    8.6100    6.7530 N.3   265  TR1265     -0.2046
      2  CA         9.1340    9.0590    5.5950 C.3   265  TR1265      0.1624
      3  C          9.0010   10.5870    5.6490 C.2   265  TR1265      0.2586
      4  O          9.1190   11.1080    4.5440 O.2   265  TR1265     -0.2718
      5  C41       14.8340    6.5850   10.3940 C.ar  265  TR1265     -0.0000
      6  C42       16.2210    6.7890   10.2970 C.ar  265  TR1265     -0.0000
      7  C43       14.3130    5.9980   11.5480 C.ar  265  TR1265     -0.0000
      8  C44       17.0810    6.3850   11.3360 C.ar  265  TR1265      0.0000
      9  C45       15.1680    5.5950   12.5740 C.ar  265  TR1265      0.0000
     10  C46       16.5440    5.7690   12.4700 C.ar  265  TR1265      0.0000
     11  C47       12.2760    7.8400    7.3210 C.ar  265  TR1265     -0.0048
     12  C48       13.5690    7.3930    7.0230 C.ar  265  TR1265     -0.0029
     13  C49       11.8100    7.8790    8.6430 C.ar  265  TR1265     -0.0029
     14  C50       14.4270    6.9610    8.0450 C.ar  265  TR1265     -0.0003
     15  C51       12.6800    7.4590    9.6520 C.ar  265  TR1265     -0.0003
     16  C52       13.9760    7.0000    9.3690 C.ar  265  TR1265     -0.0000
     17  CM2       11.3450    8.2960    6.2050 C.3   265  TR1265      0.1155
     18  CB         7.7480    8.4010    5.5800 C.3   265  TR1265      0.0954
     19  SG         7.8270    7.0630    4.3680 S.3   265  TR1265     -0.0801
     20  N2         8.9560   11.0940    6.8880 N.am  265  TR1265     -0.1942
     21  CA2        8.7520   12.3880    7.4610 C.3   265  TR1265      0.2014
     22  C2         9.8890   12.8840    8.2990 C.2   265  TR1265      0.2639
     23  O2        10.5610   12.1330    8.9890 O.2   265  TR1265     -0.2714
     24  N3        10.1850   14.2310    8.2790 N.am  265  TR1265     -0.1943
     25  CA3       11.3450   14.6430    9.1020 C.3   265  TR1265      0.1934
     26  CB3       12.2310   15.4850    8.1510 C.3   265  TR1265      0.0309
     27  CG1       11.3810   16.4800    7.3000 C.3   265  TR1265      0.0023
     28  CG2       13.4220   16.2170    8.8110 C.3   265  TR1265      0.0023
     29  C3        10.7990   15.2580   10.3740 C.2   265  TR1265      0.3371
     30  O3        11.3690   16.1620   10.9900 O.2   265  TR1265     -0.2482
     31  OE         9.6430   14.8390   10.9680 O.3   265  TR1265     -0.4432
     32  CM3        8.8020   15.9410   11.4160 C.3   265  TR1265      0.2557
@<TRIPOS>BOND
     1    19    18    1
     2     4     3    2
     3    18     2    1
     4     2     3    1
     5     2     1    1
     6     3    20   am
     7    17     1    1
     8    17    11    1
     9    20    21    1
    10    12    11   ar
    11    12    14   ar
    12    27    26    1
    13    11    13   ar
    14    21    22    1
    15    14    16   ar
    16    26    28    1
    17    26    25    1
    18    24    22   am
    19    24    25    1
    20    22    23    2
    21    13    15   ar
    22    25    29    1
    23    16    15   ar
    24    16     5    1
    25     6     5   ar
    26     6     8   ar
    27    29    31    1
    28    29    30    2
    29     5     7   ar
    30    31    32    1
    31     8    10   ar
    32     7     9   ar
    33    10     9   ar
