@<TRIPOS>MOLECULE
1c8v_PLP_B_1.pdb
 15 15 0 0 0
SMALL
GASTEIGER

@<TRIPOS>ATOM
      1  N1        84.8990   13.8560   12.0660 N.2   900  PLP900     -0.2505
      2  C2        84.9370   14.2170   10.7550 C.2   900  PLP900      0.0675
      3  C2A       86.2230   14.0780    9.9980 C.3   900  PLP900      0.0499
      4  C3        83.7650   14.7090   10.1710 C.3   900  PLP900      0.1913
      5  O3        83.8710   15.0590    8.8190 O.3   900  PLP900     -0.2167
      6  C4        82.5230   14.8610   10.8330 C.3   900  PLP900      0.0581
      7  C4A       81.5220   14.8940    9.7940 C.3   900  PLP900      0.0075
      8  C5        82.5810   14.5000   12.1940 C.2   900  PLP900      0.0073
      9  C6        83.7330   14.0160   12.7280 C.2   900  PLP900      0.0921
     10  C5A       81.4180   14.6910   13.2310 C.3   900  PLP900      0.1776
     11  O4P       80.9720   13.4480   13.5330 O.3   900  PLP900     -0.2656
     12  P         80.0040   12.3980   14.0620 P.3   900  PLP900      0.5329
     13  O1P       78.6710   12.1670   13.4790 O.2   900  PLP900     -0.2224
     14  O2P       80.6910   11.1490   13.8000 O.3   900  PLP900     -0.1145
     15  O3P       79.9750   12.6310   15.5090 O.3   900  PLP900     -0.1145
@<TRIPOS>BOND
     1     5     4    1
     2     7     6    1
     3     3     2    1
     4     4     2    1
     5     4     6    1
     6     2     1    2
     7     6     8    1
     8     1     9    1
     9     8     9    2
    10     8    10    1
    11    10    11    1
    12    13    12    2
    13    11    12    1
    14    14    12    1
    15    12    15    1
