@<TRIPOS>MOLECULE
1c8v_HE1_A_1.pdb
 16 16 0 0 0
SMALL
GASTEIGER

@<TRIPOS>ATOM
      1  P1        48.4100   29.4010   10.0770 P.3   270  HE1270      0.1172
      2  O1        49.4360   30.5170   10.1960 O.3   270  HE1270     -0.3571
      3  O2        48.6340   28.8270    8.7100 O.2   270  HE1270     -0.4601
      4  O3        47.0730   30.1480    9.9630 O.3   270  HE1270     -0.3571
      5  C1        48.4960   28.2380   11.3430 C.3   270  HE1270      0.0590
      6  C2        48.5490   28.8450   12.7530 C.3   270  HE1270      0.0086
      7  C3        48.9750   28.2830   15.1840 C.3   270  HE1270      0.0623
      8  C4        48.6130   27.7460   13.8060 C.3   270  HE1270      0.0125
      9  S1        49.0200   26.8740   16.3090 S.3   270  HE1270     -0.1105
     10  OH        52.0160   27.1870   15.3120 O.3   270  HE1270     -0.2860
     11  C5        51.7880   23.5660   14.8230 C.ar  270  HE1270      0.0033
     12  C6        52.2830   24.8810   14.8590 C.ar  270  HE1270      0.0425
     13  C7        51.4760   25.9280   15.3030 C.ar  270  HE1270      0.2013
     14  C8        50.1440   25.6410   15.7230 C.ar  270  HE1270      0.0642
     15  C9        49.6550   24.3290   15.6860 C.ar  270  HE1270      0.0094
     16  C10       50.4780   23.2910   15.2380 C.ar  270  HE1270      0.0007
@<TRIPOS>BOND
     1     3     1    2
     2     4     1    1
     3     1     2    1
     4     1     5    1
     5     5     6    1
     6     6     8    1
     7     8     7    1
     8    11    12   ar
     9    11    16   ar
    10    12    13   ar
    11     7     9    1
    12    16    15   ar
    13    13    10    1
    14    13    14   ar
    15    15    14   ar
    16    14     9    1
