@<TRIPOS>MOLECULE
1c96_FLC_A_1.pdb
 13 12 0 0 0
SMALL
GASTEIGER

@<TRIPOS>ATOM
      1  CAC       61.8690   67.0470   68.4350 C.2   756  FLC756      0.3680
      2  CA        60.4440   66.5430   68.0510 C.3   756  FLC756      0.1560
      3  CB        59.8300   66.5620   66.5700 C.3   756  FLC756      0.2402
      4  CBC       60.8570   65.9150   65.4600 C.2   756  FLC756      0.3927
      5  CG        58.4780   65.7290   66.7250 C.3   756  FLC756      0.1560
      6  CGC       58.1330   65.1330   68.0500 C.2   756  FLC756      0.3680
      7  OA1       62.0150   67.3960   69.6560 O.co2 756  FLC756     -0.2455
      8  OA2       62.8240   67.1790   67.5370 O.co2 756  FLC756     -0.2455
      9  OB1       61.3920   66.6550   64.5760 O.co2 756  FLC756     -0.2429
     10  OB2       61.0930   64.6720   65.4740 O.co2 756  FLC756     -0.2429
     11  OG1       57.2900   65.7170   68.7180 O.co2 756  FLC756     -0.2455
     12  OG2       58.7760   64.1090   68.3980 O.co2 756  FLC756     -0.2455
     13  OHB       59.5080   67.9530   66.3180 O.3   756  FLC756     -0.2129
@<TRIPOS>BOND
     1     9     4   ar
     2     4    10   ar
     3     4     3    1
     4    13     3    1
     5     3     5    1
     6     3     2    1
     7     5     6    1
     8     8     1   ar
     9     6    12   ar
    10     6    11   ar
    11     2     1    1
    12     1     7   ar
