@<TRIPOS>MOLECULE
1c97_ICT_A_1.pdb
 13 12 0 0 0
SMALL
GASTEIGER

@<TRIPOS>ATOM
      1  C1        61.1230   66.1700   65.6450 C.2   756  ICT756      0.3952
      2  O1        61.6060   67.0880   64.8940 O.co2 756  ICT756     -0.2428
      3  O2        61.4860   64.9770   65.5500 O.co2 756  ICT756     -0.2428
      4  C2        60.0820   66.4410   66.6610 C.3   756  ICT756      0.2651
      5  O7        59.6700   67.7920   66.2050 O.3   756  ICT756     -0.2103
      6  C3        60.8430   66.1760   67.9640 C.3   756  ICT756      0.1561
      7  C4        59.8820   66.0760   69.1550 C.3   756  ICT756      0.1285
      8  C5        58.7120   65.2630   68.6420 C.2   756  ICT756      0.3655
      9  O3        58.8030   64.1320   68.0970 O.co2 756  ICT756     -0.2456
     10  O4        57.6320   65.8550   68.8140 O.co2 756  ICT756     -0.2456
     11  C6        61.8940   66.8370   68.7300 C.2   756  ICT756      0.3680
     12  O5        62.8280   67.1430   68.0410 O.co2 756  ICT756     -0.2455
     13  O6        61.9720   67.1980   69.9020 O.co2 756  ICT756     -0.2455
@<TRIPOS>BOND
     1     2     1   ar
     2     3     1   ar
     3     1     4    1
     4     5     4    1
     5     4     6    1
     6     6    11    1
     7     6     7    1
     8    12    11   ar
     9     9     8   ar
    10     8    10   ar
    11     8     7    1
    12    11    13   ar
