@<TRIPOS>MOLECULE
1c9c_PP3_A_1.pdb
 21 21 0 0 0
SMALL
GASTEIGER

@<TRIPOS>ATOM
      1  N1        26.6460    5.0320  -14.7580 N.ar  413  PP3413     -0.2452
      2  C2        26.3640    6.2200  -15.3820 C.ar  413  PP3413      0.0978
      3  C2A       27.1110    6.2820  -16.7010 C.3   413  PP3413      0.0555
      4  C3        25.4840    7.1310  -14.7300 C.ar  413  PP3413      0.2062
      5  O3        25.3170    8.2460  -15.4850 O.3   413  PP3413     -0.2856
      6  C4        24.8840    6.8770  -13.4850 C.ar  413  PP3413      0.0353
      7  C4A       23.9350    7.8740  -12.8170 C.3   413  PP3413      0.1186
      8  C5        25.2650    5.5980  -12.9570 C.ar  413  PP3413      0.0275
      9  C6        26.1200    4.6990  -13.5540 C.ar  413  PP3413      0.0965
     10  C5A       24.7630    5.0650  -11.6130 C.3   413  PP3413      0.1816
     11  O4P       23.5410    5.5040  -11.1580 O.3   413  PP3413     -0.2653
     12  P         22.7360    4.8170   -9.9690 P.3   413  PP3413      0.5329
     13  O1P       22.1630    3.5590  -10.3500 O.2   413  PP3413     -0.2224
     14  O2P       21.9240    5.9310   -9.3940 O.3   413  PP3413     -0.1145
     15  O3P       23.7830    4.4080   -8.9730 O.3   413  PP3413     -0.1145
     16  N         24.3690    9.2070  -13.3950 N.3   413  PP3413     -0.2034
     17  CA        23.4670   10.3030  -12.9270 C.3   413  PP3413      0.1761
     18  C         23.9340   11.6600  -13.5150 C.2   413  PP3413      0.3803
     19  O         24.6580   11.4880  -14.6590 O.co2 413  PP3413     -0.2441
     20  CB        23.4490   10.3180  -11.4060 C.3   413  PP3413      0.0310
     21  OXT       23.6790   12.8360  -12.9820 O.co2 413  PP3413     -0.2441
@<TRIPOS>BOND
     1     3     2    1
     2     5     4    1
     3     2     1   ar
     4     2     4   ar
     5     1     9   ar
     6     4     6   ar
     7    19    18   ar
     8     9     8   ar
     9    18    21   ar
    10    18    17    1
    11     6     8   ar
    12     6     7    1
    13    16    17    1
    14    16     7    1
    15     8    10    1
    16    17    20    1
    17    10    11    1
    18    11    12    1
    19    13    12    2
    20    12    14    1
    21    12    15    1
