@<TRIPOS>MOLECULE
1c9d_HF1_A_1.pdb
 17 17 0 0 0
SMALL
GASTEIGER

@<TRIPOS>ATOM
      1  P1        48.6380   29.6800    9.8960 P.3   270  HF1270      0.1172
      2  O3        47.4120   30.4050    9.8700 O.3   270  HF1270     -0.3571
      3  O1        48.7220   28.8610    8.7600 O.2   270  HF1270     -0.4601
      4  O2        49.7060   30.5850    9.9370 O.3   270  HF1270     -0.3571
      5  C2        48.6670   29.4480   12.7140 C.3   270  HF1270      0.0086
      6  C3        48.3390   27.9400   14.7410 C.3   270  HF1270      0.0623
      7  C9        49.9650   24.7630   15.6320 C.ar  270  HF1270      0.0390
      8  C8        50.3470   26.1260   15.7160 C.ar  270  HF1270      0.0664
      9  C7        51.7050   26.5190   15.3850 C.ar  270  HF1270      0.2014
     10  OH        52.1370   27.8750   15.4570 O.3   270  HF1270     -0.2860
     11  C6        52.6290   25.5320   14.9870 C.ar  270  HF1270      0.0448
     12  C5        52.2260   24.1720   14.9110 C.ar  270  HF1270      0.0330
     13  C10       50.8850   23.7960   15.2390 C.ar  270  HF1270      0.1408
     14  F         50.5000   22.4760   15.1660 F     270  HF1270     -0.2042
     15  S1        49.0870   27.2930   16.2430 S.3   270  HF1270     -0.1105
     16  C4        49.2980   28.8680   13.9960 C.3   270  HF1270      0.0125
     17  C1        48.7210   28.6310   11.4210 C.3   270  HF1270      0.0590
@<TRIPOS>BOND
     1     3     1    2
     2     2     1    1
     3     1     4    1
     4     1    17    1
     5    17     5    1
     6     5    16    1
     7    16     6    1
     8     6    15    1
     9    12    11   ar
    10    12    13   ar
    11    11     9   ar
    12    14    13    1
    13    13     7   ar
    14     9    10    1
    15     9     8   ar
    16     7     8   ar
    17     8    15    1
