@<TRIPOS>MOLECULE
1c9d_PLP_B_1.pdb
 15 15 0 0 0
SMALL
GASTEIGER

@<TRIPOS>ATOM
      1  N1        85.0700   13.8880   12.0660 N.2   900  PLP900     -0.2505
      2  C2        85.1830   14.2170   10.7370 C.2   900  PLP900      0.0675
      3  C2A       86.5040   14.1300   10.0280 C.3   900  PLP900      0.0499
      4  C3        84.0360   14.6640   10.1020 C.3   900  PLP900      0.1913
      5  O3        84.1580   14.9930    8.7460 O.3   900  PLP900     -0.2167
      6  C4        82.8030   14.7900   10.7460 C.3   900  PLP900      0.0581
      7  C4A       81.8370   14.8610    9.7030 C.3   900  PLP900      0.0075
      8  C5        82.7500   14.4760   12.1140 C.2   900  PLP900      0.0073
      9  C6        83.8850   14.0260   12.7060 C.2   900  PLP900      0.0921
     10  C5A       81.5650   14.7020   13.1160 C.3   900  PLP900      0.1776
     11  O4P       81.1810   13.4500   13.4420 O.3   900  PLP900     -0.2656
     12  P         80.1990   12.4660   14.0290 P.3   900  PLP900      0.5329
     13  O1P       78.8780   12.1540   13.4470 O.2   900  PLP900     -0.2224
     14  O2P       80.8270   11.1550   13.8440 O.3   900  PLP900     -0.1145
     15  O3P       80.3010   12.8200   15.4350 O.3   900  PLP900     -0.1145
@<TRIPOS>BOND
     1     5     4    1
     2     7     6    1
     3     3     2    1
     4     4     2    1
     5     4     6    1
     6     2     1    2
     7     6     8    1
     8     1     9    1
     9     8     9    2
    10     8    10    1
    11    10    11    1
    12    11    12    1
    13    13    12    2
    14    14    12    1
    15    12    15    1
