@<TRIPOS>MOLECULE
1c9e_MP1_A_1.pdb
 44 51 0 0 0
SMALL
GASTEIGER

@<TRIPOS>ATOM
      1 CU         15.4390   18.6760    9.6660 Cu    800  MP1800      0.0000
      2  C1        16.0990   18.8420   12.1790 C.3   800  MP1800      0.0000
      3  N1        14.8780   19.6400   11.5280 N.2   800  MP1800      0.0000
      4  C11       13.5760   19.3270   12.2010 C.2   800  MP1800      0.0000
      5  C12       12.8590   20.5920   12.5160 C.2   800  MP1800      0.0000
      6  C13       13.7060   21.6400   12.0310 C.2   800  MP1800      0.0000
      7  C14       14.9490   21.0160   11.4120 C.2   800  MP1800      0.0000
      8  C15       15.9850   21.8120   10.8190 C.2   800  MP1800      0.0000
      9  C16       11.4500   20.6190   13.2020 C.3   800  MP1800      0.0000
     10  C17       13.5440   23.1890   12.0640 C.3   800  MP1800      0.0000
     11  C18       13.3880   23.6680   13.5550 C.3   800  MP1800      0.0000
     12  N2        16.7200   20.1050    9.2750 N.ar  800  MP1800      0.0000
     13  C21       16.8390   21.3500    9.8100 C.ar  800  MP1800      0.0000
     14  C22       17.9400   22.0950    9.1260 C.ar  800  MP1800      0.0000
     15  C23       18.5660   21.1810    8.1310 C.ar  800  MP1800      0.0000
     16  C24       17.7830   20.0130    8.2590 C.ar  800  MP1800      0.0000
     17  C25       18.0880   18.9570    7.4070 C.2   800  MP1800      0.0000
     18  C26       18.3580   23.5300    9.4330 C.3   800  MP1800      0.0000
     19  C27       19.7470   21.2650    7.0650 C.3   800  MP1800      0.0000
     20  C28       21.2000   21.1230    7.6050 C.3   800  MP1800      0.0000
     21  N3        16.3700   17.5090    8.2410 N.2   800  MP1800      0.0000
     22  C31       17.4080   17.8120    7.3880 C.2   800  MP1800      0.0000
     23  C32       17.7300   16.7610    6.3290 C.2   800  MP1800      0.0000
     24  C33       16.7750   15.7700    6.6770 C.2   800  MP1800      0.0000
     25  C34       15.9360   16.1990    7.8060 C.2   800  MP1800      0.0000
     26  C35       14.8710   15.4950    8.3890 C.2   800  MP1800      0.0000
     27  C36       18.6150   16.9430    4.9740 C.3   800  MP1800      0.0000
     28  C37       16.5470   14.4380    5.9820 C.2   800  MP1800      0.0000
     29  C38       17.2290   13.1640    6.3840 C.2   800  MP1800      0.0000
     30  C39       16.8880   11.8870    5.6010 C.2   800  MP1800      0.0000
     31  O31       17.7050   11.4350    4.7640 O.co2 800  MP1800      0.0000
     32  O32       15.8070   11.3200    5.8430 O.co2 800  MP1800      0.0000
     33  N4        14.1890   17.0730   10.3810 N.ar  800  MP1800      0.0000
     34  C41       14.1410   15.8710    9.6550 C.ar  800  MP1800      0.0000
     35  C42       13.1820   15.0210   10.3060 C.ar  800  MP1800      0.0000
     36  C43       12.6630   15.6110   11.4350 C.ar  800  MP1800      0.0000
     37  C44       13.2720   16.9600   11.4780 C.ar  800  MP1800      0.0000
     38  C45       12.9750   18.0330   12.4200 C.2   800  MP1800      0.0000
     39  C46       11.6650   14.9050   12.2690 C.3   800  MP1800      0.0000
     40  C47       12.8480   13.7070    9.7470 C.3   800  MP1800      0.0000
     41  C48       11.7290   13.9630    8.6640 C.3   800  MP1800      0.0000
     42  C49       11.2350   12.7320    7.9130 C.2   800  MP1800      0.0000
     43  O41       11.8090   12.4730    6.8410 O.co2 800  MP1800      0.0000
     44  O42       10.2670   12.0670    8.3490 O.co2 800  MP1800      0.0000
@<TRIPOS>BOND
     1    31    30   ar
     2    27    23    1
     3    30    32   ar
     4    30    29    1
     5    28    29    2
     6    28    24    1
     7    23    24    2
     8    23    22    1
     9    24    25    1
    10    43    42   ar
    11    19    20    1
    12    19    15    1
    13    22    17    1
    14    22    21    2
    15    17    16    2
    16    25    21    1
    17    25    26    2
    18    42    44   ar
    19    42    41    1
    20    15    16   ar
    21    15    14   ar
    22    21     1    1
    23    16    12   ar
    24    26    34    1
    25    41    40    1
    26    14    18    1
    27    14    13   ar
    28    12     1    1
    29    12    13   ar
    30    34    35   ar
    31    34    33   ar
    32     1    33    1
    33     1     3    1
    34    40    35    1
    35    13     8    2
    36    35    36   ar
    37    33    37   ar
    38     8     7    1
    39     7     3    2
    40     7     6    1
    41    36    37   ar
    42    36    39    1
    43    37    38    1
    44     3     2    1
    45     3     4    1
    46     6    10    1
    47     6     5    2
    48    10    11    1
    49     4    38    2
    50     4     5    1
    51     5     9    1
