@<TRIPOS>MOLECULE
1c9k_5GP_A_1.pdb
 24 26 0 0 0
SMALL
GASTEIGER

@<TRIPOS>ATOM
      1  P         44.0670   41.5320   18.4590 P.3   604  5GP604      0.5327
      2  O1P       43.8260   40.3590   19.3480 O.3   604  5GP604     -0.1145
      3  O2P       45.4070   41.4030   17.8040 O.2   604  5GP604     -0.2224
      4  O3P       44.3890   42.9190   18.9110 O.3   604  5GP604     -0.1145
      5  O5'       42.9800   41.5960   17.4300 O.3   604  5GP604     -0.2675
      6  C5'       42.4890   40.4430   16.7110 C.3   604  5GP604      0.1859
      7  C4'       42.3310   40.8110   15.2480 C.3   604  5GP604      0.1801
      8  O4'       43.6350   41.0810   14.7210 O.3   604  5GP604     -0.3326
      9  C3'       41.7200   39.7870   14.2980 C.3   604  5GP604      0.2158
     10  O3'       40.3020   40.0010   14.1880 O.3   604  5GP604     -0.2175
     11  C2'       42.4790   40.0600   12.9770 C.3   604  5GP604      0.2310
     12  O2'       41.6660   40.5360   11.9240 O.3   604  5GP604     -0.2158
     13  C1'       43.4780   41.1540   13.3440 C.3   604  5GP604      0.2293
     14  N9        44.7740   41.0070   12.7160 N.pl3 604  5GP604     -0.2354
     15  C8        45.8650   40.2130   12.9420 C.3   604  5GP604      0.2246
     16  N7        46.8310   40.4360   12.1000 N.2   604  5GP604     -0.2322
     17  C5        46.3560   41.4360   11.2650 C.2   604  5GP604      0.2182
     18  C6        46.9680   42.0660   10.1490 C.1   604  5GP604      0.2372
     19  O6        48.0980   41.8670    9.6850 O.2   604  5GP604     -0.2069
     20  N1        46.1450   43.0400    9.5820 N.2   604  5GP604     -0.2485
     21  C2        44.8770   43.3470   10.0210 C.1   604  5GP604      0.2531
     22  N2        44.2340   44.3100    9.3390 N.pl3 604  5GP604     -0.0226
     23  N3        44.2860   42.7550   11.0630 N.2   604  5GP604     -0.3074
     24  C4        45.0930   41.8230   11.6480 C.2   604  5GP604      0.2300
@<TRIPOS>BOND
     1    22    21    1
     2    20    21    2
     3    20    18    2
     4    19    18    2
     5    21    23    2
     6    18    17    1
     7    23    24    2
     8    17    24    1
     9    17    16    2
    10    24    14    1
    11    12    11    1
    12    16    15    1
    13    14    15    1
    14    14    13    1
    15    11    13    1
    16    11     9    1
    17    13     8    1
    18    10     9    1
    19     9     7    1
    20     8     7    1
    21     7     6    1
    22     6     5    1
    23     5     1    1
    24     3     1    2
    25     1     4    1
    26     1     2    1
