@<TRIPOS>MOLECULE
1c9s_TRP_A_1.pdb
 15 16 0 0 0
SMALL
GASTEIGER

@<TRIPOS>ATOM
      1  N        -42.7530   -9.1690   50.5090 N.3    81  TRP81      -0.1205
      2  CA       -41.6840   -9.8310   49.7580 C.3    81  TRP81       0.1984
      3  C        -40.3430   -9.5950   50.4860 C.2    81  TRP81       0.3822
      4  O        -40.2390   -8.5520   51.1600 O.co2  81  TRP81      -0.2440
      5  CB       -41.6100   -9.0900   48.3970 C.3    81  TRP81       0.0549
      6  CG       -40.4640   -9.5880   47.5630 C.2    81  TRP81      -0.0138
      7  CD1      -39.2060   -9.0670   47.4560 C.2    81  TRP81       0.0907
      8  CD2      -40.4990  -10.7360   46.7160 C.3    81  TRP81       0.0819
      9  NE1      -38.4710   -9.8230   46.5660 N.2    81  TRP81      -0.2482
     10  CE2      -39.2420  -10.8550   46.0980 C.2    81  TRP81       0.0665
     11  CE3      -41.5100  -11.6680   46.3950 C.2    81  TRP81      -0.0164
     12  CZ2      -38.9360  -11.8790   45.2090 C.2    81  TRP81       0.0153
     13  CZ3      -41.2050  -12.6760   45.5290 C.2    81  TRP81      -0.0038
     14  CH2      -39.9310  -12.7880   44.9270 C.2    81  TRP81       0.0009
     15  OXT      -39.6030  -10.6000   50.5900 O.co2  81  TRP81      -0.2440
@<TRIPOS>BOND
     1    14    12    2
     2    14    13    1
     3    12    10    1
     4    13    11    2
     5    10     9    2
     6    10     8    1
     7    11     8    1
     8     9     7    1
     9     8     6    1
    10     7     6    2
    11     6     5    1
    12     5     2    1
    13     2     3    1
    14     2     1    1
    15     3    15   ar
    16     3     4   ar
