@<TRIPOS>MOLECULE
1c9u_PQQ_A_1.pdb
 24 26 0 0 0
SMALL
GASTEIGER

@<TRIPOS>ATOM
      1  N1         5.3350   21.9180   10.1970 N.2   1004  PQQ1004    -0.3986
      2  C2         4.1720   21.2570   10.4290 C.2   1004  PQQ1004     0.2104
      3  C2X        4.2190   19.9240   10.7880 C.2   1004  PQQ1004     0.4168
      4  O2A        5.3080   19.3250   10.7710 O.co2 1004  PQQ1004    -0.2377
      5  O2B        3.2070   19.3380   11.1220 O.co2 1004  PQQ1004    -0.2377
      6  C3         3.1010   22.1080   10.2330 C.2   1004  PQQ1004     0.0444
      7  C3A        3.5990   23.3130    9.8640 C.2   1004  PQQ1004     0.0711
      8  C1A        4.9650   23.1920    9.8420 C.2   1004  PQQ1004     0.1232
      9  C4         2.9660   24.5100    9.5350 C.2   1004  PQQ1004     0.2387
     10  O4         1.5940   24.6840    9.5520 O.2   1004  PQQ1004    -0.2830
     11  C5         3.7150   25.6000    9.1760 C.2   1004  PQQ1004     0.2601
     12  O5         3.0880   26.7650    8.8600 O.2   1004  PQQ1004    -0.2807
     13  C6A        5.1280   25.5080    9.1510 C.2   1004  PQQ1004     0.1617
     14  N6         5.6830   26.6910    8.8080 N.2   1004  PQQ1004    -0.3954
     15  C7         7.0110   26.6990    8.8160 C.2   1004  PQQ1004     0.2103
     16  C7X        7.5310   27.9770    8.5330 C.2   1004  PQQ1004     0.4168
     17  O7A        6.8010   28.9940    8.6350 O.co2 1004  PQQ1004    -0.2377
     18  O7B        8.7370   28.1240    8.1840 O.co2 1004  PQQ1004    -0.2377
     19  C8         7.7500   25.5790    9.1110 C.2   1004  PQQ1004     0.0420
     20  C9         7.1490   24.3570    9.4420 C.2   1004  PQQ1004     0.0734
     21  C9X        7.9740   23.2260    9.6890 C.2   1004  PQQ1004     0.3847
     22  O9A        9.2100   23.3440    9.7420 O.co2 1004  PQQ1004    -0.2409
     23  O9B        7.5630   22.0910    9.8560 O.co2 1004  PQQ1004    -0.2409
     24  C9A        5.7730   24.2960    9.4860 C.3   1004  PQQ1004     0.1366
@<TRIPOS>BOND
     1    18    16   ar
     2    16    17   ar
     3    16    15    1
     4    14    15    2
     5    14    13    2
     6    15    19    1
     7    12    11    1
     8    19    20    2
     9    13    11    1
    10    13    24    1
    11    11     9    2
    12    20    24    1
    13    20    21    1
    14    24     8    1
    15     9    10    1
    16     9     7    1
    17    21    22   ar
    18    21    23   ar
    19     8     7    1
    20     8     1    2
    21     7     6    2
    22     1     2    2
    23     6     2    1
    24     2     3    1
    25     4     3   ar
    26     3     5   ar
