@<TRIPOS>MOLECULE
1c9w_NAP_A_1.pdb
 48 52 0 0 0
SMALL
GASTEIGER

@<TRIPOS>ATOM
      1  PA       -16.7420   46.0580   20.3430 P.3   350  NAP350      0.2189
      2  O1A      -16.3080   44.8190   19.6350 O.2   350  NAP350     -0.5170
      3  O2A      -16.9410   46.0130   21.7770 O.3   350  NAP350     -0.4371
      4  O5B      -18.0780   46.5820   19.5650 O.3   350  NAP350     -0.3112
      5  C5B      -18.7890   47.7600   19.9890 C.3   350  NAP350      0.1813
      6  C4B      -19.9610   47.9650   19.0530 C.3   350  NAP350      0.1820
      7  O4B      -20.7880   46.8110   19.1520 O.3   350  NAP350     -0.3136
      8  C3B      -20.7990   49.1440   19.3870 C.3   350  NAP350      0.2157
      9  O3B      -21.3090   49.7840   18.2000 O.3   350  NAP350     -0.2175
     10  C2B      -21.9550   48.5650   20.1560 C.3   350  NAP350      0.2314
     11  O2B      -23.1870   49.2580   19.9440 O.3   350  NAP350     -0.2630
     12  C1B      -22.1120   47.1870   19.5490 C.3   350  NAP350      0.3158
     13  N9A      -22.5660   46.1080   20.4780 N.pl3 350  NAP350     -0.1439
     14  C8A      -22.2340   45.8900   21.8090 C.3   350  NAP350      0.3377
     15  N7A      -22.8110   44.8300   22.3100 N.2   350  NAP350     -0.2095
     16  C5A      -23.5580   44.3150   21.2800 C.2   350  NAP350      0.2526
     17  C6A      -24.3990   43.1840   21.1830 C.2   350  NAP350      0.4393
     18  N6A      -24.6000   42.3670   22.2070 N.pl3 350  NAP350      0.2180
     19  N1A      -25.0160   42.9410   19.9830 N.2   350  NAP350      0.0021
     20  C2A      -24.8180   43.7660   18.9290 C.3   350  NAP350      0.5254
     21  N3A      -24.0380   44.8530   18.9380 N.2   350  NAP350     -0.0055
     22  C4A      -23.4300   45.0750   20.1550 C.2   350  NAP350      0.3518
     23  O3       -15.7080   47.2260   19.8950 O.3   350  NAP350     -0.2703
     24  PN       -15.0590   48.5490   20.5310 P.3   350  NAP350      0.2189
     25  O1N      -15.7570   49.6700   19.8880 O.2   350  NAP350     -0.5170
     26  O2N      -13.5840   48.4140   20.2640 O.3   350  NAP350     -0.4371
     27  O5D      -15.1840   48.4950   22.1390 O.3   350  NAP350     -0.3112
     28  C5D      -14.2830   47.6920   22.9740 C.3   350  NAP350      0.1813
     29  C4D      -13.5930   48.4960   24.1130 C.3   350  NAP350      0.1799
     30  O4D      -12.1930   48.3320   23.9360 O.3   350  NAP350     -0.3327
     31  C3D      -13.7650   50.0260   24.0250 C.3   350  NAP350      0.2158
     32  O3D      -14.9690   50.5470   24.5950 O.3   350  NAP350     -0.2175
     33  C2D      -12.5450   50.5650   24.7200 C.3   350  NAP350      0.2309
     34  O2D      -12.6670   50.6190   26.1270 O.3   350  NAP350     -0.2158
     35  C1D      -11.4710   49.5220   24.2710 C.3   350  NAP350      0.2263
     36  N1N      -10.6970   49.9950   23.0720 N.pl3 350  NAP350     -0.2787
     37  C2N       -9.3240   50.2190   23.3140 C.3   350  NAP350      0.1244
     38  C3N       -8.5180   50.6710   22.2010 C.2   350  NAP350      0.0544
     39  C7N       -7.0780   50.9290   22.3680 C.2   350  NAP350      0.2818
     40  O7N       -6.3560   51.3210   21.4340 O.2   350  NAP350     -0.2670
     41  N7N       -6.4860   50.7470   23.5680 N.am  350  NAP350     -0.0839
     42  C4N       -9.1400   50.8630   20.9430 C.2   350  NAP350      0.0033
     43  C5N      -10.4620   50.6440   20.7220 C.2   350  NAP350      0.0157
     44  C6N      -11.2450   50.2120   21.7730 C.2   350  NAP350      0.0633
     45  P2B      -23.8490   50.1580   21.0590 P.3   350  NAP350      0.5328
     46  O1X      -24.6450   49.1800   21.8280 O.3   350  NAP350     -0.1145
     47  O2X      -22.8120   50.8800   21.8400 O.3   350  NAP350     -0.1145
     48  O3X      -24.6720   51.0170   20.1950 O.2   350  NAP350     -0.2224
@<TRIPOS>BOND
     1     9     8    1
     2    20    21    1
     3    20    19    1
     4    21    22    2
     5     6     7    1
     6     6     8    1
     7     6     5    1
     8     7    12    1
     9     8    10    1
    10    12    10    1
    11    12    13    1
    12     4     5    1
    13     4     1    1
    14     2     1    2
    15    25    24    2
    16    23     1    1
    17    23    24    1
    18    11    10    1
    19    11    45    1
    20    19    17    2
    21    22    13    1
    22    22    16    1
    23    48    45    2
    24    26    24    1
    25     1     3    1
    26    13    14    1
    27    24    27    1
    28    43    42    1
    29    43    44    2
    30    42    38    2
    31    45    46    1
    32    45    47    1
    33    17    16    1
    34    17    18    1
    35    16    15    2
    36    40    39    2
    37    44    36    1
    38    14    15    1
    39    27    28    1
    40    38    39    1
    41    38    37    1
    42    39    41   am
    43    28    29    1
    44    36    37    1
    45    36    35    1
    46    30    29    1
    47    30    35    1
    48    31    29    1
    49    31    32    1
    50    31    33    1
    51    35    33    1
    52    33    34    1
