@<TRIPOS>MOLECULE
1ca7_ENO_A_1.pdb
 13 13 0 0 0
SMALL
GASTEIGER

@<TRIPOS>ATOM
      1  O4        32.3190  -13.5990   59.5040 O.2   501  ENO501     -0.2795
      2  C9        31.0180  -18.1600   59.1290 C.ar  501  ENO501      0.0034
      3  C8        30.2430  -19.2980   58.9330 C.ar  501  ENO501      0.0420
      4  C7        28.8910  -19.1770   58.6470 C.ar  501  ENO501      0.1957
      5  C6        28.3020  -17.9170   58.5570 C.ar  501  ENO501      0.0420
      6  C5        29.0830  -16.7770   58.7530 C.ar  501  ENO501      0.0034
      7  C4        30.4550  -16.8850   59.0420 C.ar  501  ENO501      0.0036
      8  O3        28.1400  -20.2960   58.4530 O.3   501  ENO501     -0.2866
      9  C3        31.3250  -15.6370   59.2600 C.2   501  ENO501      0.0490
     10  C2        31.1830  -14.3050   59.1930 C.2   501  ENO501      0.2747
     11  C1        30.0530  -13.3360   58.8560 C.2   501  ENO501      0.4260
     12  O2        30.2660  -12.1090   58.9040 O.co2 501  ENO501     -0.2369
     13  O1        28.9300  -13.7820   58.5460 O.co2 501  ENO501     -0.2369
@<TRIPOS>BOND
     1     8     4    1
     2    13    11   ar
     3     5     4   ar
     4     5     6   ar
     5     4     3   ar
     6     6     7   ar
     7    11    12   ar
     8    11    10    1
     9     3     2   ar
    10     7     2   ar
    11     7     9    1
    12    10     9    2
    13    10     1    1
