@<TRIPOS>MOLECULE
1ca8_0KV_B_1.pdb
 35 37 0 0 0
SMALL
GASTEIGER

@<TRIPOS>ATOM
      1  C7        18.6280  -17.1000   26.1640 C.3   248  0KV248      0.1969
      2  C8        19.8580  -16.2600   26.0600 C.ar  248  0KV248      0.0030
      3  C9        19.7060  -14.8910   26.2070 C.ar  248  0KV248     -0.0025
      4  C10       20.8440  -14.0810   26.0400 C.ar  248  0KV248     -0.0003
      5  C11       21.9840  -14.5750   25.4250 C.ar  248  0KV248     -0.0000
      6  C12       22.0460  -15.9360   25.1200 C.ar  248  0KV248     -0.0003
      7  C13       21.0700  -16.7860   25.6380 C.ar  248  0KV248     -0.0025
      8  S         17.9370  -17.6440   24.6120 S.O2  248  0KV248      0.0620
      9  O1S       16.6770  -18.1960   24.9690 O.2   248  0KV248     -0.1558
     10  O2S       18.9040  -18.2950   23.7880 O.2   248  0KV248     -0.1558
     11  N1        17.5900  -16.3240   23.6630 N.3   248  0KV248     -0.0739
     12  C1        17.9390  -14.3150   22.3400 C.2   248  0KV248      0.2435
     13  O1        16.9630  -13.9360   22.9870 O.2   248  0KV248     -0.2733
     14  CA1       18.5400  -15.6440   22.8780 C.3   248  0KV248      0.1733
     15  CB1       19.1600  -16.4120   21.7510 C.3   248  0KV248      0.0304
     16  CD1       19.8340  -14.1580   20.7280 C.3   248  0KV248      0.0937
     17  CG1       20.2190  -15.5760   21.0750 C.3   248  0KV248      0.0235
     18  C2        16.6930  -12.8930   20.5090 C.3   248  0KV248      0.2458
     19  N2        18.6590  -13.6550   21.4610 N.am  248  0KV248     -0.2742
     20  O2        16.8310  -13.7370   19.5700 O.3   248  0KV248     -0.2017
     21  CA2       18.0200  -12.3710   21.1560 C.3   248  0KV248      0.1446
     22  C3        14.9020  -10.9010   18.2600 C.2   248  0KV248      0.2245
     23  N3        15.9810  -11.6610   20.5400 N.3   248  0KV248     -0.1812
     24  O3        15.8910  -11.0530   17.5180 O.2   248  0KV248     -0.2868
     25  C4        12.5240  -13.3060   21.0250 C.3   248  0KV248      0.0067
     26  C5        12.3450  -14.4110   22.1290 C.3   248  0KV248      0.0406
     27  C6        12.6940  -13.8550   23.5410 C.3   248  0KV248      0.1678
     28  CA3       14.7790  -11.5250   19.6560 C.3   248  0KV248      0.1398
     29  CB3       13.5360  -11.0010   20.4130 C.3   248  0KV248      0.0287
     30  CD3       12.8270  -11.4250   22.8560 C.3   248  0KV248      0.1677
     31  NE3       12.1640  -12.4480   23.7400 N.pl3 248  0KV248     -0.1885
     32  CG3       13.2930  -12.0500   21.5230 C.3   248  0KV248      0.0393
     33  CZ3       11.1630  -12.0680   24.7230 C.cat 248  0KV248      0.4954
     34  NH1       10.4650  -12.9970   25.3010 N.pl3 248  0KV248      0.1298
     35  NH2       10.9140  -10.8080   24.9300 N.pl3 248  0KV248      0.1298
@<TRIPOS>BOND
     1    24    22    2
     2    22    28    1
     3    20    18    1
     4    28    29    1
     5    28    23    1
     6    29    32    1
     7    18    23    1
     8    18    21    1
     9    16    17    1
    10    16    19    1
    11    25    32    1
    12    25    26    1
    13    17    15    1
    14    21    19    1
    15    19    12   am
    16    32    30    1
    17    15    14    1
    18    26    27    1
    19    12    14    1
    20    12    13    2
    21    30    31    1
    22    14    11    1
    23    27    31    1
    24    11     8    1
    25    31    33    1
    26    10     8    2
    27     8     9    2
    28     8     1    1
    29    33    35    2
    30    33    34    1
    31     6     5   ar
    32     6     7   ar
    33     5     4   ar
    34     7     2   ar
    35     4     3   ar
    36     2     1    1
    37     2     3   ar
