@<TRIPOS>MOLECULE
1caq_DPS_A_1.pdb
 36 40 0 0 0
SMALL
GASTEIGER

@<TRIPOS>ATOM
      1  N1        16.9890    9.0060   17.9520 N.pl3 502  DPS502     -0.3075
      2  C2        16.2400    8.6210   20.2690 C.ar  502  DPS502      0.0159
      3  C3        15.7820    7.7660   21.2490 C.ar  502  DPS502      0.0212
      4  C4        15.3750    6.4870   20.9090 C.ar  502  DPS502      0.1236
      5  C5        15.3000    6.0830   19.5890 C.ar  502  DPS502      0.0212
      6  N7         8.6120    2.9830   20.4130 N.2   502  DPS502     -0.2442
      7  C8        12.3680    4.9770   21.8300 C.3   502  DPS502      0.2045
      8  C10       20.7400   12.9320   13.2940 C.ar  502  DPS502     -0.0000
      9  C11       18.1680   10.7810   15.9970 C.3   502  DPS502      0.0257
     10  C12       21.2210   12.5320   14.5340 C.ar  502  DPS502     -0.0003
     11  O1        15.7780    5.7560   23.3430 O.2   502  DPS502     -0.1516
     12  O2        15.1780    4.0470   21.6730 O.2   502  DPS502     -0.1516
     13  C1        16.3100    8.1960   18.9350 C.ar  502  DPS502      0.0479
     14  C6        15.7830    6.9410   18.6100 C.ar  502  DPS502      0.0159
     15  S         15.0170    5.3500   22.1940 S.O2  502  DPS502      0.0773
     16  C7        17.9670    9.3090   15.6520 C.3   502  DPS502      0.0258
     17  C13       18.5830   10.9320   17.4580 C.3   502  DPS502      0.0258
     18  C15       17.5660   10.2930   18.3870 C.3   502  DPS502      0.0911
     19  C18       16.8540    8.7120   16.5100 C.3   502  DPS502      0.0911
     20  C14       20.4150   11.8000   15.4050 C.ar  502  DPS502     -0.0043
     21  C16       19.1110   11.4660   15.0470 C.ar  502  DPS502     -0.0224
     22  C17       18.6440   11.8360   13.7820 C.ar  502  DPS502     -0.0043
     23  C19       19.4500   12.5710   12.9120 C.ar  502  DPS502     -0.0003
     24  N         13.4060    5.4880   22.7010 N.3   502  DPS502     -0.0674
     25  C20       11.2250    4.3780   22.6600 C.3   502  DPS502      0.0589
     26  C9        11.8860    6.0480   20.8650 C.2   502  DPS502      0.3825
     27  O3        11.8320    7.2990   21.3820 O.co2 502  DPS502     -0.2440
     28  O4        11.5670    5.7640   19.7590 O.co2 502  DPS502     -0.2440
     29  C21        6.5640    6.1450   20.6610 C.2   502  DPS502     -0.0199
     30  C22        6.8650    4.8350   20.2560 C.2   502  DPS502      0.0148
     31  C23        8.0340    4.2350   20.6570 C.2   502  DPS502      0.0804
     32  C24        8.8960    4.9350   21.5390 C.2   502  DPS502      0.0113
     33  C25        8.5990    6.2190   21.9380 C.2   502  DPS502     -0.0202
     34  C26        7.4230    6.8330   21.5150 C.3   502  DPS502      0.0521
     35  C27        9.7990    2.8810   21.0680 C.2   502  DPS502      0.0946
     36  C28       10.0320    4.0640   21.7800 C.2   502  DPS502      0.0001
@<TRIPOS>BOND
     1    23     8   ar
     2    23    22   ar
     3     8    10   ar
     4    22    21   ar
     5    10    20   ar
     6    21    20   ar
     7    21     9    1
     8    16     9    1
     9    16    19    1
    10     9    17    1
    11    19     1    1
    12    17    18    1
    13     1    18    1
    14     1    13    1
    15    14    13   ar
    16    14     5   ar
    17    13     2   ar
    18     5     4   ar
    19    28    26   ar
    20    30    31    1
    21    30    29    2
    22     2     3   ar
    23     6    31    2
    24     6    35    1
    25    31    32    1
    26    29    34    1
    27    26    27   ar
    28    26     7    1
    29     4     3   ar
    30     4    15    1
    31    35    36    2
    32    34    33    1
    33    32    36    1
    34    32    33    2
    35    12    15    2
    36    36    25    1
    37     7    25    1
    38     7    24    1
    39    15    24    1
    40    15    11    2
