@<TRIPOS>MOLECULE
1cb0_ADE_A_1.pdb
 10 11 0 0 0
SMALL
GASTEIGER

@<TRIPOS>ATOM
      1  N9        61.0280   15.9690   27.3510 N.2   290  ADE290     -0.1914
      2  C8        60.6990   14.9780   26.4560 C.3   290  ADE290      0.2618
      3  N7        59.8920   15.3740   25.5040 N.2   290  ADE290     -0.2267
      4  C5        59.6720   16.7040   25.7850 C.2   290  ADE290      0.2303
      5  C6        58.9060   17.6880   25.1530 C.2   290  ADE290      0.4393
      6  N6        58.1950   17.4310   24.0540 N.pl3 290  ADE290      0.2185
      7  N1        58.9190   18.9220   25.7170 N.2   290  ADE290     -0.0265
      8  C2        59.6420   19.1470   26.8180 C.3   290  ADE290      0.4008
      9  N3        60.4020   18.2920   27.4990 N.2   290  ADE290     -0.1640
     10  C4        60.3660   17.0800   26.9150 C.1   290  ADE290      0.0579
@<TRIPOS>BOND
     1     6     5    1
     2     5     7    2
     3     5     4    1
     4     3     4    2
     5     3     2    1
     6     7     8    1
     7     4    10    1
     8     2     1    1
     9     8     9    1
    10    10     1    2
    11    10     9    2
