@<TRIPOS>MOLECULE
1cb2_NAG_A_1.pdb
 14 14 0 0 0
SMALL
GASTEIGER

@<TRIPOS>ATOM
      1  C1         7.6650   39.7400   25.4620 C.3   501  NAG501      0.1665
      2  C2         9.0950   39.3100   25.1280 C.3   501  NAG501      0.1576
      3  C3         9.0760   38.0260   24.3090 C.3   501  NAG501      0.2069
      4  C4         8.2900   36.9550   25.0470 C.3   501  NAG501      0.2134
      5  C5         6.8840   37.4590   25.3380 C.3   501  NAG501      0.1809
      6  C6         6.0850   36.4260   26.1230 C.3   501  NAG501      0.2141
      7  C7        10.6090   41.1980   24.9830 C.2   501  NAG501      0.2420
      8  C8        11.2760   42.2460   24.1080 C.3   501  NAG501      0.0964
      9  N2         9.7790   40.3520   24.3760 N.am  501  NAG501     -0.2019
     10  O3        10.3900   37.5810   24.0640 O.3   501  NAG501     -0.2184
     11  O4         8.2290   35.7760   24.2750 O.3   501  NAG501     -0.2176
     12  O5         6.9680   38.6680   26.1050 O.3   501  NAG501     -0.3489
     13  O6         4.7780   36.9070   26.3610 O.3   501  NAG501     -0.2176
     14  O7        10.8270   41.1600   26.1940 O.2   501  NAG501     -0.2733
@<TRIPOS>BOND
     1    10     3    1
     2     8     7    1
     3    11     4    1
     4     3     4    1
     5     3     2    1
     6     9     7   am
     7     9     2    1
     8     7    14    2
     9     4     5    1
    10     2     1    1
    11     5    12    1
    12     5     6    1
    13     1    12    1
    14     6    13    1
