@<TRIPOS>MOLECULE
1cb2_MAN_A_1.pdb
 11 11 0 0 0
SMALL
GASTEIGER

@<TRIPOS>ATOM
      1  C1        14.6000   47.2350   61.4700 C.3   504  MAN504      0.1777
      2  C2        13.2510   47.9440   61.4850 C.3   504  MAN504      0.2141
      3  C3        13.4280   49.4560   61.3790 C.3   504  MAN504      0.2173
      4  C4        14.4090   49.9530   62.4350 C.3   504  MAN504      0.2142
      5  C5        15.7210   49.1750   62.3480 C.3   504  MAN504      0.1810
      6  C6        16.6960   49.6100   63.4430 C.3   504  MAN504      0.2141
      7  O2        12.5620   47.6330   62.6750 O.3   504  MAN504     -0.2176
      8  O3        12.1810   50.0980   61.5450 O.3   504  MAN504     -0.2175
      9  O4        14.6520   51.3320   62.2500 O.3   504  MAN504     -0.2176
     10  O5        15.4470   47.7740   62.4890 O.3   504  MAN504     -0.3481
     11  O6        17.9000   50.0730   62.8690 O.3   504  MAN504     -0.2176
@<TRIPOS>BOND
     1     3     2    1
     2     3     8    1
     3     3     4    1
     4     1     2    1
     5     1    10    1
     6     2     7    1
     7     9     4    1
     8     5     4    1
     9     5    10    1
    10     5     6    1
    11    11     6    1
