@<TRIPOS>MOLECULE
1cb7_TAR_B_1.pdb
 10 9 0 0 0
SMALL
GASTEIGER

@<TRIPOS>ATOM
      1  O1         3.6980   -8.3430   84.1730 O.co2 900  TAR900     -0.2427
      2  O11        4.4780   -7.5360   86.0530 O.co2 900  TAR900     -0.2427
      3  C1         3.6140   -7.5140   85.1260 C.2   900  TAR900      0.3979
      4  C2         2.5390   -6.4760   85.2350 C.3   900  TAR900      0.2950
      5  O2         1.7500   -6.2430   84.0720 O.3   900  TAR900     -0.2075
      6  C3         1.6120   -6.6970   86.4420 C.3   900  TAR900      0.2950
      7  O3         0.5710   -7.6220   86.0780 O.3   900  TAR900     -0.2075
      8  C4         1.0470   -5.3700   86.8880 C.2   900  TAR900      0.3979
      9  O4        -0.1500   -5.0740   86.6130 O.co2 900  TAR900     -0.2427
     10  O41        1.7920   -4.5830   87.5350 O.co2 900  TAR900     -0.2427
@<TRIPOS>BOND
     1     5     4    1
     2     1     3   ar
     3     3     4    1
     4     3     2   ar
     5     4     6    1
     6     7     6    1
     7     6     8    1
     8     9     8   ar
     9     8    10   ar
