@<TRIPOS>MOLECULE
1cbf_SAH_A_1.pdb
 26 28 0 0 0
SMALL
GASTEIGER

@<TRIPOS>ATOM
      1  N        -13.8600   33.0770   81.0970 N.3   300  SAH300     -0.1208
      2  CA       -12.8790   33.8070   80.2610 C.3   300  SAH300      0.1952
      3  CB       -11.4700   33.2480   80.6470 C.3   300  SAH300      0.0422
      4  CG       -10.9980   33.4920   82.1330 C.3   300  SAH300      0.0597
      5  SD        -9.4270   32.6580   82.4330 S.3   300  SAH300     -0.1375
      6  C        -13.2270   33.7250   78.7730 C.2   300  SAH300      0.3819
      7  O        -14.2490   33.0090   78.3820 O.co2 300  SAH300     -0.2441
      8  OXT      -12.4620   34.2740   77.9140 O.co2 300  SAH300     -0.2441
      9  C5'       -8.3000   34.0120   81.8520 C.3   300  SAH300      0.0899
     10  C4'       -7.6420   33.7170   80.5180 C.3   300  SAH300      0.1630
     11  O4'       -8.5440   33.9960   79.4280 O.3   300  SAH300     -0.3153
     12  C3'       -6.3790   34.5070   80.1320 C.3   300  SAH300      0.2168
     13  O3'       -5.2000   33.9130   80.7030 O.3   300  SAH300     -0.2175
     14  C2'       -6.3570   34.3430   78.6110 C.3   300  SAH300      0.2569
     15  O2'       -5.9670   33.0120   78.2320 O.3   300  SAH300     -0.2130
     16  C1'       -7.8650   34.4610   78.2880 C.3   300  SAH300      0.3185
     17  N9        -8.2810   35.8080   78.1020 N.pl3 300  SAH300     -0.1439
     18  C8        -9.2700   36.5080   78.7620 C.3   300  SAH300      0.3377
     19  N7        -9.5460   37.6470   78.1160 N.2   300  SAH300     -0.2095
     20  C5        -8.7160   37.6590   77.0140 C.2   300  SAH300      0.2526
     21  C6        -8.5270   38.5440   75.9800 C.2   300  SAH300      0.4393
     22  N6        -9.2760   39.6480   75.8760 N.pl3 300  SAH300      0.2180
     23  N1        -7.5730   38.2890   75.0420 N.2   300  SAH300      0.0021
     24  C2        -6.8620   37.1560   75.1670 C.3   300  SAH300      0.5254
     25  N3        -6.9810   36.2140   76.1200 N.2   300  SAH300     -0.0055
     26  C4        -7.9050   36.5410   77.0110 C.2   300  SAH300      0.3518
@<TRIPOS>BOND
     1    23    24    1
     2    23    21    2
     3    24    25    1
     4    22    21    1
     5    21    20    1
     6    25    26    2
     7    26    20    1
     8    26    17    1
     9    20    19    2
    10     8     6   ar
    11    17    16    1
    12    17    18    1
    13    19    18    1
    14    15    14    1
    15    16    14    1
    16    16    11    1
    17     7     6   ar
    18    14    12    1
    19     6     2    1
    20    11    10    1
    21    12    10    1
    22    12    13    1
    23     2     3    1
    24     2     1    1
    25    10     9    1
    26     3     4    1
    27     9     5    1
    28     4     5    1
