@<TRIPOS>MOLECULE
1cbk_ROI_A_1.pdb
 15 16 0 0 0
SMALL
GASTEIGER

@<TRIPOS>ATOM
      1  N1        15.8820   14.5220   42.4480 N.2   601  ROI601     -0.2672
      2  C2        16.5960   13.3770   42.7260 C.1   601  ROI601      0.2609
      3  N2        15.9590   12.1850   42.5750 N.pl3 601  ROI601     -0.0220
      4  N3        17.8870   13.3930   43.1370 N.2   601  ROI601     -0.2466
      5  C4        18.5640   14.5480   43.3190 C.1   601  ROI601      0.2579
      6  O4        19.7590   14.5740   43.6550 O.2   601  ROI601     -0.2051
      7  C4A       17.8720   15.7840   43.0990 C.2   601  ROI601      0.3110
      8  N5        18.4800   16.9190   43.2830 N.2   601  ROI601     -0.3104
      9  C6        17.8840   18.1480   43.0870 C.1   601  ROI601      0.2017
     10  C7        16.3600   18.2000   42.7980 C.3   601  ROI601      0.1973
     11  C16       15.5530   18.5310   44.1130 C.3   601  ROI601      0.0434
     12  C15       16.0500   19.1920   41.6690 C.3   601  ROI601      0.0434
     13  N8        15.8100   16.8720   42.3860 N.2   601  ROI601     -0.1936
     14  C8A       16.4780   15.6870   42.6350 C.1   601  ROI601      0.1416
     15  O9        18.6580   19.1540   43.1800 O.2   601  ROI601     -0.2122
@<TRIPOS>BOND
     1    12    10    1
     2    13    14    2
     3    13    10    1
     4     1    14    2
     5     1     2    2
     6     3     2    1
     7    14     7    1
     8     2     4    2
     9    10     9    1
    10    10    11    1
    11     9    15    2
    12     9     8    2
    13     7     8    2
    14     7     5    1
    15     4     5    2
    16     5     6    2
