@<TRIPOS>MOLECULE
1cbl_HEM_A_1.pdb
 43 50 0 0 0
SMALL
GASTEIGER

@<TRIPOS>ATOM
      1  CHA       10.6060    8.5740   18.6850 C.2   147  HEM147      0.0000
      2  CHB       12.3790   10.0320   14.4560 C.2   147  HEM147      0.0000
      3  CHC        8.2870    8.6160   12.3320 C.2   147  HEM147      0.0000
      4  CHD        6.5460    7.0180   16.5470 C.2   147  HEM147      0.0000
      5  C1A       11.4280    9.2110   17.7770 C.ar  147  HEM147      0.0000
      6  C2A       12.5830   10.0270   18.0060 C.ar  147  HEM147      0.0000
      7  C3A       13.0730   10.4100   16.8380 C.ar  147  HEM147      0.0000
      8  C4A       12.2160    9.8660   15.8160 C.ar  147  HEM147      0.0000
      9  CMA       14.2820   11.2940   16.5240 C.3   147  HEM147      0.0000
     10  CAA       13.1890   10.3110   19.4100 C.3   147  HEM147      0.0000
     11  CBA       14.1200    9.1710   19.8470 C.3   147  HEM147      0.0000
     12  CGA       14.9140    9.3770   21.1020 C.2   147  HEM147      0.0000
     13  O1A       16.1400    9.0790   21.0020 O.co2 147  HEM147      0.0000
     14  O2A       14.2970    9.8020   22.1170 O.co2 147  HEM147      0.0000
     15  C1B       11.4150    9.7800   13.5060 C.2   147  HEM147      0.0000
     16  C2B       11.5070   10.1490   12.1260 C.2   147  HEM147      0.0000
     17  C3B       10.3580    9.8090   11.5230 C.2   147  HEM147      0.0000
     18  C4B        9.5360    9.1700   12.5130 C.2   147  HEM147      0.0000
     19  CMB       12.7620   10.8550   11.5450 C.3   147  HEM147      0.0000
     20  CAB       10.0290   10.0360   10.0500 C.2   147  HEM147      0.0000
     21  CBB        9.6760    9.0650    9.2330 C.2   147  HEM147      0.0000
     22  C1C        7.4520    8.0510   13.2640 C.ar  147  HEM147      0.0000
     23  C2C        6.1060    7.5640   13.0510 C.ar  147  HEM147      0.0000
     24  C3C        5.6360    7.1240   14.2220 C.ar  147  HEM147      0.0000
     25  C4C        6.6770    7.3550   15.2150 C.ar  147  HEM147      0.0000
     26  CMC        5.4410    7.5840   11.6670 C.3   147  HEM147      0.0000
     27  CAC        4.3320    6.4980   14.6600 C.2   147  HEM147      0.0000
     28  CBC        3.1860    6.6870   14.0390 C.2   147  HEM147      0.0000
     29  C1D        7.4890    7.3170   17.4920 C.2   147  HEM147      0.0000
     30  C2D        7.3410    7.0690   18.9040 C.2   147  HEM147      0.0000
     31  C3D        8.4670    7.4560   19.4940 C.2   147  HEM147      0.0000
     32  C4D        9.3380    8.0240   18.5090 C.2   147  HEM147      0.0000
     33  CMD        6.0910    6.4100   19.4980 C.3   147  HEM147      0.0000
     34  CAD        8.7940    7.4490   21.0180 C.3   147  HEM147      0.0000
     35  CBD        8.0470    8.6420   21.6860 C.3   147  HEM147      0.0000
     36  CGD        8.0190    8.6240   23.1860 C.2   147  HEM147      0.0000
     37  O1D        6.8890    8.4660   23.7180 O.co2 147  HEM147      0.0000
     38  O2D        9.1340    8.7780   23.7570 O.co2 147  HEM147      0.0000
     39  NA        11.2070    9.1520   16.4110 N.ar  147  HEM147      0.0000
     40  NB        10.1920    9.1790   13.7230 N.2   147  HEM147      0.0000
     41  NC         7.7760    7.9060   14.5960 N.ar  147  HEM147      0.0000
     42  ND         8.7130    7.9210   17.2730 N.2   147  HEM147      0.0000
     43 FE          9.6420    8.2060   15.4580 Fe    147  HEM147      0.0000
@<TRIPOS>BOND
     1    21    20    2
     2    20    17    1
     3    17    16    2
     4    17    18    1
     5    19    16    1
     6    26    23    1
     7    16    15    1
     8     3    18    2
     9     3    22    1
    10    18    40    1
    11    23    22   ar
    12    23    24   ar
    13    22    41   ar
    14    15    40    2
    15    15     2    1
    16    40    43    1
    17    28    27    2
    18    24    27    1
    19    24    25   ar
    20     2     8    2
    21    41    25   ar
    22    41    43    1
    23    25     4    1
    24    43    39    1
    25    43    42    1
    26     8    39   ar
    27     8     7   ar
    28    39     5   ar
    29     9     7    1
    30     4    29    2
    31     7     6   ar
    32    42    29    1
    33    42    32    2
    34    29    30    1
    35     5     6   ar
    36     5     1    2
    37     6    10    1
    38    32     1    1
    39    32    31    1
    40    30    31    2
    41    30    33    1
    42    10    11    1
    43    31    34    1
    44    11    12    1
    45    13    12   ar
    46    34    35    1
    47    12    14   ar
    48    35    36    1
    49    36    37   ar
    50    36    38   ar
