@<TRIPOS>MOLECULE
1cbm_HEM_A_1.pdb
 43 50 0 0 0
SMALL
GASTEIGER

@<TRIPOS>ATOM
      1  CHA       10.4960    8.9390   18.5200 C.2   147  HEM147      0.0000
      2  CHB       11.9420   10.5310   14.1760 C.2   147  HEM147      0.0000
      3  CHC        8.1380    8.3410   12.1380 C.2   147  HEM147      0.0000
      4  CHD        6.4550    7.1000   16.5280 C.2   147  HEM147      0.0000
      5  C1A       11.1670    9.6200   17.5180 C.ar  147  HEM147      0.0000
      6  C2A       12.2940   10.5130   17.6960 C.ar  147  HEM147      0.0000
      7  C3A       12.7160   10.9230   16.5150 C.ar  147  HEM147      0.0000
      8  C4A       11.8380   10.3150   15.5350 C.ar  147  HEM147      0.0000
      9  CMA       13.8830   11.8570   16.1330 C.3   147  HEM147      0.0000
     10  CAA       12.9440   10.7990   19.0940 C.3   147  HEM147      0.0000
     11  CBA       14.1710    9.8800   19.2810 C.3   147  HEM147      0.0000
     12  CGA       14.7600    9.9230   20.6660 C.2   147  HEM147      0.0000
     13  O1A       14.0690   10.4940   21.5550 O.co2 147  HEM147      0.0000
     14  O2A       15.8800    9.3650   20.7720 O.co2 147  HEM147      0.0000
     15  C1B       11.0500   10.0400   13.2350 C.2   147  HEM147      0.0000
     16  C2B       11.1480   10.2800   11.8170 C.2   147  HEM147      0.0000
     17  C3B       10.0780    9.6860   11.2330 C.2   147  HEM147      0.0000
     18  C4B        9.3160    9.0620   12.2850 C.2   147  HEM147      0.0000
     19  CMB       12.2890   11.0880   11.1250 C.3   147  HEM147      0.0000
     20  CAB        9.7790    9.7130    9.7190 C.2   147  HEM147      0.0000
     21  CBB        9.4630    8.6900    8.9640 C.2   147  HEM147      0.0000
     22  C1C        7.3120    7.8680   13.1520 C.ar  147  HEM147      0.0000
     23  C2C        5.9840    7.3310   12.9930 C.ar  147  HEM147      0.0000
     24  C3C        5.5240    7.0160   14.2150 C.ar  147  HEM147      0.0000
     25  C4C        6.5750    7.3120   15.1690 C.ar  147  HEM147      0.0000
     26  CMC        5.2740    7.1920   11.6450 C.3   147  HEM147      0.0000
     27  CAC        4.2250    6.3570   14.6850 C.2   147  HEM147      0.0000
     28  CBC        3.1000    6.5920   13.9980 C.2   147  HEM147      0.0000
     29  C1D        7.4070    7.4880   17.4510 C.2   147  HEM147      0.0000
     30  C2D        7.3290    7.3010   18.8880 C.2   147  HEM147      0.0000
     31  C3D        8.4530    7.7570   19.4080 C.2   147  HEM147      0.0000
     32  C4D        9.2660    8.3320   18.3550 C.2   147  HEM147      0.0000
     33  CMD        6.1550    6.5940   19.5880 C.3   147  HEM147      0.0000
     34  CAD        8.9020    7.8190   20.9010 C.3   147  HEM147      0.0000
     35  CBD        8.5360    9.1790   21.5290 C.3   147  HEM147      0.0000
     36  CGD        8.6170    9.2040   23.0490 C.2   147  HEM147      0.0000
     37  O1D        7.8030    8.4590   23.6870 O.co2 147  HEM147      0.0000
     38  O2D        9.5080    9.9880   23.5000 O.co2 147  HEM147      0.0000
     39  NA        10.8960    9.5520   16.1770 N.ar  147  HEM147      0.0000
     40  NB         9.9150    9.2940   13.5120 N.2   147  HEM147      0.0000
     41  NC         7.6460    7.8530   14.4710 N.ar  147  HEM147      0.0000
     42  ND         8.5890    8.1550   17.1410 N.2   147  HEM147      0.0000
     43 FE          9.2300    8.7410   15.3360 Fe    147  HEM147      0.0000
@<TRIPOS>BOND
     1    21    20    2
     2    20    17    1
     3    19    16    1
     4    17    16    2
     5    17    18    1
     6    26    23    1
     7    16    15    1
     8     3    18    2
     9     3    22    1
    10    18    40    1
    11    23    22   ar
    12    23    24   ar
    13    22    41   ar
    14    15    40    2
    15    15     2    1
    16    40    43    1
    17    28    27    2
    18     2     8    2
    19    24    27    1
    20    24    25   ar
    21    41    25   ar
    22    41    43    1
    23    25     4    1
    24    43    39    1
    25    43    42    1
    26     8    39   ar
    27     8     7   ar
    28     9     7    1
    29    39     5   ar
    30     7     6   ar
    31     4    29    2
    32    42    29    1
    33    42    32    2
    34    29    30    1
    35     5     6   ar
    36     5     1    2
    37     6    10    1
    38    32     1    1
    39    32    31    1
    40    30    31    2
    41    30    33    1
    42    10    11    1
    43    11    12    1
    44    31    34    1
    45    12    14   ar
    46    12    13   ar
    47    34    35    1
    48    35    36    1
    49    36    38   ar
    50    36    37   ar
