@<TRIPOS>MOLECULE
1cbq_RE9_A_1.pdb
 22 23 0 0 0
SMALL
GASTEIGER

@<TRIPOS>ATOM
      1  C1        67.3750   42.0010   37.1090 C.3   200  RE9200      0.0149
      2  C2        67.5640   43.5260   36.8180 C.3   200  RE9200      0.0041
      3  C3        69.0620   43.8990   36.6150 C.3   200  RE9200      0.0050
      4  C4        69.6870   43.1990   35.4130 C.3   200  RE9200      0.0254
      5  C5        69.2430   41.7350   35.3620 C.2   200  RE9200     -0.0340
      6  C6        69.8540   40.7310   34.5100 C.2   200  RE9200     -0.0267
      7  C7        69.1490   39.3800   34.7540 C.3   200  RE9200      0.0263
      8  C8        68.0310   39.7200   35.7790 C.3   200  RE9200      0.0260
      9  C9        68.2230   41.1940   36.0970 C.2   200  RE9200     -0.0487
     10  C10       68.5680   38.8640   33.3950 C.3   200  RE9200      0.0303
     11  C11       68.0210   37.4830   33.6540 C.2   200  RE9200     -0.0261
     12  C12       68.4710   36.3840   32.9840 C.2   200  RE9200     -0.0086
     13  C13       67.9500   35.0050   33.0770 C.2   200  RE9200     -0.0156
     14  C14       68.5500   34.0930   32.3180 C.2   200  RE9200      0.0819
     15  C15       68.2380   32.6760   32.1970 C.2   200  RE9200      0.3876
     16  C16       65.9130   41.6280   36.9870 C.3   200  RE9200      0.0040
     17  C17       67.7960   41.6540   38.5400 C.3   200  RE9200      0.0040
     18  C18       70.8590   40.9440   33.6360 C.2   200  RE9200     -0.0049
     19  C19       69.9930   38.2830   35.3820 C.3   200  RE9200      0.0050
     20  C20       66.8120   34.7300   33.9690 C.3   200  RE9200      0.0312
     21  O1        67.9960   32.0020   33.2130 O.co2 200  RE9200     -0.2406
     22  O2        68.2290   32.1710   31.0570 O.co2 200  RE9200     -0.2406
@<TRIPOS>BOND
     1    22    15   ar
     2    15    14    1
     3    15    21   ar
     4    14    13    2
     5    12    13    1
     6    12    11    2
     7    13    20    1
     8    10    11    1
     9    10     7    1
    10    18     6    2
    11     6     7    1
    12     6     5    1
    13     7    19    1
    14     7     8    1
    15     5     4    1
    16     5     9    2
    17     4     3    1
    18     8     9    1
    19     9     1    1
    20     3     2    1
    21     2     1    1
    22    16     1    1
    23     1    17    1
