@<TRIPOS>MOLECULE
1cbr_REA_A_1.pdb
 22 22 0 0 0
SMALL
GASTEIGER

@<TRIPOS>ATOM
      1  C1         5.0920    2.4270  -10.7940 C.3   200  REA200      0.0183
      2  C2         6.0790    1.2390  -10.8790 C.3   200  REA200      0.0044
      3  C3         7.4570    1.5880  -11.3400 C.3   200  REA200      0.0047
      4  C4         8.1090    2.6160  -10.4790 C.3   200  REA200      0.0217
      5  C5         7.1710    3.7700  -10.1040 C.2   200  REA200     -0.0479
      6  C6         5.8090    3.6640  -10.1590 C.2   200  REA200     -0.0307
      7  C7         4.8670    4.7410   -9.7870 C.2   200  REA200     -0.0052
      8  C8         5.0090    5.6850   -8.8490 C.2   200  REA200     -0.0046
      9  C9         4.0490    6.7120   -8.5120 C.2   200  REA200     -0.0219
     10  C10        4.3830    7.6020   -7.5550 C.2   200  REA200     -0.0043
     11  C11        3.5130    8.6700   -7.1050 C.2   200  REA200     -0.0006
     12  C12        3.9620    9.5090   -6.1670 C.2   200  REA200     -0.0041
     13  C13        3.1640   10.5920   -5.6370 C.2   200  REA200     -0.0153
     14  C14        3.7030   11.3990   -4.6890 C.2   200  REA200      0.0819
     15  C15        3.0710   12.5430   -4.0160 C.2   200  REA200      0.3876
     16  C16        3.9070    2.0000   -9.9190 C.3   200  REA200      0.0043
     17  C17        4.5820    2.7980  -12.2130 C.3   200  REA200      0.0043
     18  C18        7.9800    4.9390   -9.5360 C.3   200  REA200      0.0260
     19  C19        2.7160    6.8010   -9.2660 C.3   200  REA200      0.0310
     20  C20        1.7300   10.7780   -6.1620 C.3   200  REA200      0.0312
     21  O1         2.5240   13.4330   -4.7040 O.co2 200  REA200     -0.2406
     22  O2         3.0900   12.6020   -2.7660 O.co2 200  REA200     -0.2406
@<TRIPOS>BOND
     1    17     1    1
     2     3     2    1
     3     3     4    1
     4     2     1    1
     5     1     6    1
     6     1    16    1
     7     4     5    1
     8     6     5    2
     9     6     7    1
    10     5    18    1
    11     7     8    2
    12    19     9    1
    13     8     9    1
    14     9    10    2
    15    10    11    1
    16    11    12    2
    17    12    13    1
    18    20    13    1
    19    13    14    2
    20    21    15   ar
    21    14    15    1
    22    15    22   ar
