@<TRIPOS>MOLECULE
1cbs_REA_A_1.pdb
 22 22 0 0 0
SMALL
GASTEIGER

@<TRIPOS>ATOM
      1  C1        21.9720   29.8310   16.7390 C.3   200  REA200      0.0183
      2  C2        20.9210   30.5240   15.8410 C.3   200  REA200      0.0044
      3  C3        20.2450   29.6350   14.8480 C.3   200  REA200      0.0047
      4  C4        19.5550   28.4790   15.4880 C.3   200  REA200      0.0217
      5  C5        20.3890   27.8120   16.5870 C.2   200  REA200     -0.0479
      6  C6        21.4250   28.4460   17.2180 C.2   200  REA200     -0.0307
      7  C7        22.2420   27.8510   18.2970 C.2   200  REA200     -0.0052
      8  C8        21.8680   26.9770   19.2400 C.2   200  REA200     -0.0046
      9  C9        22.7050   26.4340   20.2860 C.2   200  REA200     -0.0219
     10  C10       22.1590   25.5360   21.1310 C.2   200  REA200     -0.0043
     11  C11       22.8750   24.9240   22.2340 C.2   200  REA200     -0.0006
     12  C12       22.2370   24.0260   22.9900 C.2   200  REA200     -0.0041
     13  C13       22.8560   23.3770   24.1250 C.2   200  REA200     -0.0153
     14  C14       22.1350   22.4730   24.8340 C.2   200  REA200      0.0819
     15  C15       22.5630   21.7100   26.0160 C.2   200  REA200      0.3876
     16  C16       22.2380   30.7370   17.9480 C.3   200  REA200      0.0043
     17  C17       23.2920   29.6200   15.9480 C.3   200  REA200      0.0043
     18  C18       19.7910   26.4490   16.9470 C.3   200  REA200      0.0260
     19  C19       24.1810   26.8410   20.3850 C.3   200  REA200      0.0310
     20  C20       24.3030   23.7470   24.4890 C.3   200  REA200      0.0312
     21  O1        23.6400   21.0750   25.9780 O.co2 200  REA200     -0.2406
     22  O2        21.8400   21.7120   27.0370 O.co2 200  REA200     -0.2406
@<TRIPOS>BOND
     1     3     4    1
     2     3     2    1
     3     4     5    1
     4     2     1    1
     5    17     1    1
     6     5    18    1
     7     5     6    2
     8     1     6    1
     9     1    16    1
    10     6     7    1
    11     7     8    2
    12     8     9    1
    13     9    19    1
    14     9    10    2
    15    10    11    1
    16    11    12    2
    17    12    13    1
    18    13    20    1
    19    13    14    2
    20    14    15    1
    21    21    15   ar
    22    15    22   ar
