@<TRIPOS>MOLECULE
1cbx_BZS_A_1.pdb
 15 15 0 0 0
SMALL
GASTEIGER

@<TRIPOS>ATOM
      1  C1        -3.1400   29.2320   -6.2390 C.2   500  BZS500      0.3654
      2  C2        -2.9080   30.4600   -7.1040 C.3   500  BZS500      0.1256
      3  CA        -2.4310   29.9480   -8.4960 C.3   500  BZS500      0.1189
      4  C         -0.8810   29.5390   -8.4040 C.2   500  BZS500      0.3652
      5  CB        -2.4990   31.1490   -9.4890 C.3   500  BZS500      0.0382
      6  CG        -2.3840   30.3750  -10.8520 C.ar  500  BZS500     -0.0216
      7  CD1       -1.1270   30.1830  -11.4430 C.ar  500  BZS500     -0.0043
      8  CD2       -3.5270   29.9620  -11.5680 C.ar  500  BZS500     -0.0043
      9  CE1       -1.0840   29.5700  -12.7240 C.ar  500  BZS500     -0.0003
     10  CE2       -3.4510   29.3590  -12.7630 C.ar  500  BZS500     -0.0003
     11  CZ        -2.2380   29.2010  -13.3510 C.ar  500  BZS500     -0.0000
     12  O1        -2.1330   28.7490   -5.8540 O.co2 500  BZS500     -0.2456
     13  O2        -4.2260   28.7800   -5.9400 O.co2 500  BZS500     -0.2456
     14  O3        -0.4790   28.3510   -8.8140 O.co2 500  BZS500     -0.2456
     15  O4        -0.1130   30.3680   -7.8260 O.co2 500  BZS500     -0.2456
@<TRIPOS>BOND
     1    11    10   ar
     2    11     9   ar
     3    10     8   ar
     4     9     7   ar
     5     8     6   ar
     6     7     6   ar
     7     6     5    1
     8     5     3    1
     9    14     4   ar
    10     3     4    1
    11     3     2    1
    12     4    15   ar
    13     2     1    1
    14     1    13   ar
    15     1    12   ar
