@<TRIPOS>MOLECULE
1cc0_GDP_A_1.pdb
 28 30 0 0 0
SMALL
GASTEIGER

@<TRIPOS>ATOM
      1  PB        12.2170   73.2750   62.2020 P.3   201  GDP201      0.5373
      2  O1B       13.0240   72.0270   61.8970 O.3   201  GDP201     -0.1143
      3  O2B       12.5500   74.3230   61.2010 O.2   201  GDP201     -0.2221
      4  O3B       10.7170   72.9150   62.5740 O.3   201  GDP201     -0.1143
      5  O3A       13.0590   73.7040   63.5380 O.3   201  GDP201     -0.2261
      6  PA        13.3400   75.2230   64.0440 P.3   201  GDP201      0.2231
      7  O1A       14.5480   75.6580   63.3210 O.2   201  GDP201     -0.5169
      8  O2A       12.0690   75.9430   63.9350 O.3   201  GDP201     -0.4370
      9  O5'       13.6630   75.0810   65.6310 O.3   201  GDP201     -0.3111
     10  C5'       12.9020   74.3630   66.5640 C.3   201  GDP201      0.1813
     11  C4'       13.2100   74.6430   67.9950 C.3   201  GDP201      0.1799
     12  O4'       14.5460   74.2410   68.2840 O.3   201  GDP201     -0.3326
     13  C3'       13.1610   76.1410   68.2420 C.3   201  GDP201      0.2158
     14  O3'       12.6660   76.3420   69.5260 O.3   201  GDP201     -0.2175
     15  C2'       14.6430   76.5400   68.0430 C.3   201  GDP201      0.2310
     16  O2'       15.1480   77.5780   68.9110 O.3   201  GDP201     -0.2158
     17  C1'       15.3730   75.3230   68.6760 C.3   201  GDP201      0.2293
     18  N9        16.7430   75.0950   68.1570 N.pl3 201  GDP201     -0.2354
     19  C8        17.0790   75.1700   66.8000 C.3   201  GDP201      0.2246
     20  N7        18.3660   74.8990   66.6180 N.2   201  GDP201     -0.2322
     21  C5        18.8160   74.6470   67.9250 C.2   201  GDP201      0.2182
     22  C6        20.1370   74.3130   68.3150 C.1   201  GDP201      0.2372
     23  O6        21.0740   74.2090   67.5620 O.2   201  GDP201     -0.2069
     24  N1        20.2730   74.1110   69.6600 N.2   201  GDP201     -0.2485
     25  C2        19.2000   74.2500   70.5430 C.1   201  GDP201      0.2531
     26  N2        19.4580   74.0210   71.8100 N.pl3 201  GDP201     -0.0226
     27  N3        17.9740   74.5410   70.1030 N.2   201  GDP201     -0.3074
     28  C4        17.8890   74.7810   68.8220 C.2   201  GDP201      0.2300
@<TRIPOS>BOND
     1     3     1    2
     2     2     1    1
     3     1     4    1
     4     1     5    1
     5     7     6    2
     6     5     6    1
     7     8     6    1
     8     6     9    1
     9     9    10    1
    10    10    11    1
    11    20    19    1
    12    20    21    2
    13    19    18    1
    14    23    22    2
    15    21    22    1
    16    21    28    1
    17    11    13    1
    18    11    12    1
    19    15    13    1
    20    15    17    1
    21    15    16    1
    22    18    17    1
    23    18    28    1
    24    13    14    1
    25    12    17    1
    26    22    24    2
    27    28    27    2
    28    24    25    2
    29    27    25    2
    30    25    26    1
