@<TRIPOS>MOLECULE
1cc4_PHB_A_1.pdb
 10 10 0 0 0
SMALL
GASTEIGER

@<TRIPOS>ATOM
      1  C1'       17.2550   96.8170   45.7360 C.2   396  PHB396      0.3878
      2  O1'       16.2300   97.3810   45.3030 O.co2 396  PHB396     -0.2406
      3  O2'       18.1650   97.4920   46.2640 O.co2 396  PHB396     -0.2406
      4  C1        17.3270   95.3830   45.7260 C.ar  396  PHB396      0.0800
      5  C2        16.2660   94.6080   45.2180 C.ar  396  PHB396      0.0099
      6  C3        16.2930   93.2070   45.2370 C.ar  396  PHB396      0.0422
      7  C4        17.4000   92.5400   45.7800 C.ar  396  PHB396      0.1958
      8  C5        18.4700   93.2780   46.2960 C.ar  396  PHB396      0.0422
      9  C6        18.4310   94.6770   46.2630 C.ar  396  PHB396      0.0099
     10  O4        17.4050   91.2300   45.7790 O.3   396  PHB396     -0.2866
@<TRIPOS>BOND
     1     5     6   ar
     2     5     4   ar
     3     6     7   ar
     4     2     1   ar
     5     4     1    1
     6     4     9   ar
     7     1     3   ar
     8    10     7    1
     9     7     8   ar
    10     9     8   ar
