@<TRIPOS>MOLECULE
1cc5_HEM_A_1.pdb
 43 50 0 0 0
SMALL
GASTEIGER

@<TRIPOS>ATOM
      1 FE        -13.8390   -4.6560   14.3250 Fe      1  HEM1        0.0000
      2  CHA      -16.6570   -4.4400   16.3280 C.2     1  HEM1        0.0000
      3  CHB      -15.3500   -2.4610   12.1800 C.2     1  HEM1        0.0000
      4  CHC      -11.4430   -5.1740   12.2720 C.2     1  HEM1        0.0000
      5  CHD      -12.2260   -6.4290   16.7580 C.2     1  HEM1        0.0000
      6  NA       -15.6280   -3.6600   14.2940 N.ar    1  HEM1        0.0000
      7  C1A      -16.6810   -3.7220   15.1870 C.ar    1  HEM1        0.0000
      8  C2A      -17.7840   -2.9100   14.7350 C.ar    1  HEM1        0.0000
      9  C3A      -17.4240   -2.3670   13.5840 C.ar    1  HEM1        0.0000
     10  C4A      -16.0720   -2.8010   13.3020 C.ar    1  HEM1        0.0000
     11  CMA      -18.2070   -1.4490   12.7580 C.3     1  HEM1        0.0000
     12  CAA      -19.0790   -2.7280   15.4720 C.3     1  HEM1        0.0000
     13  CBA      -18.8310   -1.5700   16.4330 C.3     1  HEM1        0.0000
     14  CGA      -20.1490   -1.0560   17.0410 C.2     1  HEM1        0.0000
     15  O1A      -20.8900   -1.8300   17.6420 O.co2   1  HEM1        0.0000
     16  O2A      -20.3740    0.1290   16.8300 O.co2   1  HEM1        0.0000
     17  NB       -13.5030   -3.9520   12.5050 N.2     1  HEM1        0.0000
     18  C1B      -14.1750   -3.0120   11.8140 C.2     1  HEM1        0.0000
     19  C2B      -13.4420   -2.7000   10.6000 C.2     1  HEM1        0.0000
     20  C3B      -12.2980   -3.4730   10.5970 C.2     1  HEM1        0.0000
     21  C4B      -12.3860   -4.2730   11.8400 C.2     1  HEM1        0.0000
     22  CMB      -13.8740   -1.7070    9.5540 C.3     1  HEM1        0.0000
     23  CAB      -11.1700   -3.5320    9.4790 C.3     1  HEM1        0.0000
     24  CBB      -10.6240   -2.1380    9.1430 C.3     1  HEM1        0.0000
     25  NC       -12.1380   -5.6440   14.5370 N.ar    1  HEM1        0.0000
     26  C1C      -11.2580   -5.6540   13.5360 C.ar    1  HEM1        0.0000
     27  C2C      -10.0510   -6.3130   13.9840 C.ar    1  HEM1        0.0000
     28  C3C      -10.2320   -6.6530   15.2810 C.ar    1  HEM1        0.0000
     29  C4C      -11.5910   -6.2620   15.6070 C.ar    1  HEM1        0.0000
     30  CMC       -8.7640   -6.5730   13.1710 C.3     1  HEM1        0.0000
     31  CAC       -9.1930   -7.4290   16.2170 C.3     1  HEM1        0.0000
     32  CBC       -7.9220   -6.7390   16.6960 C.3     1  HEM1        0.0000
     33  ND       -14.3570   -5.2950   16.1260 N.2     1  HEM1        0.0000
     34  C1D      -13.5350   -6.0320   16.9160 C.2     1  HEM1        0.0000
     35  C2D      -14.2010   -6.3440   18.1000 C.2     1  HEM1        0.0000
     36  C3D      -15.4550   -5.8160   18.0260 C.2     1  HEM1        0.0000
     37  C4D      -15.5690   -5.1280   16.7900 C.2     1  HEM1        0.0000
     38  CMD      -13.5500   -7.1690   19.2240 C.3     1  HEM1        0.0000
     39  CAD      -16.4670   -5.8990   19.1000 C.3     1  HEM1        0.0000
     40  CBD      -16.0230   -4.8470   20.1240 C.3     1  HEM1        0.0000
     41  CGD      -17.2280   -4.5610   21.0030 C.2     1  HEM1        0.0000
     42  O1D      -17.1470   -4.7830   22.2470 O.co2   1  HEM1        0.0000
     43  O2D      -18.1790   -4.1730   20.2860 O.co2   1  HEM1        0.0000
@<TRIPOS>BOND
     1    24    23    1
     2    23    20    1
     3    22    19    1
     4    20    19    2
     5    20    21    1
     6    19    18    1
     7    18     3    1
     8    18    17    2
     9    21     4    2
    10    21    17    1
    11     3    10    2
    12     4    26    1
    13    17     1    1
    14    11     9    1
    15    30    27    1
    16    10     9   ar
    17    10     6   ar
    18    26    27   ar
    19    26    25   ar
    20     9     8   ar
    21    27    28   ar
    22     6     1    1
    23     6     7   ar
    24     1    25    1
    25     1    33    1
    26    25    29   ar
    27     8     7   ar
    28     8    12    1
    29     7     2    2
    30    28    29   ar
    31    28    31    1
    32    12    13    1
    33    29     5    1
    34    33    37    2
    35    33    34    1
    36    31    32    1
    37     2    37    1
    38    13    14    1
    39     5    34    2
    40    37    36    1
    41    16    14   ar
    42    34    35    1
    43    14    15   ar
    44    36    35    2
    45    36    39    1
    46    35    38    1
    47    39    40    1
    48    40    41    1
    49    43    41   ar
    50    41    42   ar
