@<TRIPOS>MOLECULE
1cc6_PHB_A_1.pdb
 10 10 0 0 0
SMALL
GASTEIGER

@<TRIPOS>ATOM
      1  C1'       17.1710   97.0600   45.9260 C.2   396  PHB396      0.3878
      2  O1'       16.1300   97.6290   45.5410 O.co2 396  PHB396     -0.2406
      3  O2'       18.1380   97.7190   46.3540 O.co2 396  PHB396     -0.2406
      4  C1        17.2500   95.6430   45.9300 C.ar  396  PHB396      0.0800
      5  C2        16.1970   94.8650   45.4060 C.ar  396  PHB396      0.0099
      6  C3        16.2550   93.4680   45.3880 C.ar  396  PHB396      0.0422
      7  C4        17.3750   92.8120   45.8950 C.ar  396  PHB396      0.1958
      8  C5        18.4300   93.5590   46.4260 C.ar  396  PHB396      0.0422
      9  C6        18.3720   94.9500   46.4440 C.ar  396  PHB396      0.0099
     10  O4        17.4420   91.5090   45.8530 O.3   396  PHB396     -0.2866
@<TRIPOS>BOND
     1     6     5   ar
     2     6     7   ar
     3     5     4   ar
     4     2     1   ar
     5    10     7    1
     6     7     8   ar
     7     1     4    1
     8     1     3   ar
     9     4     9   ar
    10     8     9   ar
