@<TRIPOS>MOLECULE
1cca_HEM_A_1.pdb
 43 50 0 0 0
SMALL
GASTEIGER

@<TRIPOS>ATOM
      1 FE         -5.7920   57.0060  111.6590 Fe    295  HEM295      0.0000
      2  CHA       -5.3500   53.9440  113.0230 C.2   295  HEM295      0.0000
      3  CHB       -7.5140   58.0180  114.3960 C.2   295  HEM295      0.0000
      4  CHC       -5.9270   60.1430  110.4420 C.2   295  HEM295      0.0000
      5  CHD       -3.5040   56.1910  109.2400 C.2   295  HEM295      0.0000
      6  NA        -6.4250   56.1090  113.3880 N.2   295  HEM295      0.0000
      7  C1A       -6.1340   54.8540  113.7720 C.2   295  HEM295      0.0000
      8  C2A       -6.6940   54.5890  115.0070 C.2   295  HEM295      0.0000
      9  C3A       -7.3380   55.7670  115.4080 C.2   295  HEM295      0.0000
     10  C4A       -7.1000   56.6770  114.3970 C.2   295  HEM295      0.0000
     11  CMA       -8.1370   56.0060  116.6750 C.3   295  HEM295      0.0000
     12  CAA       -6.6040   53.2640  115.7610 C.3   295  HEM295      0.0000
     13  CBA       -5.3760   53.0920  116.6200 C.3   295  HEM295      0.0000
     14  CGA       -5.2950   51.7180  117.3000 C.2   295  HEM295      0.0000
     15  O1A       -6.1350   51.3600  118.1230 O.co2 295  HEM295      0.0000
     16  O2A       -4.3690   50.9550  117.0450 O.co2 295  HEM295      0.0000
     17  NB        -6.7240   58.7680  112.2440 N.ar  295  HEM295      0.0000
     18  C1B       -7.3630   58.9860  113.3870 C.ar  295  HEM295      0.0000
     19  C2B       -7.8980   60.2780  113.4250 C.ar  295  HEM295      0.0000
     20  C3B       -7.4690   60.8790  112.2460 C.ar  295  HEM295      0.0000
     21  C4B       -6.6760   59.9290  111.6000 C.ar  295  HEM295      0.0000
     22  CMB       -8.8350   60.7660  114.5160 C.3   295  HEM295      0.0000
     23  CAB       -7.7680   62.1260  111.6850 C.3   295  HEM295      0.0000
     24  CBB       -8.7630   63.0640  112.1490 C.3   295  HEM295      0.0000
     25  NC        -4.8680   57.9950  110.1030 N.2   295  HEM295      0.0000
     26  C1C       -5.0560   59.2780  109.7560 C.2   295  HEM295      0.0000
     27  C2C       -4.2540   59.6570  108.6820 C.2   295  HEM295      0.0000
     28  C3C       -3.5110   58.5120  108.3760 C.2   295  HEM295      0.0000
     29  C4C       -3.9500   57.5230  109.2510 C.2   295  HEM295      0.0000
     30  CMC       -4.1460   61.0740  108.0980 C.3   295  HEM295      0.0000
     31  CAC       -2.5500   58.2700  107.3870 C.3   295  HEM295      0.0000
     32  CBC       -2.2580   59.0430  106.1990 C.3   295  HEM295      0.0000
     33  ND        -4.5890   55.3490  111.2090 N.ar  295  HEM295      0.0000
     34  C1D       -3.8520   55.1660  110.1120 C.ar  295  HEM295      0.0000
     35  C2D       -3.5500   53.8260  109.9220 C.ar  295  HEM295      0.0000
     36  C3D       -4.0610   53.1690  111.0340 C.ar  295  HEM295      0.0000
     37  C4D       -4.6780   54.1530  111.8090 C.ar  295  HEM295      0.0000
     38  CMD       -2.9070   53.1940  108.7020 C.3   295  HEM295      0.0000
     39  CAD       -4.0050   51.6590  111.3110 C.3   295  HEM295      0.0000
     40  CBD       -2.8370   51.2490  112.2210 C.3   295  HEM295      0.0000
     41  CGD       -2.8560   49.7990  112.6950 C.2   295  HEM295      0.0000
     42  O1D       -2.2170   49.5020  113.6870 O.co2 295  HEM295      0.0000
     43  O2D       -3.5060   48.9650  112.0790 O.co2 295  HEM295      0.0000
@<TRIPOS>BOND
     1    32    31    1
     2    31    28    1
     3    30    27    1
     4    28    27    2
     5    28    29    1
     6    27    26    1
     7    38    35    1
     8     5    29    1
     9     5    34    2
    10    29    25    2
    11    26    25    1
    12    26     4    2
    13    35    34   ar
    14    35    36   ar
    15    25     1    1
    16    34    33   ar
    17     4    21    1
    18    36    39    1
    19    36    37   ar
    20    33     1    1
    21    33    37   ar
    22    39    40    1
    23    21    17   ar
    24    21    20   ar
    25     1    17    1
    26     1     6    1
    27    23    24    1
    28    23    20    1
    29    37     2    2
    30    43    41   ar
    31    40    41    1
    32    17    18   ar
    33    20    19   ar
    34    41    42   ar
    35     2     7    1
    36    18    19   ar
    37    18     3    1
    38     6     7    2
    39     6    10    1
    40    19    22    1
    41     7     8    1
    42     3    10    2
    43    10     9    1
    44     8     9    2
    45     8    12    1
    46     9    11    1
    47    12    13    1
    48    13    14    1
    49    16    14   ar
    50    14    15   ar
