@<TRIPOS>MOLECULE
1ccb_HEM_A_1.pdb
 43 50 0 0 0
SMALL
GASTEIGER

@<TRIPOS>ATOM
      1 FE         -5.6850   57.0270  111.6290 Fe    295  HEM295      0.0000
      2  CHA       -5.3650   53.9470  112.8800 C.2   295  HEM295      0.0000
      3  CHB       -7.4720   57.9800  114.3730 C.2   295  HEM295      0.0000
      4  CHC       -5.9560   60.0920  110.3870 C.2   295  HEM295      0.0000
      5  CHD       -3.4860   56.1980  109.1280 C.2   295  HEM295      0.0000
      6  NA        -6.3110   56.1370  113.3630 N.2   295  HEM295      0.0000
      7  C1A       -6.0740   54.8600  113.6860 C.2   295  HEM295      0.0000
      8  C2A       -6.6190   54.5620  114.9130 C.2   295  HEM295      0.0000
      9  C3A       -7.2670   55.7260  115.3370 C.2   295  HEM295      0.0000
     10  C4A       -7.0160   56.6610  114.3560 C.2   295  HEM295      0.0000
     11  CMA       -8.1210   55.9530  116.5750 C.3   295  HEM295      0.0000
     12  CAA       -6.5720   53.1970  115.5700 C.3   295  HEM295      0.0000
     13  CBA       -5.3860   52.9790  116.4670 C.3   295  HEM295      0.0000
     14  CGA       -5.3800   51.6330  117.1810 C.2   295  HEM295      0.0000
     15  O1A       -6.3020   51.3400  117.9380 O.co2 295  HEM295      0.0000
     16  O2A       -4.4380   50.8590  117.0260 O.co2 295  HEM295      0.0000
     17  NB        -6.6190   58.7570  112.2630 N.ar  295  HEM295      0.0000
     18  C1B       -7.3320   58.9510  113.3740 C.ar  295  HEM295      0.0000
     19  C2B       -7.9760   60.1900  113.3620 C.ar  295  HEM295      0.0000
     20  C3B       -7.5110   60.8040  112.1940 C.ar  295  HEM295      0.0000
     21  C4B       -6.6700   59.8790  111.5710 C.ar  295  HEM295      0.0000
     22  CMB       -9.0090   60.6630  114.3850 C.3   295  HEM295      0.0000
     23  CAB       -7.7880   62.0600  111.6480 C.3   295  HEM295      0.0000
     24  CBB       -8.8050   62.9980  112.0360 C.3   295  HEM295      0.0000
     25  NC        -4.7910   58.0180  110.0680 N.2   295  HEM295      0.0000
     26  C1C       -5.0590   59.2770  109.6990 C.2   295  HEM295      0.0000
     27  C2C       -4.3190   59.6730  108.5910 C.2   295  HEM295      0.0000
     28  C3C       -3.5010   58.5520  108.3250 C.2   295  HEM295      0.0000
     29  C4C       -3.9150   57.5420  109.1850 C.2   295  HEM295      0.0000
     30  CMC       -4.3830   61.0740  107.9240 C.3   295  HEM295      0.0000
     31  CAC       -2.4840   58.3400  107.3930 C.3   295  HEM295      0.0000
     32  CBC       -2.1020   59.2100  106.2800 C.3   295  HEM295      0.0000
     33  ND        -4.6290   55.3350  111.0470 N.ar  295  HEM295      0.0000
     34  C1D       -3.8610   55.1550  109.9620 C.ar  295  HEM295      0.0000
     35  C2D       -3.5830   53.8140  109.7630 C.ar  295  HEM295      0.0000
     36  C3D       -4.1200   53.1640  110.8640 C.ar  295  HEM295      0.0000
     37  C4D       -4.7290   54.1450  111.6410 C.ar  295  HEM295      0.0000
     38  CMD       -3.0140   53.1220  108.5470 C.3   295  HEM295      0.0000
     39  CAD       -4.0500   51.6610  111.1350 C.3   295  HEM295      0.0000
     40  CBD       -2.9430   51.3590  112.1100 C.3   295  HEM295      0.0000
     41  CGD       -2.8490   49.9370  112.6130 C.2   295  HEM295      0.0000
     42  O1D       -2.1760   49.7320  113.6010 O.co2 295  HEM295      0.0000
     43  O2D       -3.4150   49.0120  112.0540 O.co2 295  HEM295      0.0000
@<TRIPOS>BOND
     1    32    31    1
     2    31    28    1
     3    30    27    1
     4    28    27    2
     5    28    29    1
     6    38    35    1
     7    27    26    1
     8     5    29    1
     9     5    34    2
    10    29    25    2
    11    26    25    1
    12    26     4    2
    13    35    34   ar
    14    35    36   ar
    15    34    33   ar
    16    25     1    1
    17     4    21    1
    18    36    39    1
    19    36    37   ar
    20    33     1    1
    21    33    37   ar
    22    39    40    1
    23    21    20   ar
    24    21    17   ar
    25     1    17    1
    26     1     6    1
    27    37     2    2
    28    23    24    1
    29    23    20    1
    30    43    41   ar
    31    40    41    1
    32    20    19   ar
    33    17    18   ar
    34    41    42   ar
    35     2     7    1
    36    19    18   ar
    37    19    22    1
    38     6     7    2
    39     6    10    1
    40    18     3    1
    41     7     8    1
    42    10     3    2
    43    10     9    1
    44     8     9    2
    45     8    12    1
    46     9    11    1
    47    12    13    1
    48    13    14    1
    49    16    14   ar
    50    14    15   ar
