@<TRIPOS>MOLECULE
1ccc_HEM_A_1.pdb
 43 50 0 0 0
SMALL
GASTEIGER

@<TRIPOS>ATOM
      1 FE         -5.7640   57.0060  111.7260 Fe    295  HEM295      0.0000
      2  CHA       -5.5510   53.8920  112.9570 C.2   295  HEM295      0.0000
      3  CHB       -7.5820   57.9950  114.4790 C.2   295  HEM295      0.0000
      4  CHC       -6.0510   60.0510  110.4550 C.2   295  HEM295      0.0000
      5  CHD       -3.6060   56.1430  109.2360 C.2   295  HEM295      0.0000
      6  NA        -6.5050   56.1020  113.4160 N.2   295  HEM295      0.0000
      7  C1A       -6.2560   54.8180  113.7410 C.2   295  HEM295      0.0000
      8  C2A       -6.7470   54.5220  114.9780 C.2   295  HEM295      0.0000
      9  C3A       -7.3710   55.7000  115.4280 C.2   295  HEM295      0.0000
     10  C4A       -7.1640   56.6510  114.4420 C.2   295  HEM295      0.0000
     11  CMA       -8.0860   55.9560  116.7620 C.3   295  HEM295      0.0000
     12  CAA       -6.5530   53.1570  115.6320 C.3   295  HEM295      0.0000
     13  CBA       -5.4760   53.0720  116.6810 C.3   295  HEM295      0.0000
     14  CGA       -5.3380   51.6760  117.3000 C.2   295  HEM295      0.0000
     15  O1A       -6.1840   51.2440  118.0710 O.co2 295  HEM295      0.0000
     16  O2A       -4.3740   50.9630  117.0690 O.co2 295  HEM295      0.0000
     17  NB        -6.7910   58.7030  112.3050 N.ar  295  HEM295      0.0000
     18  C1B       -7.4390   58.9470  113.4450 C.ar  295  HEM295      0.0000
     19  C2B       -8.0090   60.2310  113.4310 C.ar  295  HEM295      0.0000
     20  C3B       -7.6080   60.7900  112.2160 C.ar  295  HEM295      0.0000
     21  C4B       -6.7910   59.8330  111.6150 C.ar  295  HEM295      0.0000
     22  CMB       -8.9550   60.7660  114.4920 C.3   295  HEM295      0.0000
     23  CAB       -7.8730   62.0190  111.5920 C.3   295  HEM295      0.0000
     24  CBB       -8.6960   63.0970  112.0340 C.3   295  HEM295      0.0000
     25  NC        -4.9820   57.9150  110.0760 N.2   295  HEM295      0.0000
     26  C1C       -5.1740   59.2140  109.7610 C.2   295  HEM295      0.0000
     27  C2C       -4.3910   59.6210  108.6810 C.2   295  HEM295      0.0000
     28  C3C       -3.5860   58.5030  108.4160 C.2   295  HEM295      0.0000
     29  C4C       -4.0370   57.4710  109.2540 C.2   295  HEM295      0.0000
     30  CMC       -4.4110   61.0180  108.0220 C.3   295  HEM295      0.0000
     31  CAC       -2.5830   58.3210  107.4610 C.3   295  HEM295      0.0000
     32  CBC       -2.3800   59.0680  106.2260 C.3   295  HEM295      0.0000
     33  ND        -4.6790   55.3000  111.2150 N.ar  295  HEM295      0.0000
     34  C1D       -3.9690   55.1120  110.1000 C.ar  295  HEM295      0.0000
     35  C2D       -3.7070   53.7690  109.8920 C.ar  295  HEM295      0.0000
     36  C3D       -4.2840   53.1100  110.9690 C.ar  295  HEM295      0.0000
     37  C4D       -4.8590   54.1030  111.7610 C.ar  295  HEM295      0.0000
     38  CMD       -2.9510   53.1190  108.7560 C.3   295  HEM295      0.0000
     39  CAD       -4.2390   51.6020  111.2510 C.3   295  HEM295      0.0000
     40  CBD       -3.0220   51.1890  112.0880 C.3   295  HEM295      0.0000
     41  CGD       -3.0170   49.7360  112.5300 C.2   295  HEM295      0.0000
     42  O1D       -2.5210   49.4110  113.5910 O.co2 295  HEM295      0.0000
     43  O2D       -3.5250   48.9030  111.7990 O.co2 295  HEM295      0.0000
@<TRIPOS>BOND
     1    32    31    1
     2    31    28    1
     3    30    27    1
     4    28    27    2
     5    28    29    1
     6    27    26    1
     7    38    35    1
     8     5    29    1
     9     5    34    2
    10    29    25    2
    11    26    25    1
    12    26     4    2
    13    35    34   ar
    14    35    36   ar
    15    25     1    1
    16    34    33   ar
    17     4    21    1
    18    36    39    1
    19    36    37   ar
    20    33     1    1
    21    33    37   ar
    22    39    40    1
    23    23    24    1
    24    23    20    1
    25    21    20   ar
    26    21    17   ar
    27     1    17    1
    28     1     6    1
    29    37     2    2
    30    43    41   ar
    31    40    41    1
    32    20    19   ar
    33    17    18   ar
    34    41    42   ar
    35     2     7    1
    36     6     7    2
    37     6    10    1
    38    19    18   ar
    39    19    22    1
    40    18     3    1
    41     7     8    1
    42    10     3    2
    43    10     9    1
    44     8     9    2
    45     8    12    1
    46     9    11    1
    47    12    13    1
    48    13    14    1
    49    16    14   ar
    50    14    15   ar
