@<TRIPOS>MOLECULE
1cce_HEM_A_1.pdb
 43 50 0 0 0
SMALL
GASTEIGER

@<TRIPOS>ATOM
      1 FE         -5.7190   56.7340  111.9410 Fe      1  HEM1        0.0000
      2  CHA       -5.4800   53.6200  113.1480 C.2     1  HEM1        0.0000
      3  CHB       -7.5710   57.6630  114.6500 C.2     1  HEM1        0.0000
      4  CHC       -6.2120   59.7740  110.5800 C.2     1  HEM1        0.0000
      5  CHD       -3.7590   55.8640  109.3830 C.2     1  HEM1        0.0000
      6  NA        -6.4480   55.8030  113.6200 N.2     1  HEM1        0.0000
      7  C1A       -6.2010   54.5290  113.9400 C.2     1  HEM1        0.0000
      8  C2A       -6.7170   54.2120  115.1820 C.2     1  HEM1        0.0000
      9  C3A       -7.3920   55.3770  115.6140 C.2     1  HEM1        0.0000
     10  C4A       -7.1380   56.3320  114.6310 C.2     1  HEM1        0.0000
     11  CMA       -8.2830   55.5620  116.8350 C.3     1  HEM1        0.0000
     12  CAA       -6.5840   52.8260  115.8000 C.3     1  HEM1        0.0000
     13  CBA       -5.5210   52.7150  116.8710 C.3     1  HEM1        0.0000
     14  CGA       -5.3780   51.3630  117.5700 C.2     1  HEM1        0.0000
     15  O1A       -6.2170   50.9890  118.3810 O.co2   1  HEM1        0.0000
     16  O2A       -4.4030   50.6460  117.3620 O.co2   1  HEM1        0.0000
     17  NB        -6.8160   58.4050  112.4820 N.ar    1  HEM1        0.0000
     18  C1B       -7.4700   58.6180  113.6240 C.ar    1  HEM1        0.0000
     19  C2B       -8.1240   59.8620  113.6250 C.ar    1  HEM1        0.0000
     20  C3B       -7.7630   60.4570  112.4090 C.ar    1  HEM1        0.0000
     21  C4B       -6.9110   59.5380  111.7760 C.ar    1  HEM1        0.0000
     22  CMB       -9.1090   60.3370  114.7010 C.3     1  HEM1        0.0000
     23  CAB       -8.1110   61.6900  111.8390 C.3     1  HEM1        0.0000
     24  CBB       -8.9710   62.7360  112.3660 C.3     1  HEM1        0.0000
     25  NC        -5.0330   57.6980  110.2930 N.2     1  HEM1        0.0000
     26  C1C       -5.3030   58.9540  109.9100 C.2     1  HEM1        0.0000
     27  C2C       -4.5400   59.3250  108.8050 C.2     1  HEM1        0.0000
     28  C3C       -3.7940   58.1700  108.4840 C.2     1  HEM1        0.0000
     29  C4C       -4.1960   57.1990  109.3990 C.2     1  HEM1        0.0000
     30  CMC       -4.5190   60.7090  108.1760 C.3     1  HEM1        0.0000
     31  CAC       -2.8420   57.8790  107.4910 C.3     1  HEM1        0.0000
     32  CBC       -2.3740   58.6850  106.3810 C.3     1  HEM1        0.0000
     33  ND        -4.5820   55.0570  111.4450 N.ar    1  HEM1        0.0000
     34  C1D       -3.9770   54.8420  110.2840 C.ar    1  HEM1        0.0000
     35  C2D       -3.6400   53.5090  110.0860 C.ar    1  HEM1        0.0000
     36  C3D       -4.1640   52.8550  111.1740 C.ar    1  HEM1        0.0000
     37  C4D       -4.7550   53.8410  111.9630 C.ar    1  HEM1        0.0000
     38  CMD       -2.8880   52.8270  108.9480 C.3     1  HEM1        0.0000
     39  CAD       -4.0930   51.3520  111.4000 C.3     1  HEM1        0.0000
     40  CBD       -3.1760   51.0460  112.5550 C.3     1  HEM1        0.0000
     41  CGD       -2.9820   49.5990  112.9030 C.2     1  HEM1        0.0000
     42  O1D       -2.3600   49.3360  113.9300 O.co2   1  HEM1        0.0000
     43  O2D       -3.4450   48.7270  112.1820 O.co2   1  HEM1        0.0000
@<TRIPOS>BOND
     1    32    31    1
     2    31    28    1
     3    30    27    1
     4    28    27    2
     5    28    29    1
     6    27    26    1
     7    38    35    1
     8     5    29    1
     9     5    34    2
    10    29    25    2
    11    26    25    1
    12    26     4    2
    13    35    34   ar
    14    35    36   ar
    15    34    33   ar
    16    25     1    1
    17     4    21    1
    18    36    39    1
    19    36    37   ar
    20    39    40    1
    21    33     1    1
    22    33    37   ar
    23    21    20   ar
    24    21    17   ar
    25    23    24    1
    26    23    20    1
    27     1    17    1
    28     1     6    1
    29    37     2    2
    30    43    41   ar
    31    20    19   ar
    32    17    18   ar
    33    40    41    1
    34    41    42   ar
    35     2     7    1
    36     6     7    2
    37     6    10    1
    38    18    19   ar
    39    18     3    1
    40    19    22    1
    41     7     8    1
    42    10     3    2
    43    10     9    1
    44     8     9    2
    45     8    12    1
    46     9    11    1
    47    12    13    1
    48    13    14    1
    49    16    14   ar
    50    14    15   ar
