@<TRIPOS>MOLECULE
1ccg_HEM_A_1.pdb
 43 50 0 0 0
SMALL
GASTEIGER

@<TRIPOS>ATOM
      1 FE         -5.8570   56.9370  111.6030 Fe      1  HEM1        0.0000
      2  CHA       -5.5060   53.9230  112.9300 C.2     1  HEM1        0.0000
      3  CHB       -7.5620   57.9720  114.3780 C.2     1  HEM1        0.0000
      4  CHC       -5.9260   60.1260  110.4720 C.2     1  HEM1        0.0000
      5  CHD       -3.6540   56.1140  109.1640 C.2     1  HEM1        0.0000
      6  NA        -6.4620   56.1000  113.3590 N.2     1  HEM1        0.0000
      7  C1A       -6.2280   54.8270  113.6980 C.2     1  HEM1        0.0000
      8  C2A       -6.7580   54.5320  114.9420 C.2     1  HEM1        0.0000
      9  C3A       -7.3950   55.7150  115.3740 C.2     1  HEM1        0.0000
     10  C4A       -7.1470   56.6420  114.3690 C.2     1  HEM1        0.0000
     11  CMA       -8.2300   55.9220  116.6450 C.3     1  HEM1        0.0000
     12  CAA       -6.6260   53.1730  115.6410 C.3     1  HEM1        0.0000
     13  CBA       -5.4720   53.0120  116.5840 C.3     1  HEM1        0.0000
     14  CGA       -5.3940   51.6170  117.2240 C.2     1  HEM1        0.0000
     15  O1A       -6.2460   51.2600  118.0400 O.co2   1  HEM1        0.0000
     16  O2A       -4.4750   50.8470  116.9420 O.co2   1  HEM1        0.0000
     17  NB        -6.7010   58.7110  112.2550 N.ar    1  HEM1        0.0000
     18  C1B       -7.3810   58.9320  113.3760 C.ar    1  HEM1        0.0000
     19  C2B       -7.9410   60.2110  113.4110 C.ar    1  HEM1        0.0000
     20  C3B       -7.5220   60.8120  112.2320 C.ar    1  HEM1        0.0000
     21  C4B       -6.6850   59.8790  111.6120 C.ar    1  HEM1        0.0000
     22  CMB       -8.9190   60.6780  114.4850 C.3     1  HEM1        0.0000
     23  CAB       -7.8260   62.0550  111.6510 C.3     1  HEM1        0.0000
     24  CBB       -8.7430   63.0640  112.1100 C.3     1  HEM1        0.0000
     25  NC        -4.9210   57.9550  110.1040 N.2     1  HEM1        0.0000
     26  C1C       -5.0810   59.2530  109.7750 C.2     1  HEM1        0.0000
     27  C2C       -4.2980   59.6220  108.6830 C.2     1  HEM1        0.0000
     28  C3C       -3.5890   58.4460  108.3660 C.2     1  HEM1        0.0000
     29  C4C       -4.0470   57.4620  109.2290 C.2     1  HEM1        0.0000
     30  CMC       -4.1880   61.0470  108.0810 C.3     1  HEM1        0.0000
     31  CAC       -2.6350   58.1520  107.3780 C.3     1  HEM1        0.0000
     32  CBC       -2.2720   58.9240  106.2280 C.3     1  HEM1        0.0000
     33  ND        -4.7230   55.2740  111.1160 N.ar    1  HEM1        0.0000
     34  C1D       -4.0000   55.0820  110.0140 C.ar    1  HEM1        0.0000
     35  C2D       -3.6740   53.7530  109.8340 C.ar    1  HEM1        0.0000
     36  C3D       -4.2080   53.1230  110.9640 C.ar    1  HEM1        0.0000
     37  C4D       -4.8300   54.1090  111.7150 C.ar    1  HEM1        0.0000
     38  CMD       -3.0200   53.0990  108.6130 C.3     1  HEM1        0.0000
     39  CAD       -4.1900   51.6300  111.2700 C.3     1  HEM1        0.0000
     40  CBD       -3.0160   51.2290  112.1450 C.3     1  HEM1        0.0000
     41  CGD       -3.0080   49.7900  112.6010 C.2     1  HEM1        0.0000
     42  O1D       -2.4430   49.5280  113.6570 O.co2   1  HEM1        0.0000
     43  O2D       -3.5470   48.9220  111.9180 O.co2   1  HEM1        0.0000
@<TRIPOS>BOND
     1    32    31    1
     2    31    28    1
     3    30    27    1
     4    28    27    2
     5    28    29    1
     6    38    35    1
     7    27    26    1
     8     5    29    1
     9     5    34    2
    10    29    25    2
    11    26    25    1
    12    26     4    2
    13    35    34   ar
    14    35    36   ar
    15    34    33   ar
    16    25     1    1
    17     4    21    1
    18    36    39    1
    19    36    37   ar
    20    33     1    1
    21    33    37   ar
    22    39    40    1
    23     1    17    1
    24     1     6    1
    25    21    20   ar
    26    21    17   ar
    27    23    24    1
    28    23    20    1
    29    37     2    2
    30    43    41   ar
    31    40    41    1
    32    20    19   ar
    33    17    18   ar
    34    41    42   ar
    35     2     7    1
    36     6     7    2
    37     6    10    1
    38    18    19   ar
    39    18     3    1
    40    19    22    1
    41     7     8    1
    42    10     3    2
    43    10     9    1
    44     8     9    2
    45     8    12    1
    46     9    11    1
    47    12    13    1
    48    13    14    1
    49    16    14   ar
    50    14    15   ar
