@<TRIPOS>MOLECULE
1cch_HEM_A_1.pdb
 43 50 0 0 0
SMALL
GASTEIGER

@<TRIPOS>ATOM
      1 FE          2.7060   -3.6010   -2.4550 Fe     83  HEM83       0.0000
      2  CHA        3.3350   -1.1510   -4.7010 C.2    83  HEM83       0.0000
      3  CHB       -0.1070   -1.9870   -1.4760 C.2    83  HEM83       0.0000
      4  CHC        2.0920   -6.0390   -0.1870 C.2    83  HEM83       0.0000
      5  CHD        5.5360   -5.2000   -3.4030 C.2    83  HEM83       0.0000
      6  NA         1.7960   -1.9190   -2.9850 N.2    83  HEM83       0.0000
      7  C1A        2.1960   -1.0190   -3.9340 C.2    83  HEM83       0.0000
      8  C2A        1.3110    0.0390   -4.0120 C.2    83  HEM83       0.0000
      9  C3A        0.3250   -0.1990   -3.0900 C.2    83  HEM83       0.0000
     10  C4A        0.6370   -1.3960   -2.4750 C.2    83  HEM83       0.0000
     11  CMA       -0.8800    0.6860   -2.7960 C.3    83  HEM83       0.0000
     12  CAA        1.4200    1.2350   -4.9420 C.3    83  HEM83       0.0000
     13  CBA        1.0700    0.8080   -6.3690 C.3    83  HEM83       0.0000
     14  CGA        1.1820    2.0130   -7.3040 C.2    83  HEM83       0.0000
     15  O1A        0.9450    1.8870   -8.4890 O.co2  83  HEM83       0.0000
     16  O2A        1.5060    3.0970   -6.8610 O.co2  83  HEM83       0.0000
     17  NB         1.2820   -3.9450   -1.1110 N.ar   83  HEM83       0.0000
     18  C1B        0.1850   -3.1720   -0.8370 C.ar   83  HEM83       0.0000
     19  C2B       -0.5810   -3.7410    0.1650 C.ar   83  HEM83       0.0000
     20  C3B        0.0480   -4.9010    0.5340 C.ar   83  HEM83       0.0000
     21  C4B        1.1810   -5.0080   -0.2530 C.ar   83  HEM83       0.0000
     22  CMB       -1.8740   -3.1830    0.7460 C.3    83  HEM83       0.0000
     23  CAB       -0.4110   -5.8830    1.6040 C.3    83  HEM83       0.0000
     24  CBB       -1.7190   -6.5260    1.1360 C.3    83  HEM83       0.0000
     25  NC         3.6210   -5.2780   -1.9110 N.2    83  HEM83       0.0000
     26  C1C        3.2270   -6.1720   -0.9530 C.2    83  HEM83       0.0000
     27  C2C        4.1250   -7.2160   -0.8530 C.2    83  HEM83       0.0000
     28  C3C        5.1160   -6.9750   -1.7690 C.2    83  HEM83       0.0000
     29  C4C        4.7890   -5.7920   -2.4070 C.2    83  HEM83       0.0000
     30  CMC        4.0360   -8.4030    0.0970 C.3    83  HEM83       0.0000
     31  CAC        6.3420   -7.8400   -2.0340 C.3    83  HEM83       0.0000
     32  CBC        5.8710   -9.1720   -2.6200 C.3    83  HEM83       0.0000
     33  ND         4.1370   -3.2520   -3.7870 N.ar   83  HEM83       0.0000
     34  C1D        5.2400   -4.0200   -4.0510 C.ar   83  HEM83       0.0000
     35  C2D        6.0120   -3.4480   -5.0460 C.ar   83  HEM83       0.0000
     36  C3D        5.3820   -2.2890   -5.4180 C.ar   83  HEM83       0.0000
     37  C4D        4.2430   -2.1860   -4.6390 C.ar   83  HEM83       0.0000
     38  CMD        7.3130   -3.9980   -5.6150 C.3    83  HEM83       0.0000
     39  CAD        5.8490   -1.3020   -6.4800 C.3    83  HEM83       0.0000
     40  CBD        5.3160   -1.7360   -7.8480 C.3    83  HEM83       0.0000
     41  CGD        5.7820   -0.7430   -8.9150 C.2    83  HEM83       0.0000
     42  O1D        5.4670    0.4270   -8.8350 O.co2  83  HEM83       0.0000
     43  O2D        6.4670   -1.1260   -9.8430 O.co2  83  HEM83       0.0000
@<TRIPOS>BOND
     1    43    41   ar
     2    41    42   ar
     3    41    40    1
     4    15    14   ar
     5    40    39    1
     6    14    16   ar
     7    14    13    1
     8    39    36    1
     9    13    12    1
    10    38    35    1
    11    36    35   ar
    12    36    37   ar
    13    35    34   ar
    14    12     8    1
    15     2    37    2
    16     2     7    1
    17    37    33   ar
    18    34    33   ar
    19    34     5    2
    20     8     7    1
    21     8     9    2
    22     7     6    2
    23    33     1    1
    24     5    29    1
    25     9    11    1
    26     9    10    1
    27     6    10    1
    28     6     1    1
    29    32    31    1
    30    10     3    2
    31     1    25    1
    32     1    17    1
    33    29    25    2
    34    29    28    1
    35    31    28    1
    36    25    26    1
    37    28    27    2
    38     3    18    1
    39    17    18   ar
    40    17    21   ar
    41    26    27    1
    42    26     4    2
    43    27    30    1
    44    18    19   ar
    45    21     4    1
    46    21    20   ar
    47    19    20   ar
    48    19    22    1
    49    20    23    1
    50    24    23    1
