@<TRIPOS>MOLECULE
1cci_HEM_A_1.pdb
 43 50 0 0 0
SMALL
GASTEIGER

@<TRIPOS>ATOM
      1 FE         28.1770   94.0950   52.8220 Fe    500  HEM500      0.0000
      2  CHA       27.9860   96.0520   50.1090 C.2   500  HEM500      0.0000
      3  CHB       30.3880   96.1830   54.2410 C.2   500  HEM500      0.0000
      4  CHC       28.3500   92.0510   55.5520 C.2   500  HEM500      0.0000
      5  CHD       25.7660   92.0520   51.5120 C.2   500  HEM500      0.0000
      6  NA        29.2470   95.7150   52.1510 N.2   500  HEM500      0.0000
      7  C1A       28.9460   96.4340   51.0660 C.2   500  HEM500      0.0000
      8  C2A       29.6800   97.6130   51.0390 C.2   500  HEM500      0.0000
      9  C3A       30.4100   97.6360   52.2260 C.2   500  HEM500      0.0000
     10  C4A       30.0110   96.5040   52.9190 C.2   500  HEM500      0.0000
     11  CMA       31.4470   98.6650   52.6680 C.3   500  HEM500      0.0000
     12  CAA       29.6170   98.6920   49.9730 C.3   500  HEM500      0.0000
     13  CBA       28.5200   99.7410   50.2190 C.3   500  HEM500      0.0000
     14  CGA       28.4920  100.8580   49.1880 C.2   500  HEM500      0.0000
     15  O1A       29.4730  101.5670   49.0650 O.co2 500  HEM500      0.0000
     16  O2A       27.5080  101.0610   48.4720 O.co2 500  HEM500      0.0000
     17  NB        29.2390   94.0810   54.6040 N.ar  500  HEM500      0.0000
     18  C1B       30.1140   95.0150   54.9870 C.ar  500  HEM500      0.0000
     19  C2B       30.7710   94.6360   56.1570 C.ar  500  HEM500      0.0000
     20  C3B       30.2000   93.3850   56.5090 C.ar  500  HEM500      0.0000
     21  C4B       29.2200   93.1470   55.5610 C.ar  500  HEM500      0.0000
     22  CMB       31.9270   95.4280   56.7860 C.3   500  HEM500      0.0000
     23  CAB       30.5320   92.4580   57.4980 C.3   500  HEM500      0.0000
     24  CBB       31.7460   92.4200   58.3090 C.3   500  HEM500      0.0000
     25  NC        27.1500   92.3940   53.4680 N.2   500  HEM500      0.0000
     26  C1C       27.3830   91.6900   54.5950 C.2   500  HEM500      0.0000
     27  C2C       26.5490   90.5810   54.7130 C.2   500  HEM500      0.0000
     28  C3C       25.6980   90.6710   53.5870 C.2   500  HEM500      0.0000
     29  C4C       26.2000   91.7130   52.8080 C.2   500  HEM500      0.0000
     30  CMC       26.5840   89.6230   55.9210 C.3   500  HEM500      0.0000
     31  CAC       24.5560   89.9500   53.1980 C.3   500  HEM500      0.0000
     32  CBC       23.9330   88.7660   53.7930 C.3   500  HEM500      0.0000
     33  ND        27.0520   94.0590   51.0760 N.ar  500  HEM500      0.0000
     34  C1D       26.1560   93.1330   50.7070 C.ar  500  HEM500      0.0000
     35  C2D       25.6970   93.3750   49.4170 C.ar  500  HEM500      0.0000
     36  C3D       26.3110   94.5710   49.0270 C.ar  500  HEM500      0.0000
     37  C4D       27.1330   94.9370   50.0760 C.ar  500  HEM500      0.0000
     38  CMD       24.7730   92.4540   48.6050 C.3   500  HEM500      0.0000
     39  CAD       26.2090   95.2640   47.6820 C.2   500  HEM500      0.0000
     40  CBD       25.4190   96.5710   47.6800 C.2   500  HEM500      0.0000
     41  CGD       25.2770   97.2590   46.3170 C.2   500  HEM500      0.0000
     42  O1D       24.8690   98.4180   46.2680 O.co2 500  HEM500      0.0000
     43  O2D       25.5600   96.6640   45.2770 O.co2 500  HEM500      0.0000
@<TRIPOS>BOND
     1    43    41   ar
     2    42    41   ar
     3    41    40    1
     4    40    39    2
     5    39    36    1
     6    16    14   ar
     7    38    35    1
     8    36    35   ar
     9    36    37   ar
    10    15    14   ar
    11    14    13    1
    12    35    34   ar
    13    12    13    1
    14    12     8    1
    15    37     2    2
    16    37    33   ar
    17     2     7    1
    18    34    33   ar
    19    34     5    2
    20     8     7    1
    21     8     9    2
    22     7     6    2
    23    33     1    1
    24     5    29    1
    25     6     1    1
    26     6    10    1
    27     9    11    1
    28     9    10    1
    29    29    25    2
    30    29    28    1
    31     1    25    1
    32     1    17    1
    33    10     3    2
    34    31    28    1
    35    31    32    1
    36    25    26    1
    37    28    27    2
    38     3    18    1
    39    26    27    1
    40    26     4    2
    41    17    18   ar
    42    17    21   ar
    43    27    30    1
    44    18    19   ar
    45     4    21    1
    46    21    20   ar
    47    19    20   ar
    48    19    22    1
    49    20    23    1
    50    23    24    1
