@<TRIPOS>MOLECULE
1ccj_HEM_A_1.pdb
 43 50 0 0 0
SMALL
GASTEIGER

@<TRIPOS>ATOM
      1 FE         28.2240   93.8830   52.7510 Fe    295  HEM295      0.0000
      2  CHA       27.9720   95.9050   50.1000 C.2   295  HEM295      0.0000
      3  CHB       30.5870   95.8420   54.0920 C.2   295  HEM295      0.0000
      4  CHC       28.4150   91.8110   55.4860 C.2   295  HEM295      0.0000
      5  CHD       25.6460   92.0030   51.5550 C.2   295  HEM295      0.0000
      6  NA        29.1670   95.6030   52.1600 N.2   295  HEM295      0.0000
      7  C1A       28.9010   96.3120   51.0790 C.2   295  HEM295      0.0000
      8  C2A       29.6390   97.4940   51.0840 C.2   295  HEM295      0.0000
      9  C3A       30.4480   97.4350   52.2150 C.2   295  HEM295      0.0000
     10  C4A       30.0790   96.2710   52.8560 C.2   295  HEM295      0.0000
     11  CMA       31.5470   98.4040   52.6500 C.3   295  HEM295      0.0000
     12  CAA       29.6380   98.5990   50.0220 C.3   295  HEM295      0.0000
     13  CBA       28.4660   99.5660   50.0950 C.3   295  HEM295      0.0000
     14  CGA       28.4830  100.6200   48.9880 C.2   295  HEM295      0.0000
     15  O1A       29.4800  101.3100   48.8080 O.co2 295  HEM295      0.0000
     16  O2A       27.5100  100.7880   48.2630 O.co2 295  HEM295      0.0000
     17  NB        29.3250   93.8240   54.5100 N.ar  295  HEM295      0.0000
     18  C1B       30.2490   94.7180   54.8580 C.ar  295  HEM295      0.0000
     19  C2B       30.8490   94.3910   56.0500 C.ar  295  HEM295      0.0000
     20  C3B       30.2810   93.1500   56.4160 C.ar  295  HEM295      0.0000
     21  C4B       29.3080   92.8900   55.4690 C.ar  295  HEM295      0.0000
     22  CMB       31.9540   95.2390   56.6900 C.3   295  HEM295      0.0000
     23  CAB       30.5980   92.2620   57.4550 C.3   295  HEM295      0.0000
     24  CBB       31.7610   92.3370   58.3350 C.3   295  HEM295      0.0000
     25  NC        27.1540   92.2520   53.4560 N.2   295  HEM295      0.0000
     26  C1C       27.3920   91.5210   54.5610 C.2   295  HEM295      0.0000
     27  C2C       26.4750   90.4770   54.7040 C.2   295  HEM295      0.0000
     28  C3C       25.6250   90.5860   53.5810 C.2   295  HEM295      0.0000
     29  C4C       26.1260   91.6390   52.8240 C.2   295  HEM295      0.0000
     30  CMC       26.3480   89.6400   55.9810 C.3   295  HEM295      0.0000
     31  CAC       24.4950   89.8570   53.1750 C.3   295  HEM295      0.0000
     32  CBC       23.9380   88.6370   53.7320 C.3   295  HEM295      0.0000
     33  ND        26.9940   93.9510   51.0860 N.ar  295  HEM295      0.0000
     34  C1D       26.0730   93.0300   50.7190 C.ar  295  HEM295      0.0000
     35  C2D       25.6560   93.2200   49.4150 C.ar  295  HEM295      0.0000
     36  C3D       26.2510   94.4150   49.0170 C.ar  295  HEM295      0.0000
     37  C4D       27.0990   94.8030   50.0700 C.ar  295  HEM295      0.0000
     38  CMD       24.7700   92.3010   48.5680 C.3   295  HEM295      0.0000
     39  CAD       26.0850   95.0750   47.6480 C.3   295  HEM295      0.0000
     40  CBD       25.3120   96.3830   47.6660 C.3   295  HEM295      0.0000
     41  CGD       25.1630   97.0870   46.3130 C.2   295  HEM295      0.0000
     42  O1D       24.5370   98.1390   46.2630 O.co2 295  HEM295      0.0000
     43  O2D       25.6460   96.6140   45.2820 O.co2 295  HEM295      0.0000
@<TRIPOS>BOND
     1    43    41   ar
     2    42    41   ar
     3    41    40    1
     4    39    40    1
     5    39    36    1
     6    16    14   ar
     7    38    35    1
     8    15    14   ar
     9    14    13    1
    10    36    35   ar
    11    36    37   ar
    12    35    34   ar
    13    12    13    1
    14    12     8    1
    15    37     2    2
    16    37    33   ar
    17     2     7    1
    18    34    33   ar
    19    34     5    2
    20     7     8    1
    21     7     6    2
    22     8     9    2
    23    33     1    1
    24     5    29    1
    25     6     1    1
    26     6    10    1
    27     9    11    1
    28     9    10    1
    29     1    25    1
    30     1    17    1
    31    29    25    2
    32    29    28    1
    33    10     3    2
    34    31    28    1
    35    31    32    1
    36    25    26    1
    37    28    27    2
    38     3    18    1
    39    17    18   ar
    40    17    21   ar
    41    26    27    1
    42    26     4    2
    43    27    30    1
    44    18    19   ar
    45    21     4    1
    46    21    20   ar
    47    19    20   ar
    48    19    22    1
    49    20    23    1
    50    23    24    1
