@<TRIPOS>MOLECULE
1cck_HEM_A_1.pdb
 43 50 0 0 0
SMALL
GASTEIGER

@<TRIPOS>ATOM
      1 FE         -5.8190   56.9520  111.6610 Fe      1  HEM1        0.0000
      2  CHA       -5.4020   53.9290  112.9920 C.2     1  HEM1        0.0000
      3  CHB       -7.5400   57.9790  114.3830 C.2     1  HEM1        0.0000
      4  CHC       -5.9480   60.1280  110.4580 C.2     1  HEM1        0.0000
      5  CHD       -3.6400   56.1420  109.2150 C.2     1  HEM1        0.0000
      6  NA        -6.4530   56.0790  113.3720 N.2     1  HEM1        0.0000
      7  C1A       -6.1620   54.8310  113.7460 C.2     1  HEM1        0.0000
      8  C2A       -6.7200   54.5610  114.9790 C.2     1  HEM1        0.0000
      9  C3A       -7.4020   55.7240  115.3580 C.2     1  HEM1        0.0000
     10  C4A       -7.1340   56.6420  114.3750 C.2     1  HEM1        0.0000
     11  CMA       -8.3000   55.9360  116.5730 C.3     1  HEM1        0.0000
     12  CAA       -6.6300   53.2190  115.7000 C.3     1  HEM1        0.0000
     13  CBA       -5.4020   53.0380  116.5550 C.3     1  HEM1        0.0000
     14  CGA       -5.3270   51.6710  117.2390 C.2     1  HEM1        0.0000
     15  O1A       -6.2330   51.2850  117.9830 O.co2   1  HEM1        0.0000
     16  O2A       -4.3400   50.9550  117.0540 O.co2   1  HEM1        0.0000
     17  NB        -6.8110   58.7080  112.2050 N.ar    1  HEM1        0.0000
     18  C1B       -7.4120   58.9320  113.3680 C.ar    1  HEM1        0.0000
     19  C2B       -7.9480   60.2200  113.4310 C.ar    1  HEM1        0.0000
     20  C3B       -7.5160   60.8380  112.2510 C.ar    1  HEM1        0.0000
     21  C4B       -6.7240   59.8920  111.5980 C.ar    1  HEM1        0.0000
     22  CMB       -8.8810   60.6840  114.5620 C.3     1  HEM1        0.0000
     23  CAB       -7.8220   62.0850  111.6980 C.3     1  HEM1        0.0000
     24  CBB       -8.8410   63.0130  112.1330 C.3     1  HEM1        0.0000
     25  NC        -4.9440   57.9630  110.0960 N.2     1  HEM1        0.0000
     26  C1C       -5.1050   59.2570  109.7510 C.2     1  HEM1        0.0000
     27  C2C       -4.3410   59.6170  108.6340 C.2     1  HEM1        0.0000
     28  C3C       -3.6120   58.4550  108.3480 C.2     1  HEM1        0.0000
     29  C4C       -4.0650   57.4780  109.2330 C.2     1  HEM1        0.0000
     30  CMC       -4.2490   61.0150  107.9870 C.3     1  HEM1        0.0000
     31  CAC       -2.6070   58.1820  107.4030 C.3     1  HEM1        0.0000
     32  CBC       -2.1760   58.9780  106.2980 C.3     1  HEM1        0.0000
     33  ND        -4.6920   55.2850  111.1600 N.ar    1  HEM1        0.0000
     34  C1D       -3.9610   55.1150  110.0640 C.ar    1  HEM1        0.0000
     35  C2D       -3.6160   53.7910  109.8860 C.ar    1  HEM1        0.0000
     36  C3D       -4.1520   53.1310  110.9910 C.ar    1  HEM1        0.0000
     37  C4D       -4.7630   54.1040  111.7610 C.ar    1  HEM1        0.0000
     38  CMD       -2.9410   53.1910  108.6730 C.3     1  HEM1        0.0000
     39  CAD       -4.1250   51.6350  111.2560 C.3     1  HEM1        0.0000
     40  CBD       -2.8860   51.2040  112.0300 C.3     1  HEM1        0.0000
     41  CGD       -2.9510   49.7910  112.5640 C.2     1  HEM1        0.0000
     42  O1D       -2.3800   49.5600  113.6120 O.co2   1  HEM1        0.0000
     43  O2D       -3.5590   48.9150  111.9510 O.co2   1  HEM1        0.0000
@<TRIPOS>BOND
     1    32    31    1
     2    31    28    1
     3    30    27    1
     4    28    27    2
     5    28    29    1
     6    27    26    1
     7    38    35    1
     8     5    29    1
     9     5    34    2
    10    29    25    2
    11    26    25    1
    12    26     4    2
    13    35    34   ar
    14    35    36   ar
    15    34    33   ar
    16    25     1    1
    17     4    21    1
    18    36    39    1
    19    36    37   ar
    20    33     1    1
    21    33    37   ar
    22    39    40    1
    23    21    17   ar
    24    21    20   ar
    25     1    17    1
    26     1     6    1
    27    23    24    1
    28    23    20    1
    29    37     2    2
    30    43    41   ar
    31    40    41    1
    32    17    18   ar
    33    20    19   ar
    34    41    42   ar
    35     2     7    1
    36    18    19   ar
    37    18     3    1
    38     6     7    2
    39     6    10    1
    40    19    22    1
    41     7     8    1
    42    10     3    2
    43    10     9    1
    44     8     9    2
    45     8    12    1
    46     9    11    1
    47    12    13    1
    48    13    14    1
    49    16    14   ar
    50    14    15   ar
