@<TRIPOS>MOLECULE
1ccl_HEM_A_1.pdb
 43 50 0 0 0
SMALL
GASTEIGER

@<TRIPOS>ATOM
      1 FE         -5.7080   57.1080  111.8630 Fe      1  HEM1        0.0000
      2  CHA       -5.6560   53.9590  113.0470 C.2     1  HEM1        0.0000
      3  CHB       -7.5180   58.1080  114.5740 C.2     1  HEM1        0.0000
      4  CHC       -5.9360   60.2340  110.5760 C.2     1  HEM1        0.0000
      5  CHD       -3.6280   56.2160  109.3580 C.2     1  HEM1        0.0000
      6  NA        -6.5330   56.1830  113.5110 N.2     1  HEM1        0.0000
      7  C1A       -6.3540   54.8950  113.8390 C.2     1  HEM1        0.0000
      8  C2A       -6.9020   54.6240  115.0780 C.2     1  HEM1        0.0000
      9  C3A       -7.4100   55.8300  115.5500 C.2     1  HEM1        0.0000
     10  C4A       -7.1500   56.7540  114.5490 C.2     1  HEM1        0.0000
     11  CMA       -8.1760   56.0810  116.8480 C.3     1  HEM1        0.0000
     12  CAA       -6.8870   53.2780  115.7620 C.3     1  HEM1        0.0000
     13  CBA       -5.6350   53.0680  116.5810 C.3     1  HEM1        0.0000
     14  CGA       -5.5260   51.6930  117.2320 C.2     1  HEM1        0.0000
     15  O1A       -6.3900   51.2810  118.0130 O.co2   1  HEM1        0.0000
     16  O2A       -4.5530   50.9870  116.9850 O.co2   1  HEM1        0.0000
     17  NB        -6.7400   58.8330  112.4010 N.ar    1  HEM1        0.0000
     18  C1B       -7.3640   59.0660  113.5550 C.ar    1  HEM1        0.0000
     19  C2B       -7.8800   60.3700  113.5880 C.ar    1  HEM1        0.0000
     20  C3B       -7.4770   60.9660  112.3870 C.ar    1  HEM1        0.0000
     21  C4B       -6.6860   60.0100  111.7470 C.ar    1  HEM1        0.0000
     22  CMB       -8.7640   60.9020  114.7060 C.3     1  HEM1        0.0000
     23  CAB       -7.8190   62.1890  111.7890 C.3     1  HEM1        0.0000
     24  CBB       -8.8740   63.0850  112.1850 C.3     1  HEM1        0.0000
     25  NC        -4.9280   58.0580  110.2160 N.2     1  HEM1        0.0000
     26  C1C       -5.0990   59.3540  109.8680 C.2     1  HEM1        0.0000
     27  C2C       -4.3330   59.7060  108.7540 C.2     1  HEM1        0.0000
     28  C3C       -3.6000   58.5440  108.4600 C.2     1  HEM1        0.0000
     29  C4C       -4.0360   57.5620  109.3590 C.2     1  HEM1        0.0000
     30  CMC       -4.2780   61.0830  108.0810 C.3     1  HEM1        0.0000
     31  CAC       -2.6400   58.2870  107.4620 C.3     1  HEM1        0.0000
     32  CBC       -2.3120   59.0860  106.2970 C.3     1  HEM1        0.0000
     33  ND        -4.7780   55.3510  111.2790 N.ar    1  HEM1        0.0000
     34  C1D       -4.0170   55.1700  110.2010 C.ar    1  HEM1        0.0000
     35  C2D       -3.7310   53.8200  110.0250 C.ar    1  HEM1        0.0000
     36  C3D       -4.3010   53.1760  111.1090 C.ar    1  HEM1        0.0000
     37  C4D       -4.9340   54.1580  111.8580 C.ar    1  HEM1        0.0000
     38  CMD       -3.0040   53.1490  108.8640 C.3     1  HEM1        0.0000
     39  CAD       -4.2490   51.6830  111.3870 C.3     1  HEM1        0.0000
     40  CBD       -3.0710   51.3020  112.2580 C.3     1  HEM1        0.0000
     41  CGD       -3.0290   49.8330  112.6900 C.2     1  HEM1        0.0000
     42  O1D       -2.4190   49.5400  113.7030 O.co2   1  HEM1        0.0000
     43  O2D       -3.5930   48.9650  112.0260 O.co2   1  HEM1        0.0000
@<TRIPOS>BOND
     1    32    31    1
     2    31    28    1
     3    30    27    1
     4    28    27    2
     5    28    29    1
     6    27    26    1
     7    38    35    1
     8     5    29    1
     9     5    34    2
    10    29    25    2
    11    26    25    1
    12    26     4    2
    13    35    34   ar
    14    35    36   ar
    15    34    33   ar
    16    25     1    1
    17     4    21    1
    18    36    39    1
    19    36    37   ar
    20    33    37   ar
    21    33     1    1
    22    39    40    1
    23    21    20   ar
    24    21    17   ar
    25    23    24    1
    26    23    20    1
    27    37     2    2
    28     1    17    1
    29     1     6    1
    30    43    41   ar
    31    40    41    1
    32    20    19   ar
    33    17    18   ar
    34    41    42   ar
    35     2     7    1
    36     6     7    2
    37     6    10    1
    38    18    19   ar
    39    18     3    1
    40    19    22    1
    41     7     8    1
    42    10     3    2
    43    10     9    1
    44     8     9    2
    45     8    12    1
    46     9    11    1
    47    12    13    1
    48    13    14    1
    49    16    14   ar
    50    14    15   ar
