@<TRIPOS>MOLECULE
1ccp_HEM_A_1.pdb
 43 50 0 0 0
SMALL
GASTEIGER

@<TRIPOS>ATOM
      1  CHA       -5.3390   53.8470   22.1140 C.2   296  HEM296      0.0000
      2  CHB       -7.5100   57.9530   23.5220 C.2   296  HEM296      0.0000
      3  CHC       -5.9000   60.0810   19.5000 C.2   296  HEM296      0.0000
      4  CHD       -3.4570   56.1260   18.3290 C.2   296  HEM296      0.0000
      5  C1A       -6.0080   54.8110   22.8070 C.2   296  HEM296      0.0000
      6  C2A       -6.6030   54.5770   24.1160 C.2   296  HEM296      0.0000
      7  C3A       -7.2100   55.7040   24.4900 C.2   296  HEM296      0.0000
      8  C4A       -6.9870   56.6900   23.4380 C.2   296  HEM296      0.0000
      9  CMA       -8.0280   56.0700   25.7570 C.3   296  HEM296      0.0000
     10  CAA       -6.4800   53.2020   24.8030 C.2   296  HEM296      0.0000
     11  CBA       -5.2490   52.9450   25.6520 C.2   296  HEM296      0.0000
     12  CGA       -5.2300   51.6190   26.3680 C.2   296  HEM296      0.0000
     13  O1A       -6.1460   51.4120   27.2290 O.co2 296  HEM296      0.0000
     14  O2A       -4.2890   50.8420   26.0230 O.co2 296  HEM296      0.0000
     15  C1B       -7.3180   58.8320   22.4940 C.ar  296  HEM296      0.0000
     16  C2B       -7.8970   60.1700   22.4560 C.ar  296  HEM296      0.0000
     17  C3B       -7.4310   60.7620   21.3500 C.ar  296  HEM296      0.0000
     18  C4B       -6.5620   59.8240   20.6670 C.ar  296  HEM296      0.0000
     19  CMB       -8.8340   60.7460   23.5350 C.3   296  HEM296      0.0000
     20  CAB       -7.7460   62.1810   20.8180 C.2   296  HEM296      0.0000
     21  CBB       -8.8980   62.7180   21.1490 C.2   296  HEM296      0.0000
     22  C1C       -5.0240   59.2510   18.8740 C.2   296  HEM296      0.0000
     23  C2C       -4.1400   59.5840   17.7750 C.2   296  HEM296      0.0000
     24  C3C       -3.4770   58.4780   17.4750 C.2   296  HEM296      0.0000
     25  C4C       -3.8970   57.4220   18.3750 C.2   296  HEM296      0.0000
     26  CMC       -4.0590   60.9700   17.1050 C.3   296  HEM296      0.0000
     27  CAC       -2.4070   58.2260   16.3740 C.2   296  HEM296      0.0000
     28  CBC       -2.4410   59.0630   15.3230 C.2   296  HEM296      0.0000
     29  C1D       -3.8170   55.1190   19.1800 C.ar  296  HEM296      0.0000
     30  C2D       -3.5680   53.7030   19.0110 C.ar  296  HEM296      0.0000
     31  C3D       -4.1010   53.0770   20.0600 C.ar  296  HEM296      0.0000
     32  C4D       -4.7030   54.0780   20.9180 C.ar  296  HEM296      0.0000
     33  CMD       -2.8540   53.0860   17.7930 C.3   296  HEM296      0.0000
     34  CAD       -4.0880   51.5580   20.3850 C.3   296  HEM296      0.0000
     35  CBD       -2.8510   51.2220   21.2380 C.3   296  HEM296      0.0000
     36  CGD       -2.8170   49.8090   21.7620 C.2   296  HEM296      0.0000
     37  O1D       -2.0680   49.7020   22.7730 O.co2 296  HEM296      0.0000
     38  O2D       -3.4980   48.9260   21.1850 O.co2 296  HEM296      0.0000
     39  NA        -6.2460   56.1050   22.4300 N.2   296  HEM296      0.0000
     40  NB        -6.5000   58.6640   21.3910 N.ar  296  HEM296      0.0000
     41  NC        -4.8610   57.9030   19.2250 N.2   296  HEM296      0.0000
     42  ND        -4.5300   55.3290   20.3550 N.ar  296  HEM296      0.0000
     43 FE         -5.7090   56.9350   20.7190 Fe    296  HEM296      0.0000
@<TRIPOS>BOND
     1    28    27    2
     2    27    24    1
     3    26    23    1
     4    24    23    2
     5    24    25    1
     6    23    22    1
     7    33    30    1
     8     4    25    1
     9     4    29    2
    10    25    41    2
    11    22    41    1
    12    22     3    2
    13    30    29   ar
    14    30    31   ar
    15    29    42   ar
    16    41    43    1
    17     3    18    1
    18    31    34    1
    19    31    32   ar
    20    42    43    1
    21    42    32   ar
    22    34    35    1
    23    18    17   ar
    24    18    40   ar
    25    43    40    1
    26    43    39    1
    27    20    21    2
    28    20    17    1
    29    32     1    2
    30    38    36   ar
    31    35    36    1
    32    17    16   ar
    33    40    15   ar
    34    36    37   ar
    35     1     5    1
    36    39     5    2
    37    39     8    1
    38    16    15   ar
    39    16    19    1
    40    15     2    1
    41     5     6    1
    42     8     2    2
    43     8     7    1
    44     6     7    2
    45     6    10    1
    46     7     9    1
    47    10    11    2
    48    11    12    1
    49    14    12   ar
    50    12    13   ar
