@<TRIPOS>MOLECULE
1ccr_HEM_A_1.pdb
 43 50 0 0 0
SMALL
GASTEIGER

@<TRIPOS>ATOM
      1 FE          2.8860   16.9230   24.5350 Fe    112  HEM112      0.0000
      2  CHA        0.4780   14.7440   23.6140 C.2   112  HEM112      0.0000
      3  CHB        0.5870   19.3070   25.2930 C.2   112  HEM112      0.0000
      4  CHC        5.3290   18.8330   25.8640 C.2   112  HEM112      0.0000
      5  CHD        5.2650   14.8580   23.1350 C.2   112  HEM112      0.0000
      6  NA         0.9260   16.9980   24.4400 N.2   112  HEM112      0.0000
      7  C1A        0.0590   15.9760   24.0990 C.2   112  HEM112      0.0000
      8  C2A       -1.2710   16.4160   24.3720 C.2   112  HEM112      0.0000
      9  C3A       -1.2450   17.6920   24.8010 C.2   112  HEM112      0.0000
     10  C4A        0.1560   18.0600   24.8680 C.2   112  HEM112      0.0000
     11  CMA       -2.3640   18.6200   25.2030 C.3   112  HEM112      0.0000
     12  CAA       -2.5260   15.5680   24.0530 C.3   112  HEM112      0.0000
     13  CBA       -3.1130   16.0280   22.7010 C.3   112  HEM112      0.0000
     14  CGA       -4.2600   15.1960   22.1920 C.2   112  HEM112      0.0000
     15  O1A       -4.5360   15.4180   20.9960 O.co2 112  HEM112      0.0000
     16  O2A       -4.8880   14.4250   22.9560 O.co2 112  HEM112      0.0000
     17  NB         2.9580   18.7130   25.4130 N.ar  112  HEM112      0.0000
     18  C1B        1.9090   19.5870   25.5820 C.ar  112  HEM112      0.0000
     19  C2B        2.3810   20.8320   26.1330 C.ar  112  HEM112      0.0000
     20  C3B        3.6760   20.6600   26.3480 C.ar  112  HEM112      0.0000
     21  C4B        4.0970   19.3920   25.8390 C.ar  112  HEM112      0.0000
     22  CMB        1.4870   22.0490   26.4100 C.3   112  HEM112      0.0000
     23  CAB        4.6260   21.7270   27.0460 C.3   112  HEM112      0.0000
     24  CBB        4.2450   21.7890   28.4650 C.3   112  HEM112      0.0000
     25  NC         4.9180   16.8540   24.5150 N.2   112  HEM112      0.0000
     26  C1C        5.7640   17.7600   25.1190 C.2   112  HEM112      0.0000
     27  C2C        7.1280   17.3920   24.8550 C.2   112  HEM112      0.0000
     28  C3C        7.0890   16.2600   24.1270 C.2   112  HEM112      0.0000
     29  C4C        5.7320   15.9520   23.8550 C.2   112  HEM112      0.0000
     30  CMC        8.3390   18.2190   25.3410 C.3   112  HEM112      0.0000
     31  CAC        8.3170   15.5690   23.4030 C.3   112  HEM112      0.0000
     32  CBC        9.3740   15.1950   24.2280 C.3   112  HEM112      0.0000
     33  ND         2.8850   15.1620   23.5300 N.ar  112  HEM112      0.0000
     34  C1D        3.9620   14.4230   23.1040 C.ar  112  HEM112      0.0000
     35  C2D        3.5140   13.1270   22.6100 C.ar  112  HEM112      0.0000
     36  C3D        2.1810   13.1120   22.7030 C.ar  112  HEM112      0.0000
     37  C4D        1.7710   14.3580   23.3050 C.ar  112  HEM112      0.0000
     38  CMD        4.4700   12.0450   22.0560 C.3   112  HEM112      0.0000
     39  CAD        1.2260   11.9230   22.4340 C.3   112  HEM112      0.0000
     40  CBD        1.0410   11.1170   23.7630 C.3   112  HEM112      0.0000
     41  CGD        0.2720    9.8350   23.6560 C.2   112  HEM112      0.0000
     42  O1D       -0.2070    9.5340   22.5560 O.co2 112  HEM112      0.0000
     43  O2D        0.1760    9.0770   24.6790 O.co2 112  HEM112      0.0000
@<TRIPOS>BOND
     1    15    14   ar
     2    38    35    1
     3    14    13    1
     4    14    16   ar
     5    39    36    1
     6    39    40    1
     7    42    41   ar
     8    35    36   ar
     9    35    34   ar
    10    13    12    1
    11    36    37   ar
    12    34     5    2
    13    34    33   ar
    14     5    29    1
    15    37    33   ar
    16    37     2    2
    17    31    28    1
    18    31    32    1
    19    33     1    1
    20     2     7    1
    21    41    40    1
    22    41    43   ar
    23    29    28    1
    24    29    25    2
    25    12     8    1
    26     7     8    1
    27     7     6    2
    28    28    27    2
    29     8     9    2
    30     6     1    1
    31     6    10    1
    32    25     1    1
    33    25    26    1
    34     1    17    1
    35     9    10    1
    36     9    11    1
    37    27    26    1
    38    27    30    1
    39    10     3    2
    40    26     4    2
    41     3    18    1
    42    17    18   ar
    43    17    21   ar
    44    18    19   ar
    45    21     4    1
    46    21    20   ar
    47    19    20   ar
    48    19    22    1
    49    20    23    1
    50    23    24    1
