@<TRIPOS>MOLECULE
1ccw_TAR_B_1.pdb
 10 9 0 0 0
SMALL
GASTEIGER

@<TRIPOS>ATOM
      1  O1         3.4220   -8.2760   84.0500 O.co2 900  TAR900     -0.2427
      2  O11        4.2460   -7.3980   85.9400 O.co2 900  TAR900     -0.2427
      3  C1         3.4260   -7.4470   84.9710 C.2   900  TAR900      0.3979
      4  C2         2.3640   -6.3470   85.0040 C.3   900  TAR900      0.2950
      5  O2         1.6580   -6.2060   83.7740 O.3   900  TAR900     -0.2075
      6  C3         1.3740   -6.5990   86.1490 C.3   900  TAR900      0.2950
      7  O3         0.3430   -7.4890   85.7720 O.3   900  TAR900     -0.2075
      8  C4         0.7610   -5.2630   86.5520 C.2   900  TAR900      0.3979
      9  O4        -0.3620   -4.9370   86.2640 O.co2 900  TAR900     -0.2427
     10  O41        1.5500   -4.5360   87.2310 O.co2 900  TAR900     -0.2427
@<TRIPOS>BOND
     1     5     4    1
     2     1     3   ar
     3     3     4    1
     4     3     2   ar
     5     4     6    1
     6     7     6    1
     7     6     8    1
     8     9     8   ar
     9     8    10   ar
