@<TRIPOS>MOLECULE
1cd2_FOL_A_1.pdb
 32 34 0 0 0
SMALL
GASTEIGER

@<TRIPOS>ATOM
      1  N1        10.4590    2.9860   13.0280 N.2   307  FOL307     -0.2672
      2  C2        10.7300    2.0720   12.0140 C.1   307  FOL307      0.2609
      3  NA2        9.7900    1.2660   11.6170 N.pl3 307  FOL307     -0.0220
      4  N3        11.9620    2.0310   11.4620 N.2   307  FOL307     -0.2466
      5  C4        12.9050    2.8430   11.8840 C.1   307  FOL307      0.2569
      6  O4        14.0890    2.7390   11.3650 O.2   307  FOL307     -0.2052
      7  C4A       12.6640    3.8270   12.9280 C.2   307  FOL307      0.2988
      8  N5        13.6420    4.6710   13.3630 N.2   307  FOL307     -0.3839
      9  C6        13.3110    5.5500   14.2770 C.2   307  FOL307      0.1356
     10  C7        12.0470    5.5760   14.7930 C.3   307  FOL307      0.1931
     11  N8        11.0610    4.7390   14.4290 N.2   307  FOL307     -0.1992
     12  C8A       11.3900    3.8610   13.4730 C.1   307  FOL307      0.1401
     13  C9        14.3890    6.4960   14.7560 C.3   307  FOL307      0.1683
     14  N10       15.4890    6.7390   13.8580 N.pl3 307  FOL307     -0.2303
     15  C11       15.2620    8.4650   10.0020 C.ar  307  FOL307      0.0551
     16  C12       16.4660    8.0070   10.5430 C.ar  307  FOL307      0.0059
     17  C13       16.5170    7.4500   11.8060 C.ar  307  FOL307      0.0162
     18  C14       15.3650    7.3060   12.6140 C.ar  307  FOL307      0.0658
     19  C15       14.1740    7.7720   12.0770 C.ar  307  FOL307      0.0162
     20  C16       14.1340    8.3330   10.8020 C.ar  307  FOL307      0.0059
     21  C         15.1620    9.0450    8.6520 C.2   307  FOL307      0.2652
     22  O         16.1000    9.5920    8.0420 O.2   307  FOL307     -0.2684
     23  N         14.0140    8.9090    7.9740 N.am  307  FOL307     -0.1918
     24  CA        13.7180    9.5810    6.7190 C.3   307  FOL307      0.1986
     25  CB        13.9020    8.7300    5.4670 C.3   307  FOL307      0.0451
     26  CG        15.3730    8.7190    5.2400 C.3   307  FOL307      0.1164
     27  CD        15.7050    7.9070    4.0660 C.2   307  FOL307      0.3649
     28  OE1       16.7650    7.1180    4.0190 O.co2 307  FOL307     -0.2457
     29  OE2       14.9390    7.8800    2.9750 O.co2 307  FOL307     -0.2457
     30  CT        12.2870   10.1290    6.6810 C.2   307  FOL307      0.3842
     31  O1        12.2300   11.0540    5.7960 O.co2 307  FOL307     -0.2437
     32  O2        11.5630    9.5130    7.5120 O.co2 307  FOL307     -0.2437
@<TRIPOS>BOND
     1    29    27   ar
     2    28    27   ar
     3    27    26    1
     4    26    25    1
     5    25    24    1
     6    31    30   ar
     7    30    24    1
     8    30    32   ar
     9    24    23    1
    10    23    21   am
    11    22    21    2
    12    21    15    1
    13    15    16   ar
    14    15    20   ar
    15    16    17   ar
    16    20    19   ar
    17     6     5    2
    18     4     5    2
    19     4     2    2
    20     3     2    1
    21    17    18   ar
    22     5     7    1
    23     2     1    2
    24    19    18   ar
    25    18    14    1
    26     7     8    2
    27     7    12    1
    28     1    12    2
    29     8     9    2
    30    12    11    2
    31    14    13    1
    32     9    13    1
    33     9    10    1
    34    11    10    1
