@<TRIPOS>MOLECULE
1cd2_NAP_A_1.pdb
 48 52 0 0 0
SMALL
GASTEIGER

@<TRIPOS>ATOM
      1  PA        15.8390    9.2130   23.5650 P.3   207  NAP207      0.2189
      2  O1A       15.8930    9.3440   22.0560 O.2   207  NAP207     -0.5170
      3  O2A       14.5860    8.9330   24.2230 O.3   207  NAP207     -0.4371
      4  O5B       16.5340   10.6800   24.0300 O.3   207  NAP207     -0.3112
      5  C5B       16.8980   10.7320   25.4730 C.3   207  NAP207      0.1813
      6  C4B       16.6320   12.2250   25.7830 C.3   207  NAP207      0.1820
      7  O4B       15.4620   12.5150   25.4840 O.3   207  NAP207     -0.3136
      8  C3B       16.6960   12.3340   27.4080 C.3   207  NAP207      0.2157
      9  O3B       18.1670   12.5760   27.5290 O.3   207  NAP207     -0.2175
     10  C2B       15.8620   13.6220   27.5020 C.3   207  NAP207      0.2314
     11  O2B       16.4950   14.7480   26.9780 O.3   207  NAP207     -0.2630
     12  C1B       14.7490   13.2660   26.4880 C.3   207  NAP207      0.3158
     13  N9A       13.5730   12.6240   27.0340 N.pl3 207  NAP207     -0.1439
     14  C8A       13.1030   11.4020   26.6780 C.3   207  NAP207      0.3377
     15  N7A       12.0060   11.0510   27.3030 N.2   207  NAP207     -0.2095
     16  C5A       11.7930   12.2380   28.1130 C.2   207  NAP207      0.2526
     17  C6A       10.7000   12.6600   29.1390 C.2   207  NAP207      0.4393
     18  N6A        9.6800   11.8400   29.4300 N.pl3 207  NAP207      0.2180
     19  N1A       10.8230   13.8300   29.7020 N.2   207  NAP207      0.0021
     20  C2A       11.8740   14.5720   29.3320 C.3   207  NAP207      0.5254
     21  N3A       12.8540   14.3370   28.5030 N.2   207  NAP207     -0.0055
     22  C4A       12.7390   13.1280   27.9160 C.2   207  NAP207      0.3518
     23  O3        17.0710    8.3610   23.9430 O.3   207  NAP207     -0.2703
     24  PN        17.5560    6.8470   23.9640 P.3   207  NAP207      0.2189
     25  O1N       16.7920    6.1260   24.9130 O.3   207  NAP207     -0.4371
     26  O2N       18.9850    6.8480   24.2470 O.2   207  NAP207     -0.5170
     27  O5D       17.3180    6.3420   22.4790 O.3   207  NAP207     -0.3112
     28  C5D       17.8950    6.7530   21.2590 C.3   207  NAP207      0.1813
     29  C4D       18.5010    5.4040   20.7880 C.3   207  NAP207      0.1799
     30  O4D       17.3400    4.5530   20.4150 O.3   207  NAP207     -0.3327
     31  C3D       19.4230    5.5280   19.5390 C.3   207  NAP207      0.2158
     32  O3D       20.3110    4.3850   19.4570 O.3   207  NAP207     -0.2175
     33  C2D       18.3350    5.4750   18.4260 C.3   207  NAP207      0.2309
     34  O2D       18.9090    5.0790   17.2420 O.3   207  NAP207     -0.2158
     35  C1D       17.4440    4.3380   18.9740 C.3   207  NAP207      0.2263
     36  N1N       16.0550    4.2420   18.3480 N.pl3 207  NAP207     -0.2787
     37  C2N       15.6190    3.1240   17.5920 C.3   207  NAP207      0.1244
     38  C3N       14.3860    3.1620   17.0940 C.2   207  NAP207      0.0544
     39  C7N       13.9150    1.9840   16.2990 C.2   207  NAP207      0.2818
     40  O7N       12.7950    2.0520   15.8480 O.2   207  NAP207     -0.2670
     41  N7N       14.7190    0.9400   16.1150 N.am  207  NAP207     -0.0839
     42  C4N       13.3980    4.3520   17.2600 C.2   207  NAP207      0.0033
     43  C5N       14.0160    5.4500   18.0590 C.2   207  NAP207      0.0157
     44  C6N       15.2280    5.3700   18.5480 C.2   207  NAP207      0.0633
     45  P2B       17.5750   16.0050   27.5200 P.3   207  NAP207      0.5328
     46  O1X       16.7110   16.4270   28.7060 O.3   207  NAP207     -0.1145
     47  O2X       17.5690   16.9260   26.4020 O.2   207  NAP207     -0.2224
     48  O3X       18.7520   15.2090   27.9260 O.3   207  NAP207     -0.1145
@<TRIPOS>BOND
     1    40    39    2
     2    41    39   am
     3    39    38    1
     4    38    42    2
     5    38    37    1
     6    34    33    1
     7    42    43    1
     8    37    36    1
     9    43    44    2
    10    36    44    1
    11    36    35    1
    12    33    35    1
    13    33    31    1
    14    35    30    1
    15    32    31    1
    16    31    29    1
    17    30    29    1
    18    29    28    1
    19    28    27    1
    20     2     1    2
    21    27    24    1
    22     1    23    1
    23     1     4    1
    24     1     3    1
    25    23    24    1
    26    24    26    2
    27    24    25    1
    28     4     5    1
    29     5     6    1
    30     7     6    1
    31     7    12    1
    32     6     8    1
    33    47    45    2
    34    12    13    1
    35    12    10    1
    36    14    13    1
    37    14    15    1
    38    11    10    1
    39    11    45    1
    40    13    22    1
    41    15    16    2
    42     8    10    1
    43     8     9    1
    44    45    48    1
    45    45    46    1
    46    22    16    1
    47    22    21    2
    48    16    17    1
    49    21    20    1
    50    17    18    1
    51    17    19    2
    52    20    19    1
