@<TRIPOS>MOLECULE
1cde_DZF_A_1.pdb
 32 34 0 0 0
SMALL
GASTEIGER

@<TRIPOS>ATOM
      1  N1        -7.3900   -8.6320    1.2710 N.2   225  DZF225     -0.2739
      2  C2        -7.6060   -9.2720    0.0920 C.1   225  DZF225      0.2602
      3  NA2       -8.8140   -9.5990   -0.2450 N.pl3 225  DZF225     -0.0221
      4  N3        -6.6290   -9.7000   -0.6550 N.2   225  DZF225     -0.2529
      5  C4        -5.3860   -9.5160   -0.2830 C.1   225  DZF225      0.2060
      6  O4        -4.5330  -10.0130   -1.0220 O.2   225  DZF225     -0.2123
      7  C4A       -5.1190   -8.8300    0.9400 C.3   225  DZF225      0.2158
      8  C5        -3.7640   -8.4410    1.2470 C.3   225  DZF225      0.0378
      9  C6        -3.5570   -8.1330    2.7090 C.3   225  DZF225      0.0490
     10  C7        -4.6940   -7.3340    3.3450 C.3   225  DZF225      0.1388
     11  N8        -6.0100   -7.8140    2.8700 N.2   225  DZF225     -0.2122
     12  C8A       -6.1740   -8.3960    1.7070 C.1   225  DZF225      0.0888
     13  C9        -3.2950   -9.4750    3.3650 C.3   225  DZF225      0.1142
     14  N10       -2.8620   -9.0730    4.6920 N.pl3 225  DZF225     -0.2375
     15  C11       -4.4600  -10.5510    8.1500 C.ar  225  DZF225      0.0551
     16  C12       -4.7720  -11.1620    6.9340 C.ar  225  DZF225      0.0059
     17  C13       -4.1770  -10.7640    5.7570 C.ar  225  DZF225      0.0162
     18  C14       -3.2490   -9.7300    5.7890 C.ar  225  DZF225      0.0653
     19  C15       -2.9300   -9.1260    6.9990 C.ar  225  DZF225      0.0162
     20  C16       -3.5330   -9.5290    8.1720 C.ar  225  DZF225      0.0059
     21  C         -5.0460  -10.9890    9.4010 C.2   225  DZF225      0.2652
     22  O         -4.9400  -10.4260   10.4920 O.2   225  DZF225     -0.2684
     23  N         -5.7970  -12.0630    9.2890 N.am  225  DZF225     -0.1918
     24  CA        -6.4890  -12.7780   10.3810 C.3   225  DZF225      0.1986
     25  CB        -7.6930  -11.9090   10.9650 C.3   225  DZF225      0.0451
     26  CG        -9.0060  -11.6280   10.1610 C.3   225  DZF225      0.1164
     27  CD        -8.9150  -10.4310    9.2290 C.2   225  DZF225      0.3649
     28  OE1       -9.8430   -9.6500    9.0640 O.co2 225  DZF225     -0.2457
     29  OE2       -7.7860  -10.3190    8.4990 O.co2 225  DZF225     -0.2457
     30  CT        -6.9780  -14.1150    9.7550 C.2   225  DZF225      0.3842
     31  O1        -7.8560  -14.8470   10.2150 O.co2 225  DZF225     -0.2437
     32  O2        -6.2730  -14.5030    8.6440 O.co2 225  DZF225     -0.2437
@<TRIPOS>BOND
     1     6     5    2
     2     4     5    2
     3     4     2    2
     4     5     7    1
     5     3     2    1
     6     2     1    2
     7     7     8    1
     8     7    12    1
     9     8     9    1
    10     1    12    2
    11    12    11    2
    12     9    10    1
    13     9    13    1
    14    11    10    1
    15    13    14    1
    16    14    18    1
    17    17    18   ar
    18    17    16   ar
    19    18    19   ar
    20    16    15   ar
    21    19    20   ar
    22    15    20   ar
    23    15    21    1
    24    29    27   ar
    25    32    30   ar
    26    28    27   ar
    27    27    26    1
    28    23    21   am
    29    23    24    1
    30    21    22    2
    31    30    31   ar
    32    30    24    1
    33    26    25    1
    34    24    25    1
