@<TRIPOS>MOLECULE
1cde_GAR_A_1.pdb
 18 18 0 0 0
SMALL
GASTEIGER

@<TRIPOS>ATOM
      1  C1         5.5540   -4.1900    6.4150 C.3   222  GAR222      0.2159
      2  O6         6.9130   -4.5720    6.7060 O.3   222  GAR222     -0.2175
      3  C2         4.7750   -5.0950    5.4360 C.3   222  GAR222      0.2325
      4  O8         5.6050   -5.9170    4.6370 O.3   222  GAR222     -0.2157
      5  C3         3.9130   -6.0050    6.3150 C.3   222  GAR222      0.2447
      6  O4         3.6220   -5.1340    7.3950 O.3   222  GAR222     -0.3316
      7  C5         4.7610   -4.3170    7.6840 C.3   222  GAR222      0.1801
      8  C10        4.3180   -2.9230    8.1390 C.3   222  GAR222      0.1859
      9  O12        5.4550   -2.0870    8.3760 O.3   222  GAR222     -0.2675
     10  N19        2.6220   -6.4600    5.7040 N.am  222  GAR222     -0.1738
     11  C21        1.8860   -7.5370    6.0770 C.2   222  GAR222      0.2629
     12  O22        2.3020   -8.3280    6.9220 O.2   222  GAR222     -0.2716
     13  C23        0.5420   -7.8340    5.3450 C.3   222  GAR222      0.1956
     14  N24        0.4560   -8.9120    4.3060 N.3   222  GAR222     -0.1210
     15  P15        5.2810   -0.6280    8.8650 P.3   222  GAR222      0.5327
     16  O16        4.9580    0.0680    7.4830 O.2   222  GAR222     -0.2224
     17  O17        6.6310   -0.0700    9.4860 O.3   222  GAR222     -0.1145
     18  O18        4.2440   -0.4980    9.7910 O.3   222  GAR222     -0.1145
@<TRIPOS>BOND
     1    14    13    1
     2     4     3    1
     3    13    11    1
     4     3     5    1
     5     3     1    1
     6    10    11   am
     7    10     5    1
     8    11    12    2
     9     5     6    1
    10     1     2    1
    11     1     7    1
    12     6     7    1
    13    16    15    2
    14     7     8    1
    15     8     9    1
    16     9    15    1
    17    15    17    1
    18    15    18    1
