@<TRIPOS>MOLECULE
1cdg_MAL_A_1.pdb
 23 24 0 0 0
SMALL
GASTEIGER

@<TRIPOS>ATOM
      1  C1        63.3450   98.6540    9.9630 C.3   688  MAL688      0.2695
      2  C2        63.8810   97.7080   11.0260 C.3   688  MAL688      0.2406
      3  C3        65.3580   97.4880   10.8360 C.3   688  MAL688      0.2198
      4  C4        65.6460   97.0230    9.4160 C.3   688  MAL688      0.2144
      5  C5        64.9980   97.9620    8.4110 C.3   688  MAL688      0.1835
      6  C6        65.1860   97.5740    6.9740 C.3   688  MAL688      0.2142
      7  O1        63.9330   99.9260   10.1520 O.3   688  MAL688     -0.3257
      8  O2        63.6720   98.1370   12.3650 O.3   688  MAL688     -0.2149
      9  O3        65.8540   96.5610   11.8090 O.3   688  MAL688     -0.2174
     10  O4        67.0420   97.1210    9.1710 O.3   688  MAL688     -0.2176
     11  O5        63.6010   98.1620    8.6520 O.3   688  MAL688     -0.3256
     12  O6        64.6520   98.5650    6.0880 O.3   688  MAL688     -0.2176
     13  C1'       62.6780  103.8970   10.2890 C.3   688  MAL688      0.3023
     14  C2'       62.1650  103.0190   11.3900 C.3   688  MAL688      0.2433
     15  C3'       63.0210  101.7720   11.4780 C.3   688  MAL688      0.2168
     16  C4'       63.0790  101.0890   10.1190 C.3   688  MAL688      0.1804
     17  C5'       63.6560  102.0340    9.0730 C.3   688  MAL688      0.1804
     18  C6'       63.5870  101.3540    7.7260 C.3   688  MAL688      0.2141
     19  O1'       63.8750  104.4550   10.6990 O.3   688  MAL688     -0.1869
     20  O2'       62.2130  103.7160   12.6330 O.3   688  MAL688     -0.2148
     21  O3'       62.4660  100.9080   12.4580 O.3   688  MAL688     -0.2175
     22  O5'       62.7830  103.1690    9.0570 O.3   688  MAL688     -0.3237
     23  O6'       64.1840  102.1710    6.7240 O.3   688  MAL688     -0.2176
@<TRIPOS>BOND
     1    12     6    1
     2    23    18    1
     3     6     5    1
     4    18    17    1
     5     5    11    1
     6     5     4    1
     7    11     1    1
     8    22    17    1
     9    22    13    1
    10    17    16    1
    11    10     4    1
    12     4     3    1
    13     1     7    1
    14     1     2    1
    15    16     7    1
    16    16    15    1
    17    13    19    1
    18    13    14    1
    19     3     2    1
    20     3     9    1
    21     2     8    1
    22    14    15    1
    23    14    20    1
    24    15    21    1
