@<TRIPOS>MOLECULE
1cdk_ANP_A_1.pdb
 31 33 0 0 0
SMALL
GASTEIGER

@<TRIPOS>ATOM
      1  PG        73.7080   28.5090   30.8190 P.3   400  ANP400      0.4884
      2  O1G       73.4640   26.9890   30.8180 O.3   400  ANP400     -0.1240
      3  O2G       75.0790   28.9340   31.2000 O.3   400  ANP400     -0.1240
      4  O3G       73.2330   29.1380   29.5960 O.2   400  ANP400     -0.2331
      5  PB        71.6990   28.2690   32.9070 P.3   400  ANP400      0.4669
      6  O1B       70.4520   28.4060   32.1830 O.2   400  ANP400     -0.2351
      7  O2B       72.2120   26.9290   33.2560 O.3   400  ANP400     -0.1253
      8  N3B       72.8480   29.1110   32.0680 N.3   400  ANP400     -0.0163
      9  PA        72.6830   29.2860   35.3860 P.3   400  ANP400      0.2220
     10  O1A       72.6800   28.1990   36.3800 O.3   400  ANP400     -0.4370
     11  O2A       73.9770   29.6690   34.7210 O.2   400  ANP400     -0.5170
     12  O3A       71.5280   29.0790   34.2850 O.3   400  ANP400     -0.2360
     13  O5'       72.0920   30.5650   36.1560 O.3   400  ANP400     -0.3111
     14  C5'       71.8310   31.7820   35.4420 C.3   400  ANP400      0.1813
     15  C4'       72.4350   32.9510   36.1900 C.3   400  ANP400      0.1821
     16  O4'       71.8270   33.0980   37.4870 O.3   400  ANP400     -0.3135
     17  C3'       73.9220   32.7540   36.4570 C.3   400  ANP400      0.2184
     18  O3'       74.7270   33.1490   35.3510 O.3   400  ANP400     -0.2174
     19  C2'       74.1540   33.6050   37.6720 C.3   400  ANP400      0.2570
     20  O2'       74.3010   34.9730   37.2660 O.3   400  ANP400     -0.2130
     21  C1'       72.8380   33.4860   38.4360 C.3   400  ANP400      0.3186
     22  N9        72.9390   32.5290   39.5320 N.pl3 400  ANP400     -0.1439
     23  C8        72.9970   31.1550   39.4770 C.3   400  ANP400      0.3377
     24  N7        73.2570   30.5960   40.6190 N.2   400  ANP400     -0.2095
     25  C5        73.3300   31.6690   41.5060 C.2   400  ANP400      0.2526
     26  C6        73.4950   31.7290   42.8930 C.2   400  ANP400      0.4393
     27  N6        73.5880   30.6340   43.6550 N.pl3 400  ANP400      0.2180
     28  N1        73.5080   32.9610   43.4630 N.2   400  ANP400      0.0021
     29  C2        73.3330   34.0360   42.6990 C.3   400  ANP400      0.5254
     30  N3        73.1320   34.0970   41.3900 N.2   400  ANP400     -0.0055
     31  C4        73.1490   32.8500   40.8500 C.2   400  ANP400      0.3518
@<TRIPOS>BOND
     1     4     1    2
     2     2     1    1
     3     1     3    1
     4     1     8    1
     5     8     5    1
     6     6     5    2
     7     5     7    1
     8     5    12    1
     9    12     9    1
    10    11     9    2
    11    18    17    1
    12     9    13    1
    13     9    10    1
    14    14    13    1
    15    14    15    1
    16    15    17    1
    17    15    16    1
    18    17    19    1
    19    20    19    1
    20    16    21    1
    21    19    21    1
    22    21    22    1
    23    23    22    1
    24    23    24    1
    25    22    31    1
    26    24    25    2
    27    31    30    2
    28    31    25    1
    29    30    29    1
    30    25    26    1
    31    29    28    1
    32    26    28    2
    33    26    27    1
