@<TRIPOS>MOLECULE
1cdo_NAD_A_1.pdb
 44 48 0 0 0
SMALL
GASTEIGER

@<TRIPOS>ATOM
      1  PA        25.2370   31.6440   14.9200 P.3   375  NAD375      0.2189
      2  O1A       26.3090   32.6030   15.2790 O.3   375  NAD375     -0.4371
      3  O2A       25.1050   31.0970   13.5520 O.2   375  NAD375     -0.5170
      4  O5B       23.8140   32.2860   15.3580 O.3   375  NAD375     -0.3112
      5  C5B       23.7480   33.1580   16.4930 C.3   375  NAD375      0.1813
      6  C4B       22.5060   33.9640   16.2570 C.3   375  NAD375      0.1821
      7  O4B       22.1990   34.5870   17.5080 O.3   375  NAD375     -0.3135
      8  C3B       22.7300   35.0640   15.2210 C.3   375  NAD375      0.2184
      9  O3B       21.7100   35.1350   14.2070 O.3   375  NAD375     -0.2174
     10  C2B       22.7610   36.3350   16.0620 C.3   375  NAD375      0.2570
     11  O2B       22.3000   37.4610   15.2870 O.3   375  NAD375     -0.2130
     12  C1B       21.8570   35.9420   17.2110 C.3   375  NAD375      0.3186
     13  N9A       21.9430   36.8770   18.3540 N.pl3 375  NAD375     -0.1439
     14  C8A       23.0500   37.4460   18.8730 C.3   375  NAD375      0.3377
     15  N7A       22.7280   38.2270   19.9100 N.2   375  NAD375     -0.2095
     16  C5A       21.4090   38.1100   19.9910 C.2   375  NAD375      0.2526
     17  C6A       20.6150   38.7570   20.9170 C.2   375  NAD375      0.4393
     18  N6A       21.1540   39.5620   21.8310 N.pl3 375  NAD375      0.2180
     19  N1A       19.2910   38.5180   20.8260 N.2   375  NAD375      0.0021
     20  C2A       18.7690   37.7050   19.9080 C.3   375  NAD375      0.5254
     21  N3A       19.5430   37.0830   19.0160 N.2   375  NAD375     -0.0055
     22  C4A       20.8810   37.2770   19.0420 C.2   375  NAD375      0.3518
     23  O3        25.4320   30.4200   15.9550 O.3   375  NAD375     -0.2703
     24  PN        25.1660   28.8450   15.9600 P.3   375  NAD375      0.2189
     25  O1N       26.2670   28.2300   15.1770 O.2   375  NAD375     -0.5170
     26  O2N       23.7300   28.6310   15.6090 O.3   375  NAD375     -0.4371
     27  O5D       25.3550   28.4540   17.5020 O.3   375  NAD375     -0.3112
     28  C5D       24.8070   29.3060   18.5110 C.3   375  NAD375      0.1813
     29  C4D       25.3520   28.9430   19.8850 C.3   375  NAD375      0.1799
     30  O4D       25.2510   27.5190   20.0600 O.3   375  NAD375     -0.3327
     31  C3D       26.8110   29.1980   20.0890 C.3   375  NAD375      0.2158
     32  O3D       27.0830   29.8030   21.3610 O.3   375  NAD375     -0.2175
     33  C2D       27.4330   27.8050   20.0040 C.3   375  NAD375      0.2309
     34  O2D       28.7200   27.8730   20.6150 O.3   375  NAD375     -0.2158
     35  C1D       26.4190   26.9670   20.7220 C.3   375  NAD375      0.2263
     36  N1N       26.3160   25.4980   20.4960 N.pl3 375  NAD375     -0.2787
     37  C2N       26.1230   24.6040   21.5930 C.3   375  NAD375      0.1244
     38  C3N       25.9040   23.2340   21.3940 C.2   375  NAD375      0.0544
     39  C7N       25.5050   22.2530   22.5280 C.2   375  NAD375      0.2818
     40  O7N       25.6640   21.0380   22.3920 O.2   375  NAD375     -0.2670
     41  N7N       24.9560   22.7840   23.6330 N.am  375  NAD375     -0.0839
     42  C4N       25.9060   22.7620   20.0640 C.2   375  NAD375      0.0033
     43  C5N       26.1020   23.6160   18.9670 C.2   375  NAD375      0.0157
     44  C6N       26.3030   24.9870   19.1740 C.2   375  NAD375      0.0633
@<TRIPOS>BOND
     1     3     1    2
     2     9     8    1
     3     1     2    1
     4     1     4    1
     5     1    23    1
     6    25    24    2
     7     8    10    1
     8     8     6    1
     9    11    10    1
    10     4     5    1
    11    26    24    1
    12    23    24    1
    13    24    27    1
    14    10    12    1
    15     6     5    1
    16     6     7    1
    17    12     7    1
    18    12    13    1
    19    27    28    1
    20    13    14    1
    21    13    22    1
    22    28    29    1
    23    14    15    1
    24    43    44    2
    25    43    42    1
    26    21    22    2
    27    21    20    1
    28    22    16    1
    29    44    36    1
    30    29    30    1
    31    29    31    1
    32    20    19    1
    33    15    16    2
    34    16    17    1
    35    33    31    1
    36    33    34    1
    37    33    35    1
    38    30    35    1
    39    42    38    2
    40    31    32    1
    41    36    35    1
    42    36    37    1
    43    19    17    2
    44    17    18    1
    45    38    37    1
    46    38    39    1
    47    40    39    2
    48    39    41   am
