@<TRIPOS>MOLECULE
1cdr_NAG_A_1.pdb
 26 26 0 0 0
SMALL
GASTEIGER

@<TRIPOS>ATOM
      1  C1         9.2800  -12.5720   -0.0270 C.3    78  NAG78       0.1079
      2  C2        10.6260  -11.9840    0.3760 C.3    78  NAG78       0.0802
      3  C3        11.7310  -12.8190   -0.2420 C.3    78  NAG78       0.1076
      4  C4        11.5860  -14.2430    0.2560 C.3    78  NAG78       0.1495
      5  C5        10.2130  -14.7690   -0.1560 C.3    78  NAG78       0.1170
      6  C6         9.9620  -16.1920    0.3000 C.3    78  NAG78       0.1116
      7  C7        10.5650   -9.6300    0.7650 C.2    78  NAG78       0.2103
      8  C8        10.6890   -8.2180    0.2200 C.3    78  NAG78       0.0122
      9  N2        10.7300  -10.6120   -0.0770 N.am   78  NAG78      -0.3075
     10  O3        12.9990  -12.2940    0.1220 O.3    78  NAG78      -0.3871
     11  O4        12.6290  -15.0680   -0.3090 O.3    78  NAG78      -0.2256
     12  O5         9.1770  -13.9360    0.4140 O.3    78  NAG78      -0.3637
     13  O6        10.1830  -17.1040   -0.7930 O.3    78  NAG78      -0.2320
     14  O7        10.3230   -9.8400    1.9370 O.2    78  NAG78      -0.2761
     15  H1         9.1800  -12.5700   -1.1230 H      78  NAG78       0.0642
     16  H2        10.7190  -12.0230    1.4710 H      78  NAG78       0.0551
     17  H3        11.6170  -12.8090   -1.3360 H      78  NAG78       0.0641
     18  H4        11.6460  -14.2410    1.3510 H      78  NAG78       0.0682
     19  H5        10.1190  -14.7180   -1.2500 H      78  NAG78       0.0648
     20  H61        8.9270  -16.2760    0.6620 H      78  NAG78       0.0618
     21  H62       10.6380  -16.4280    1.1340 H      78  NAG78       0.0618
     22  H81       11.0470   -7.5370    1.0050 H      78  NAG78       0.0322
     23  H82        9.7130   -7.8600   -0.1360 H      78  NAG78       0.0322
     24  H83       11.3990   -8.1920   -0.6180 H      78  NAG78       0.0322
     25  HN2       10.9270  -10.4220   -1.0180 H      78  NAG78       0.1491
     26  HO3       13.1940  -11.5260   -0.4190 H      78  NAG78       0.2100
@<TRIPOS>BOND
     1    17     3    1
     2    19     5    1
     3    15     1    1
     4    25     9    1
     5    13     6    1
     6    24     8    1
     7    26    10    1
     8    11     4    1
     9     3    10    1
    10     3     4    1
    11     3     2    1
    12     5     4    1
    13     5     6    1
    14     5    12    1
    15    23     8    1
    16     9     2    1
    17     9     7   am
    18     1     2    1
    19     1    12    1
    20     8     7    1
    21     8    22    1
    22     4    18    1
    23     6    20    1
    24     6    21    1
    25     2    16    1
    26     7    14    2
