@<TRIPOS>MOLECULE
1cds_NAG_A_1.pdb
 27 27 0 0 0
SMALL
GASTEIGER

@<TRIPOS>ATOM
      1  C1         7.9990  -12.5340   -2.8190 C.3    78  NAG78       0.1078
      2  C2         9.4790  -12.2120   -2.6460 C.3    78  NAG78       0.0802
      3  C3        10.2780  -13.0140   -3.6580 C.3    78  NAG78       0.1076
      4  C4        10.0050  -14.4870   -3.4150 C.3    78  NAG78       0.1493
      5  C5         8.5080  -14.7450   -3.5740 C.3    78  NAG78       0.1137
      6  C6         8.1280  -16.1940   -3.3390 C.3    78  NAG78       0.0730
      7  C7        10.0550  -10.0440   -1.8270 C.2    78  NAG78       0.2103
      8  C8        10.2840   -8.5650   -2.0960 C.3    78  NAG78       0.0122
      9  N2         9.7100  -10.7930   -2.8400 N.am   78  NAG78      -0.3075
     10  O3        11.6640  -12.7380   -3.5180 O.3    78  NAG78      -0.3871
     11  O4        10.7490  -15.2900   -4.3510 O.3    78  NAG78      -0.2256
     12  O5         7.7680  -13.9390   -2.6270 O.3    78  NAG78      -0.3638
     13  O6         7.5340  -16.7640   -4.4970 O.3    78  NAG78      -0.3924
     14  O7        10.1880  -10.5130   -0.7150 O.2    78  NAG78      -0.2761
     15  H1         7.6770  -12.2830   -3.8420 H      78  NAG78       0.0642
     16  H2         9.7910  -12.5030   -1.6330 H      78  NAG78       0.0551
     17  H3         9.9390  -12.7510   -4.6700 H      78  NAG78       0.0641
     18  H4        10.3000  -14.7380   -2.3860 H      78  NAG78       0.0682
     19  H5         8.1940  -14.4470   -4.5840 H      78  NAG78       0.0647
     20  H61        7.4270  -16.2440   -2.4950 H      78  NAG78       0.0584
     21  H62        9.0310  -16.7570   -3.0660 H      78  NAG78       0.0584
     22  H81        9.6690   -8.2310   -2.9420 H      78  NAG78       0.0322
     23  H82       11.3410   -8.3800   -2.3360 H      78  NAG78       0.0322
     24  H83       10.0170   -7.9720   -1.2100 H      78  NAG78       0.0322
     25  HN2        9.6060  -10.3970   -3.7290 H      78  NAG78       0.1491
     26  HO3       11.8130  -12.2610   -2.6980 H      78  NAG78       0.2100
     27  HO6        6.5960  -16.8950   -4.3410 H      78  NAG78       0.2095
@<TRIPOS>BOND
     1    17     3    1
     2    19     5    1
     3    13    27    1
     4    13     6    1
     5    11     4    1
     6    15     1    1
     7    25     9    1
     8     3    10    1
     9     3     4    1
    10     3     2    1
    11     5     4    1
    12     5     6    1
    13     5    12    1
    14    10    26    1
    15     4    18    1
    16     6    21    1
    17     6    20    1
    18    22     8    1
    19     9     2    1
    20     9     7   am
    21     1     2    1
    22     1    12    1
    23     2    16    1
    24    23     8    1
    25     8     7    1
    26     8    24    1
    27     7    14    2
