@<TRIPOS>MOLECULE
1ce1_III_P_1.pdb
 48 48 0 0 0
SMALL
GASTEIGER

@<TRIPOS>ATOM
      1  CA        10.5490   29.0930   78.3010 C.3     0  GLY0        0.0964
      2  C          9.7540   28.6220   77.1030 C.2     0  GLY0        0.2423
      3  O          8.8300   29.3120   76.6430 O.2     0  GLY0       -0.2733
      4  N         10.2560   27.5860   76.7410 N.am    1  THR1       -0.1951
      5  CA         9.6930   26.8830   75.5740 C.3     1  THR1        0.2028
      6  C          8.2200   26.5640   75.8510 C.2     1  THR1        0.2643
      7  O          7.8480   26.2570   76.9820 O.2     1  THR1       -0.2714
      8  CB        10.4510   25.5790   75.2840 C.3     1  THR1        0.1808
      9  OG1        9.7340   24.8150   74.2770 O.3     1  THR1       -0.2208
     10  CG2       10.5620   24.7380   76.5550 C.3     1  THR1        0.0379
     11  N          7.4300   26.5810   74.8040 N.am    2  SER2       -0.1935
     12  CA         6.0250   26.2230   74.8510 C.3     2  SER2        0.2055
     13  C          5.8200   24.7390   74.5530 C.2     2  SER2        0.2644
     14  O          4.7140   24.2320   74.5850 O.2     2  SER2       -0.2714
     15  CB         5.2840   27.0700   73.7920 C.3     2  SER2        0.2130
     16  OG         5.9140   26.9370   72.5300 O.3     2  SER2       -0.2179
     17  N          6.9120   24.0690   74.1540 N.am    3  SER3       -0.1936
     18  CA         6.8210   22.6540   73.7880 C.3     3  SER3        0.2040
     19  C          6.6890   21.7570   74.9780 C.2     3  SER3        0.2485
     20  O          7.5590   21.7520   75.8860 O.2     3  SER3       -0.2729
     21  CB         8.0830   22.2890   72.9650 C.3     3  SER3        0.2129
     22  OG         7.9640   20.9140   72.5840 O.3     3  SER3       -0.2179
     23  N          5.7210   20.8410   74.9880 N.am    4  PRO4       -0.2715
     24  CA         5.5350   19.9290   76.1070 C.3     4  PRO4        0.1536
     25  C          6.5860   18.8440   76.1910 C.2     4  PRO4        0.2599
     26  O          6.6850   18.1490   77.2140 O.2     4  PRO4       -0.2715
     27  CB         4.1620   19.3160   75.8520 C.3     4  PRO4        0.0310
     28  CG         3.9700   19.4260   74.3700 C.3     4  PRO4        0.0237
     29  CD         4.6780   20.6940   73.9600 C.3     4  PRO4        0.0939
     30  N          7.3610   18.6310   75.1220 N.am    5  SER5       -0.1936
     31  CA         8.3740   17.5730   75.1460 C.3     5  SER5        0.2055
     32  C          9.7250   18.1290   75.5940 C.2     5  SER5        0.2643
     33  O         10.7490   17.4560   75.4460 O.2     5  SER5       -0.2714
     34  CB         8.5070   16.8930   73.7910 C.3     5  SER5        0.2130
     35  OG         8.7540   17.8690   72.7550 O.3     5  SER5       -0.2179
     36  N          9.7740   19.4270   75.9140 N.am    6  ALA6       -0.1963
     37  CA        11.0600   20.0100   76.3250 C.3     6  ALA6        0.1728
     38  C         11.4250   19.5910   77.7260 C.2     6  ALA6        0.2616
     39  O         12.6160   19.5160   78.0790 O.2     6  ALA6       -0.2715
     40  CB        11.0870   21.4890   76.1120 C.3     6  ALA6        0.0334
     41  N         10.4260   19.3910   78.6070 N.am    7  ASP7       -0.1971
     42  CA        10.7220   19.0190   79.9720 C.3     7  ASP7        0.1709
     43  C         10.1750   17.7250   80.4660 C.2     7  ASP7        0.2293
     44  O          9.0010   17.5950   80.8380 O.2     7  ASP7       -0.2864
     45  CB        10.4800   20.1810   80.9320 C.3     7  ASP7        0.1436
     46  CG        11.6970   21.1210   80.8630 C.2     7  ASP7        0.3671
     47  OD1       12.7890   20.5940   80.5980 O.co2   7  ASP7       -0.2456
     48  OD2       11.5140   22.3290   80.9760 O.co2   7  ASP7       -0.2456
@<TRIPOS>BOND
     1    16    15    1
     2    22    21    1
     3    35    34    1
     4    21    18    1
     5    18    17    1
     6    18    19    1
     7    34    31    1
     8    15    12    1
     9    29    28    1
    10    29    23    1
    11    17    13   am
    12     9     8    1
    13    28    27    1
    14    13    14    2
    15    13    12    1
    16    11    12    1
    17    11     6   am
    18    19    23   am
    19    19    20    2
    20    23    24    1
    21    30    31    1
    22    30    25   am
    23    31    32    1
    24     8     5    1
    25     8    10    1
    26    33    32    2
    27     5     6    1
    28     5     4    1
    29    32    36   am
    30     6     7    2
    31    27    24    1
    32    36    37    1
    33    24    25    1
    34    40    37    1
    35    25    26    2
    36    37    38    1
    37     3     2    2
    38     4     2   am
    39     2     1    1
    40    38    39    2
    41    38    41   am
    42    41    42    1
    43    42    43    1
    44    42    45    1
    45    43    44    2
    46    47    46   ar
    47    46    45    1
    48    46    48   ar
