@<TRIPOS>MOLECULE
1ce8_IMP_A_1.pdb
 23 25 0 0 0
SMALL
GASTEIGER

@<TRIPOS>ATOM
      1  P         25.1500    9.3420   33.8570 P.3   5012  IMP5012     0.5327
      2  O1P       25.0390    8.2320   34.8530 O.3   5012  IMP5012    -0.1145
      3  O2P       24.0350    9.2950   32.8830 O.2   5012  IMP5012    -0.2224
      4  O3P       26.4390    9.2730   33.1910 O.3   5012  IMP5012    -0.1145
      5  O5'       25.2750   10.7570   34.6490 O.3   5012  IMP5012    -0.2675
      6  C5'       25.8820   10.8910   35.9570 C.3   5012  IMP5012     0.1860
      7  C4'       25.9360   12.3540   36.2540 C.3   5012  IMP5012     0.1823
      8  O4'       24.5800   12.8570   36.3320 O.3   5012  IMP5012    -0.3135
      9  C3'       26.6720   12.8420   37.5010 C.3   5012  IMP5012     0.2184
     10  O3'       27.8810   13.5950   37.1090 O.3   5012  IMP5012    -0.2174
     11  C2'       25.5600   13.4880   38.3400 C.3   5012  IMP5012     0.2570
     12  O2'       25.9280   14.6640   39.1410 O.3   5012  IMP5012    -0.2130
     13  C1'       24.5260   13.8370   37.2870 C.3   5012  IMP5012     0.3186
     14  N9        23.1290   13.8670   37.7420 N.pl3 5012  IMP5012    -0.1435
     15  C8        22.4960   13.0500   38.6220 C.3   5012  IMP5012     0.3382
     16  N7        21.2090   13.3720   38.8050 N.2   5012  IMP5012    -0.2054
     17  C5        21.0220   14.4670   37.9800 C.2   5012  IMP5012     0.2446
     18  C6        19.8620   15.2380   37.7260 C.1   5012  IMP5012     0.1792
     19  O6        18.6860   14.9880   38.3260 O.2   5012  IMP5012    -0.2203
     20  N1        20.0200   16.2850   36.8550 N.2   5012  IMP5012    -0.1458
     21  C2        21.2560   16.4850   36.2810 C.3   5012  IMP5012     0.4017
     22  N3        22.3660   15.8160   36.4360 N.2   5012  IMP5012    -0.0334
     23  C4        22.1890   14.7910   37.3150 C.2   5012  IMP5012     0.3528
@<TRIPOS>BOND
     1     3     1    2
     2     4     1    1
     3     1     5    1
     4     1     2    1
     5     5     6    1
     6     6     7    1
     7     7     8    1
     8     7     9    1
     9    21    22    1
    10    21    20    1
    11     8    13    1
    12    22    23    2
    13    20    18    2
    14    10     9    1
    15    13    14    1
    16    13    11    1
    17    23    14    1
    18    23    17    1
    19     9    11    1
    20    18    17    1
    21    18    19    2
    22    14    15    1
    23    17    16    2
    24    11    12    1
    25    15    16    1
