@<TRIPOS>MOLECULE
1ce8_ADP_A_1.pdb
 27 29 0 0 0
SMALL
GASTEIGER

@<TRIPOS>ATOM
      1  PB        18.1180   29.1160   70.2100 P.3   5000  ADP5000     0.5373
      2  O1B       19.2570   30.1550   70.4330 O.3   5000  ADP5000    -0.1143
      3  O2B       18.2730   28.2880   68.9640 O.2   5000  ADP5000    -0.2221
      4  O3B       17.8830   28.2560   71.4350 O.3   5000  ADP5000    -0.1143
      5  PA        16.1720   31.1490   70.8440 P.3   5000  ADP5000     0.2231
      6  O1A       17.2840   31.8160   71.6100 O.2   5000  ADP5000    -0.5169
      7  O2A       15.0050   30.9320   71.7010 O.3   5000  ADP5000    -0.4370
      8  O3A       16.6490   29.8180   70.1700 O.3   5000  ADP5000    -0.2261
      9  O5'       15.7550   31.9980   69.5330 O.3   5000  ADP5000    -0.3111
     10  C5'       16.7920   32.5630   68.6860 C.3   5000  ADP5000     0.1813
     11  C4'       16.5350   34.0250   68.3890 C.3   5000  ADP5000     0.1821
     12  O4'       15.2320   34.1380   67.7620 O.3   5000  ADP5000    -0.3135
     13  C3'       16.4940   35.0090   69.5840 C.3   5000  ADP5000     0.2184
     14  O3'       17.8770   35.2800   70.0500 O.3   5000  ADP5000    -0.2174
     15  C2'       15.7280   36.1520   68.9030 C.3   5000  ADP5000     0.2570
     16  O2'       16.5340   37.0580   68.0570 O.3   5000  ADP5000    -0.2130
     17  C1'       14.7390   35.4360   67.9960 C.3   5000  ADP5000     0.3186
     18  N9        13.4000   35.3460   68.5500 N.pl3 5000  ADP5000    -0.1439
     19  C8        12.9280   34.4880   69.5090 C.3   5000  ADP5000     0.3377
     20  N7        11.6200   34.5820   69.7270 N.2   5000  ADP5000    -0.2095
     21  C5        11.2280   35.6100   68.8800 C.2   5000  ADP5000     0.2526
     22  C6         9.9560   36.2180   68.6570 C.2   5000  ADP5000     0.4393
     23  N6         8.7920   35.8990   69.2550 N.pl3 5000  ADP5000     0.2180
     24  N1         9.9510   37.2020   67.7370 N.2   5000  ADP5000     0.0021
     25  C2        11.1130   37.5330   67.1120 C.3   5000  ADP5000     0.5254
     26  N3        12.3110   37.0560   67.2700 N.2   5000  ADP5000    -0.0055
     27  C4        12.3160   36.0900   68.1680 C.2   5000  ADP5000     0.3518
@<TRIPOS>BOND
     1    25    26    1
     2    25    24    1
     3    26    27    2
     4    24    22    2
     5    12    17    1
     6    12    11    1
     7    17    18    1
     8    17    15    1
     9    16    15    1
    10    27    18    1
    11    27    21    1
    12    11    10    1
    13    11    13    1
    14    18    19    1
    15    22    21    1
    16    22    23    1
    17    10     9    1
    18    21    20    2
    19    15    13    1
    20     3     1    2
    21    19    20    1
    22     9     5    1
    23    13    14    1
    24     8     1    1
    25     8     5    1
    26     1     2    1
    27     1     4    1
    28     5     6    2
    29     5     7    1
