@<TRIPOS>MOLECULE
1ceb_AMH_A_1.pdb
 11 11 0 0 0
SMALL
GASTEIGER

@<TRIPOS>ATOM
      1  C1        21.9090   -3.5670   40.8230 C.3    90  AMH90       0.1034
      2  C2        22.0520   -2.2980   40.0920 C.3    90  AMH90       0.0113
      3  C3        20.7430   -1.6000   39.9020 C.3    90  AMH90       0.0020
      4  C4        19.8410   -1.6570   41.0620 C.3    90  AMH90       0.0191
      5  C5        19.7300   -2.9920   41.7890 C.3    90  AMH90       0.0020
      6  C6        21.0410   -3.6860   42.0220 C.3    90  AMH90       0.0113
      7  C7        18.3710   -1.0160   40.8590 C.3    90  AMH90       0.1093
      8  C8        23.0010   -4.6150   40.7470 C.2    90  AMH90       0.3643
      9  N         18.1280   -0.5020   42.1640 N.3    90  AMH90      -0.1314
     10  O1        24.2000   -4.4640   40.9570 O.co2  90  AMH90      -0.2457
     11  O2        22.5780   -5.7630   40.3660 O.co2  90  AMH90      -0.2457
@<TRIPOS>BOND
     1     3     2    1
     2     3     4    1
     3     2     1    1
     4    11     8   ar
     5     8     1    1
     6     8    10   ar
     7     1     6    1
     8     7     4    1
     9     7     9    1
    10     4     5    1
    11     5     6    1
