@<TRIPOS>MOLECULE
1ced_HEM_A_1.pdb
 43 50 0 0 0
SMALL
GASTEIGER

@<TRIPOS>ATOM
      1 FE          0.7590    5.1870   -1.1180 Fe     90  HEM90       0.0000
      2  CHA       -2.5490    5.9790   -0.3830 C.2    90  HEM90       0.0000
      3  CHB        0.1650    1.8860   -0.4490 C.2    90  HEM90       0.0000
      4  CHC        3.9180    4.4500   -2.3210 C.2    90  HEM90       0.0000
      5  CHD        1.4420    8.6020   -1.4810 C.2    90  HEM90       0.0000
      6  NA        -0.9010    4.1230   -0.5740 N.2    90  HEM90       0.0000
      7  C1A       -2.1390    4.6480   -0.3270 C.2    90  HEM90       0.0000
      8  C2A       -2.9950    3.5640    0.0900 C.2    90  HEM90       0.0000
      9  C3A       -2.2370    2.4160    0.0650 C.2    90  HEM90       0.0000
     10  C4A       -0.8990    2.7840   -0.3320 C.2    90  HEM90       0.0000
     11  CMA       -2.7120    1.0210    0.3630 C.3    90  HEM90       0.0000
     12  CAA       -4.3800    3.7240    0.6700 C.3    90  HEM90       0.0000
     13  CBA       -4.3270    4.1640    2.1380 C.3    90  HEM90       0.0000
     14  CGA       -5.6850    4.6150    2.6540 C.2    90  HEM90       0.0000
     15  O1A       -5.6880    5.3490    3.6650 O.co2  90  HEM90       0.0000
     16  O2A       -6.6890    4.2900    1.9890 O.co2  90  HEM90       0.0000
     17  NB         1.8510    3.4700   -1.3430 N.ar   90  HEM90       0.0000
     18  C1B        1.4100    2.2320   -0.9850 C.ar   90  HEM90       0.0000
     19  C2B        2.4720    1.2960   -1.2740 C.ar   90  HEM90       0.0000
     20  C3B        3.4950    2.0030   -1.8740 C.ar   90  HEM90       0.0000
     21  C4B        3.1090    3.3960   -1.8770 C.ar   90  HEM90       0.0000
     22  CMB        2.4760   -0.1760   -0.9310 C.3    90  HEM90       0.0000
     23  CAB        4.8050    1.4380   -2.3920 C.3    90  HEM90       0.0000
     24  CBB        4.6530    0.6100   -3.6710 C.3    90  HEM90       0.0000
     25  NC         2.3820    6.3210   -1.7920 N.2    90  HEM90       0.0000
     26  C1C        3.5660    5.7920   -2.2070 C.2    90  HEM90       0.0000
     27  C2C        4.4600    6.8890   -2.4940 C.2    90  HEM90       0.0000
     28  C3C        3.8060    8.0520   -2.1480 C.2    90  HEM90       0.0000
     29  C4C        2.4500    7.6870   -1.7970 C.2    90  HEM90       0.0000
     30  CMC        5.8870    6.7600   -2.9780 C.3    90  HEM90       0.0000
     31  CAC        4.4390    9.4150   -1.9230 C.3    90  HEM90       0.0000
     32  CBC        4.8670   10.1370   -3.2020 C.3    90  HEM90       0.0000
     33  ND        -0.3560    6.9810   -0.9460 N.ar   90  HEM90       0.0000
     34  C1D        0.1440    8.2390   -1.1280 C.ar   90  HEM90       0.0000
     35  C2D       -0.9530    9.1660   -0.9590 C.ar   90  HEM90       0.0000
     36  C3D       -2.0800    8.4230   -0.7130 C.ar   90  HEM90       0.0000
     37  C4D       -1.6860    7.0370   -0.6580 C.ar   90  HEM90       0.0000
     38  CMD       -0.9460   10.6630   -1.1330 C.3    90  HEM90       0.0000
     39  CAD       -3.4900    8.9530   -0.7210 C.3    90  HEM90       0.0000
     40  CBD       -4.0350    9.0640   -2.1500 C.3    90  HEM90       0.0000
     41  CGD       -5.4420    8.5050   -2.2670 C.2    90  HEM90       0.0000
     42  O1D       -6.3400    9.2840   -2.6450 O.co2  90  HEM90       0.0000
     43  O2D       -5.5900    7.2820   -2.0440 O.co2  90  HEM90       0.0000
@<TRIPOS>BOND
     1    24    23    1
     2    32    31    1
     3    30    27    1
     4    42    41   ar
     5    27    26    1
     6    27    28    2
     7    23    20    1
     8     4    26    2
     9     4    21    1
    10    41    40    1
    11    41    43   ar
    12    26    25    1
    13    40    39    1
    14    28    31    1
    15    28    29    1
    16    21    20   ar
    17    21    17   ar
    18    20    19   ar
    19    29    25    2
    20    29     5    1
    21    25     1    1
    22     5    34    2
    23    17     1    1
    24    17    18   ar
    25    19    18   ar
    26    19    22    1
    27    38    35    1
    28    34    35   ar
    29    34    33   ar
    30     1    33    1
    31     1     6    1
    32    18     3    1
    33    35    36   ar
    34    33    37   ar
    35    39    36    1
    36    36    37   ar
    37    37     2    2
    38     6    10    1
    39     6     7    2
    40     3    10    2
    41     2     7    1
    42    10     9    1
    43     7     8    1
    44     9     8    2
    45     9    11    1
    46     8    12    1
    47    12    13    1
    48    16    14   ar
    49    13    14    1
    50    14    15   ar
