@<TRIPOS>MOLECULE
1cef_CEF_A_1.pdb
 26 27 0 0 0
SMALL
GASTEIGER

@<TRIPOS>ATOM
      1  S1        17.7480  -13.0290   42.9870 S.3   400  CEF400     -0.1100
      2  C2        18.1460  -11.8190   44.2380 C.3   400  CEF400      0.0873
      3  C3        18.9540  -10.7170   43.8470 C.2   400  CEF400      0.0125
      4  C3'       19.8400  -10.1690   44.6940 C.2   400  CEF400     -0.0020
      5  C4        18.7950  -10.1080   42.4900 C.2   400  CEF400      0.1534
      6  C4'       19.6740   -8.9230   41.9180 C.2   400  CEF400      0.4044
      7  O4A       19.0790   -7.8760   41.5670 O.co2 400  CEF400     -0.2389
      8  O4B       20.9170   -9.0690   41.8260 O.co2 400  CEF400     -0.2389
      9  N5        17.7400  -10.5090   41.7410 N.2   400  CEF400     -0.2528
     10  C6        17.1200  -11.8520   41.7660 C.3   400  CEF400      0.1784
     11  C7        17.1170  -12.4490   40.2740 C.3   400  CEF400      0.1923
     12  C8        16.6460  -11.3500   39.3410 C.2   400  CEF400      0.2316
     13  O9        17.3020  -11.0310   38.3460 O.2   400  CEF400     -0.2863
     14  N10       18.4360  -12.9430   39.9030 N.am  400  CEF400     -0.1910
     15  C11       18.7270  -14.2380   39.9530 C.2   400  CEF400      0.2884
     16  O12       17.8550  -15.1000   40.0850 O.2   400  CEF400     -0.2665
     17  C13       20.1260  -14.4820   39.8050 C.2   400  CEF400      0.2002
     18  N16       20.6420  -15.3350   38.9220 N.2   400  CEF400     -0.0759
     19  O17       19.7700  -15.5200   37.7920 O.2   400  CEF400     -0.3729
     20  C18       20.5100  -16.1980   36.8030 C.3   400  CEF400      0.2885
     21  C14       21.1660  -13.8410   40.6420 C.2   400  CEF400      0.1478
     22  C15       20.9540  -13.3840   41.9800 C.3   400  CEF400      0.1266
     23  S16       22.2060  -12.4210   42.5350 S.3   400  CEF400     -0.0564
     24  C17       23.1660  -12.8600   41.2340 C.2   400  CEF400      0.2461
     25  N18       24.5000  -12.4640   41.0590 N.pl3 400  CEF400     -0.0867
     26  N19       22.4940  -13.6250   40.3770 N.2   400  CEF400     -0.3794
@<TRIPOS>BOND
     1    20    19    1
     2    19    18    1
     3    13    12    2
     4    18    17    2
     5    12    11    1
     6    17    15    1
     7    17    21    1
     8    14    15   am
     9    14    11    1
    10    15    16    2
    11    11    10    1
    12    26    21    2
    13    26    24    2
    14    21    22    1
    15    25    24    1
    16    24    23    1
    17     7     6   ar
    18     9    10    1
    19     9     5    2
    20    10     1    1
    21     8     6   ar
    22     6     5    1
    23    22    23    1
    24     5     3    1
    25     1     2    1
    26     3     2    1
    27     3     4    2
