@<TRIPOS>MOLECULE
1ceg_CEP_A_1.pdb
 22 23 0 0 0
SMALL
GASTEIGER

@<TRIPOS>ATOM
      1  S1        18.1020  -13.1900   41.8500 S.3   400  CEP400     -0.1145
      2  C2        18.4150  -12.1830   43.4010 C.3   400  CEP400      0.0656
      3  C3        18.8050  -10.7070   43.0850 C.3   400  CEP400      0.0574
      4  C3'       19.0640   -9.8430   44.1280 C.3   400  CEP400      0.0074
      5  C4        18.8140  -10.1930   41.6050 C.2   400  CEP400      0.1345
      6  C4'       19.7480   -9.0630   41.0960 C.2   400  CEP400      0.4007
      7  O4A       19.2310   -8.0150   40.6330 O.co2 400  CEP400     -0.2392
      8  O4B       20.9890   -9.2490   41.1010 O.co2 400  CEP400     -0.2392
      9  N5        17.9280  -10.7250   40.6660 N.2   400  CEP400     -0.2568
     10  C6        17.1610  -11.9690   40.8690 C.3   400  CEP400      0.1777
     11  C7        16.7870  -12.5110   39.4670 C.3   400  CEP400      0.1920
     12  C8        16.3160  -11.3120   38.6390 C.2   400  CEP400      0.2316
     13  O9        17.0890  -10.7740   37.8460 O.2   400  CEP400     -0.2863
     14  N10       17.9330  -13.0870   38.7720 N.am  400  CEP400     -0.1962
     15  C11       18.1380  -14.3950   38.7300 C.2   400  CEP400      0.2427
     16  O12       17.4290  -15.2020   39.3490 O.2   400  CEP400     -0.2733
     17  C13       19.3420  -14.8590   37.9450 C.3   400  CEP400      0.0976
     18  C14       20.5260  -15.3410   38.7130 C.3   400  CEP400      0.0568
     19  C15       21.5260  -14.5160   39.2060 C.3   400  CEP400      0.0122
     20  C16       22.1240  -15.3130   40.2710 C.3   400  CEP400      0.0125
     21  C17       21.8520  -16.5730   40.2810 C.3   400  CEP400      0.0576
     22  S19       20.6970  -16.9120   39.1150 S.3   400  CEP400     -0.1406
@<TRIPOS>BOND
     1    13    12    2
     2    17    18    1
     3    17    15    1
     4    12    11    1
     5    18    22    1
     6    18    19    1
     7    15    14   am
     8    15    16    2
     9    14    11    1
    10    22    21    1
    11    19    20    1
    12    11    10    1
    13    20    21    1
    14     7     6   ar
    15     9    10    1
    16     9     5    2
    17    10     1    1
    18     6     8   ar
    19     6     5    1
    20     5     3    1
    21     1     2    1
    22     3     2    1
    23     3     4    1
