@<TRIPOS>MOLECULE
1cel_BGC_A_1.pdb
 11 11 0 0 0
SMALL
GASTEIGER

@<TRIPOS>ATOM
      1  C2        24.7900   56.9600   65.9100 C.3   437  BGC437      0.2141
      2  C3        25.2930   58.3320   65.4450 C.3   437  BGC437      0.2173
      3  C4        24.8960   58.5130   63.9620 C.3   437  BGC437      0.2142
      4  C5        23.3700   58.2970   63.7880 C.3   437  BGC437      0.1810
      5  C6        22.7540   58.4900   62.4170 C.3   437  BGC437      0.2141
      6  C1        23.2940   56.7850   65.6040 C.3   437  BGC437      0.1777
      7  O2        24.9810   56.8410   67.2990 O.3   437  BGC437     -0.2176
      8  O3        26.7100   58.4700   65.6330 O.3   437  BGC437     -0.2175
      9  O4        25.2500   59.8170   63.5560 O.3   437  BGC437     -0.2176
     10  O5        23.0700   56.9760   64.2250 O.3   437  BGC437     -0.3481
     11  O6        23.2280   57.5420   61.5070 O.3   437  BGC437     -0.2176
@<TRIPOS>BOND
     1    11     5    1
     2     5     4    1
     3     9     3    1
     4     4     3    1
     5     4    10    1
     6     3     2    1
     7    10     6    1
     8     2     8    1
     9     2     1    1
    10     6     1    1
    11     1     7    1
