@<TRIPOS>MOLECULE
1cel_GLC_B_1.pdb
 11 11 0 0 0
SMALL
GASTEIGER

@<TRIPOS>ATOM
      1  C1       -15.6480   13.6450    9.5230 C.3   437  GLC437      0.1777
      2  C2       -14.1470   13.8300    9.8110 C.3   437  GLC437      0.2141
      3  C3       -13.6750   15.2220    9.3670 C.3   437  GLC437      0.2173
      4  C4       -14.0660   15.3880    7.8830 C.3   437  GLC437      0.2142
      5  C5       -15.5910   15.1580    7.6950 C.3   437  GLC437      0.1810
      6  C6       -16.2030   15.3300    6.3120 C.3   437  GLC437      0.2141
      7  O2       -13.9040   13.6740   11.1960 O.3   437  GLC437     -0.2176
      8  O3       -12.2600   15.3930    9.5800 O.3   437  GLC437     -0.2175
      9  O4       -13.7230   16.6900    7.4800 O.3   437  GLC437     -0.2176
     10  O5       -15.8900   13.8320    8.1390 O.3   437  GLC437     -0.3481
     11  O6       -15.4590   14.6300    5.3510 O.3   437  GLC437     -0.2176
@<TRIPOS>BOND
     1    11     6    1
     2     6     5    1
     3     9     4    1
     4     5     4    1
     5     5    10    1
     6     4     3    1
     7    10     1    1
     8     3     8    1
     9     3     2    1
    10     1     2    1
    11     2     7    1
