@<TRIPOS>MOLECULE
1cen_BGC_A_1.pdb
 11 11 0 0 0
SMALL
GASTEIGER

@<TRIPOS>ATOM
      1  C2        51.4560   22.9480   58.7550 C.3   350  BGC350      0.2141
      2  C3        52.0750   21.5970   58.3360 C.3   350  BGC350      0.2173
      3  C4        51.3480   20.3780   59.0790 C.3   350  BGC350      0.2142
      4  C5        49.8430   20.4240   58.6960 C.3   350  BGC350      0.1810
      5  C6        48.9760   19.2810   59.2530 C.3   350  BGC350      0.2141
      6  C1        49.9490   22.8740   58.5740 C.3   350  BGC350      0.1777
      7  O2        51.9630   24.0080   57.9730 O.3   350  BGC350     -0.2176
      8  O3        53.4640   21.6130   58.6340 O.3   350  BGC350     -0.2175
      9  O4        51.9060   19.0900   58.7900 O.3   350  BGC350     -0.2176
     10  O5        49.3270   21.6970   59.1600 O.3   350  BGC350     -0.3481
     11  O6        49.2100   19.1070   60.6490 O.3   350  BGC350     -0.2176
@<TRIPOS>BOND
     1     7     1    1
     2     2     8    1
     3     2     1    1
     4     2     3    1
     5     6     1    1
     6     6    10    1
     7     4     3    1
     8     4    10    1
     9     4     5    1
    10     9     3    1
    11     5    11    1
