@<TRIPOS>MOLECULE
1cer_NAD_A_1.pdb
 44 48 0 0 0
SMALL
GASTEIGER

@<TRIPOS>ATOM
      1  PA        44.7100   63.9010   21.6570 P.3   336  NAD336      0.2189
      2  O1A       43.2760   63.6100   22.0100 O.3   336  NAD336     -0.4371
      3  O2A       45.2500   63.8570   20.2780 O.2   336  NAD336     -0.5170
      4  O5B       45.8250   63.0000   22.4500 O.3   336  NAD336     -0.3112
      5  C5B       45.4590   62.2280   23.6290 C.3   336  NAD336      0.1813
      6  C4B       46.0960   60.8620   23.5180 C.3   336  NAD336      0.1821
      7  O4B       45.9610   60.2040   24.7830 O.3   336  NAD336     -0.3135
      8  C3B       45.4930   59.9000   22.4960 C.3   336  NAD336      0.2184
      9  O3B       46.5070   59.3860   21.5910 O.3   336  NAD336     -0.2174
     10  C2B       44.7470   58.8670   23.3750 C.3   336  NAD336      0.2570
     11  O2B       44.9590   57.5600   22.8160 O.3   336  NAD336     -0.2130
     12  C1B       45.5930   58.8400   24.5990 C.3   336  NAD336      0.3186
     13  N9A       45.0100   58.2460   25.8120 N.pl3 336  NAD336     -0.1439
     14  C8A       43.8070   58.4560   26.4120 C.3   336  NAD336      0.3377
     15  N7A       43.8170   57.9710   27.6720 N.2   336  NAD336     -0.2095
     16  C5A       45.0740   57.4690   27.7510 C.2   336  NAD336      0.2526
     17  C6A       45.6390   56.8390   28.8460 C.2   336  NAD336      0.4393
     18  N6A       44.8260   56.6650   29.8890 N.pl3 336  NAD336      0.2180
     19  N1A       46.9300   56.4000   28.7860 N.2   336  NAD336      0.0021
     20  C2A       47.6270   56.4970   27.6600 C.3   336  NAD336      0.5254
     21  N3A       47.0750   57.0670   26.6060 N.2   336  NAD336     -0.0055
     22  C4A       45.8280   57.5880   26.6260 C.2   336  NAD336      0.3518
     23  O3        44.9620   65.3390   22.3060 O.3   336  NAD336     -0.2703
     24  PN        46.1380   66.3640   22.2310 P.3   336  NAD336      0.2189
     25  O1N       45.4870   67.3350   21.3240 O.2   336  NAD336     -0.5170
     26  O2N       47.4220   65.6330   21.9240 O.3   336  NAD336     -0.4371
     27  O5D       46.0090   66.8700   23.7010 O.3   336  NAD336     -0.3112
     28  C5D       46.8910   66.3060   24.6070 C.3   336  NAD336      0.1813
     29  C4D       47.0100   67.2340   25.7940 C.3   336  NAD336      0.1799
     30  O4D       47.8440   68.3950   25.5160 O.3   336  NAD336     -0.3327
     31  C3D       45.7360   67.7430   26.4460 C.3   336  NAD336      0.2158
     32  O3D       45.8820   67.9570   27.8630 O.3   336  NAD336     -0.2175
     33  C2D       45.6410   69.0940   25.7640 C.3   336  NAD336      0.2309
     34  O2D       44.6860   69.9040   26.4300 O.3   336  NAD336     -0.2158
     35  C1D       47.0590   69.5870   25.7940 C.3   336  NAD336      0.2263
     36  N1N       47.4270   70.4910   24.7050 N.pl3 336  NAD336     -0.2787
     37  C2N       46.7810   70.4240   23.4480 C.3   336  NAD336      0.1244
     38  C3N       47.0440   71.3900   22.4650 C.2   336  NAD336      0.0544
     39  C7N       46.4040   71.3180   21.0940 C.2   336  NAD336      0.2818
     40  O7N       46.2360   72.2860   20.4050 O.2   336  NAD336     -0.2670
     41  N7N       46.1830   70.1460   20.5770 N.am  336  NAD336     -0.0839
     42  C4N       48.0100   72.3720   22.7310 C.2   336  NAD336      0.0033
     43  C5N       48.7150   72.3920   23.9560 C.2   336  NAD336      0.0157
     44  C6N       48.4150   71.4680   24.9540 C.2   336  NAD336      0.0633
@<TRIPOS>BOND
     1     3     1    2
     2    40    39    2
     3    41    39   am
     4    39    38    1
     5    25    24    2
     6     9     8    1
     7     1     2    1
     8     1    23    1
     9     1     4    1
    10    26    24    1
    11    24    23    1
    12    24    27    1
    13     4     5    1
    14    38    42    2
    15    38    37    1
    16     8    10    1
    17     8     6    1
    18    42    43    1
    19    11    10    1
    20    10    12    1
    21    37    36    1
    22     6     5    1
    23     6     7    1
    24    27    28    1
    25    43    44    2
    26    12     7    1
    27    12    13    1
    28    28    29    1
    29    36    44    1
    30    36    35    1
    31    30    29    1
    32    30    35    1
    33    33    35    1
    34    33    34    1
    35    33    31    1
    36    29    31    1
    37    13    14    1
    38    13    22    1
    39    14    15    1
    40    31    32    1
    41    21    22    2
    42    21    20    1
    43    22    16    1
    44    20    19    1
    45    15    16    2
    46    16    17    1
    47    19    17    2
    48    17    18    1
