@<TRIPOS>MOLECULE
1cet_CLQ_A_1.pdb
 22 23 0 0 0
SMALL
GASTEIGER

@<TRIPOS>ATOM
      1 CL         37.2970   16.5300   16.4670 Cl    1001  CLQ1001    -0.0822
      2  N1        35.7010   11.6500   16.1060 N.2   1001  CLQ1001    -0.2474
      3  C1        35.1830   10.5030   16.5910 C.2   1001  CLQ1001     0.0997
      4  C2        34.8220   10.3740   17.9260 C.2   1001  CLQ1001     0.0356
      5  C3        35.0150   11.4690   18.8760 C.2   1001  CLQ1001     0.0645
      6  C4        35.5920   12.7270   18.3580 C.3   1001  CLQ1001     0.1019
      7  C5        35.8420   13.9310   19.1500 C.2   1001  CLQ1001    -0.0137
      8  C6        36.3770   15.0900   18.5720 C.2   1001  CLQ1001     0.0076
      9  C7        36.6750   15.0930   17.1700 C.2   1001  CLQ1001     0.0586
     10  C8        36.4550   13.9680   16.3590 C.2   1001  CLQ1001     0.0268
     11  C9        35.9160   12.7830   16.9300 C.2   1001  CLQ1001     0.0691
     12  N2        34.6720   11.3700   20.1980 N.2   1001  CLQ1001    -0.2759
     13  C10       34.2140   10.1460   20.9380 C.3   1001  CLQ1001     0.1030
     14  C11       35.3120    9.0730   20.8840 C.3   1001  CLQ1001     0.0257
     15  C12       36.6190    9.3990   21.5830 C.3   1001  CLQ1001     0.0193
     16  C13       37.7060    8.4520   21.0990 C.3   1001  CLQ1001     0.0722
     17  N3        37.4150    7.0040   21.3790 N.3   1001  CLQ1001    -0.2727
     18  C14       38.2660    6.0490   20.5130 C.3   1001  CLQ1001     0.0721
     19  C15       38.0790    4.5480   20.7070 C.3   1001  CLQ1001     0.0188
     20  C16       37.3140    6.6910   22.8460 C.3   1001  CLQ1001     0.0721
     21  C17       38.6200    6.5420   23.5540 C.3   1001  CLQ1001     0.0188
     22  C18       33.8020   10.5100   22.3570 C.3   1001  CLQ1001     0.0263
@<TRIPOS>BOND
     1     2     3    1
     2     2    11    2
     3    10    11    1
     4    10     9    2
     5     1     9    1
     6     3     4    2
     7    11     6    1
     8     9     8    1
     9     4     5    1
    10     6     5    1
    11     6     7    1
    12     8     7    2
    13     5    12    2
    14    12    13    1
    15    18    19    1
    16    18    17    1
    17    14    13    1
    18    14    15    1
    19    13    22    1
    20    16    17    1
    21    16    15    1
    22    17    20    1
    23    20    21    1
