@<TRIPOS>MOLECULE
1cf2_NAP_O_1.pdb
 48 52 0 0 0
SMALL
GASTEIGER

@<TRIPOS>ATOM
      1  PA        53.6450   32.9390   -6.5740 P.3   340  NAP340      0.2189
      2  O1A       53.8470   32.0150   -5.4590 O.3   340  NAP340     -0.4371
      3  O2A       52.2500   33.2070   -6.9280 O.2   340  NAP340     -0.5170
      4  O5B       54.3750   32.4150   -7.9010 O.3   340  NAP340     -0.3112
      5  C5B       55.7320   31.8400   -7.8690 C.3   340  NAP340      0.1813
      6  C4B       55.8550   30.9660   -9.1300 C.3   340  NAP340      0.1820
      7  O4B       57.2330   30.5130   -9.1710 O.3   340  NAP340     -0.3136
      8  C3B       54.9870   29.6880   -9.0790 C.3   340  NAP340      0.2157
      9  O3B       54.4320   29.4050  -10.3540 O.3   340  NAP340     -0.2175
     10  C2B       55.9560   28.5540   -8.7280 C.3   340  NAP340      0.2314
     11  O2B       55.6050   27.3350   -9.3890 O.3   340  NAP340     -0.2630
     12  C1B       57.2520   29.1030   -9.3560 C.3   340  NAP340      0.3158
     13  N9A       58.4690   28.6430   -8.6780 N.pl3 340  NAP340     -0.1439
     14  C8A       58.7120   28.3590   -7.3710 C.3   340  NAP340      0.3377
     15  N7A       59.9760   27.9870   -7.1480 N.2   340  NAP340     -0.2095
     16  C5A       60.5560   28.0550   -8.3930 C.2   340  NAP340      0.2526
     17  C6A       61.8710   27.7760   -8.8270 C.2   340  NAP340      0.4393
     18  N6A       62.8540   27.3620   -8.0180 N.pl3 340  NAP340      0.2180
     19  N1A       62.1130   27.9360  -10.1410 N.2   340  NAP340      0.0021
     20  C2A       61.0890   28.3330  -10.9740 C.3   340  NAP340      0.5254
     21  N3A       59.8490   28.6110  -10.6810 N.2   340  NAP340     -0.0055
     22  C4A       59.6560   28.4560   -9.3520 C.2   340  NAP340      0.3518
     23  O3        54.4530   34.3220   -6.2860 O.3   340  NAP340     -0.2703
     24  PN        54.0380   35.8130   -6.7390 P.3   340  NAP340      0.2189
     25  O1N       52.9150   36.3050   -5.9130 O.3   340  NAP340     -0.4371
     26  O2N       53.6500   35.7560   -8.1700 O.2   340  NAP340     -0.5170
     27  O5D       55.3920   36.6060   -6.4750 O.3   340  NAP340     -0.3112
     28  C5D       56.5330   36.5030   -7.3540 C.3   340  NAP340      0.1813
     29  C4D       57.4980   37.6510   -7.0710 C.3   340  NAP340      0.1799
     30  O4D       56.7970   38.8800   -7.4170 O.3   340  NAP340     -0.3327
     31  C3D       58.0130   37.8850   -5.6400 C.3   340  NAP340      0.2158
     32  O3D       59.2200   38.6490   -5.7500 O.3   340  NAP340     -0.2175
     33  C2D       56.8850   38.7800   -5.0720 C.3   340  NAP340      0.2309
     34  O2D       57.2980   39.5660   -3.9570 O.3   340  NAP340     -0.2158
     35  C1D       56.6310   39.6850   -6.2600 C.3   340  NAP340      0.2263
     36  N1N       55.3530   40.3640   -6.3660 N.pl3 340  NAP340     -0.2787
     37  C2N       54.2450   39.7780   -5.8660 C.3   340  NAP340      0.1244
     38  C3N       53.0420   40.4440   -5.9840 C.2   340  NAP340      0.0544
     39  C7N       51.7020   39.8680   -5.4090 C.2   340  NAP340      0.2818
     40  O7N       50.6420   40.4690   -5.4200 O.2   340  NAP340     -0.2670
     41  N7N       51.7920   38.6500   -4.8730 N.am  340  NAP340     -0.0839
     42  C4N       52.8790   41.6860   -6.6360 C.2   340  NAP340      0.0033
     43  C5N       54.0850   42.1940   -7.1490 C.2   340  NAP340      0.0157
     44  C6N       55.3130   41.6160   -7.0470 C.2   340  NAP340      0.0633
     45  P2B       54.6740   26.3040   -8.5760 P.3   340  NAP340      0.5328
     46  O1X       53.4100   27.0710   -8.2990 O.3   340  NAP340     -0.1145
     47  O2X       54.2890   25.1550   -9.4720 O.2   340  NAP340     -0.2224
     48  O3X       55.3290   25.7670   -7.3740 O.3   340  NAP340     -0.1145
@<TRIPOS>BOND
     1    20    21    1
     2    20    19    1
     3    21    22    2
     4     9     8    1
     5    19    17    2
     6    47    45    2
     7    11    10    1
     8    11    45    1
     9    12     7    1
    10    12    10    1
    11    12    13    1
    12    22    13    1
    13    22    16    1
    14     7     6    1
    15     6     8    1
    16     6     5    1
    17     8    10    1
    18    17    16    1
    19    17    18    1
    20    13    14    1
    21    45    46    1
    22    45    48    1
    23    16    15    2
    24    26    24    2
    25     4     5    1
    26     4     1    1
    27    30    29    1
    28    30    35    1
    29    14    15    1
    30    28    29    1
    31    28    27    1
    32    43    44    2
    33    43    42    1
    34    29    31    1
    35    44    36    1
    36     3     1    2
    37    24    27    1
    38    24    23    1
    39    24    25    1
    40    42    38    2
    41     1    23    1
    42     1     2    1
    43    36    35    1
    44    36    37    1
    45    35    33    1
    46    38    37    1
    47    38    39    1
    48    32    31    1
    49    31    33    1
    50    40    39    2
    51    39    41   am
    52    33    34    1
