@<TRIPOS>MOLECULE
1cf3_NAG_A_1.pdb
 14 14 0 0 0
SMALL
GASTEIGER

@<TRIPOS>ATOM
      1  C1        55.5400  -11.3840   67.9490 C.3   601  NAG601      0.1665
      2  C2        56.9880  -11.1560   67.5730 C.3   601  NAG601      0.1576
      3  C3        57.5900  -12.3840   66.9230 C.3   601  NAG601      0.2069
      4  C4        57.3610  -13.6030   67.8460 C.3   601  NAG601      0.2134
      5  C5        55.8730  -13.7200   68.2650 C.3   601  NAG601      0.1809
      6  C6        55.7030  -14.8030   69.3260 C.3   601  NAG601      0.2141
      7  C7        57.7400   -8.8520   67.0650 C.2   601  NAG601      0.2420
      8  C8        57.8530   -7.8110   66.0070 C.3   601  NAG601      0.0964
      9  N2        57.1000   -9.9810   66.6780 N.am  601  NAG601     -0.2019
     10  O3        58.9860  -12.1680   66.7740 O.3   601  NAG601     -0.2184
     11  O4        57.7670  -14.7990   67.1660 O.3   601  NAG601     -0.2176
     12  O5        55.4660  -12.5040   68.8500 O.3   601  NAG601     -0.3489
     13  O6        54.4260  -14.8400   69.8610 O.3   601  NAG601     -0.2176
     14  O7        58.1270   -8.6910   68.1310 O.2   601  NAG601     -0.2733
@<TRIPOS>BOND
     1     8     7    1
     2     9     7   am
     3     9     2    1
     4    10     3    1
     5     3     2    1
     6     3     4    1
     7     7    14    2
     8    11     4    1
     9     2     1    1
    10     4     5    1
    11     1    12    1
    12     5    12    1
    13     5     6    1
    14     6    13    1
