@<TRIPOS>MOLECULE
1cf4_GNP_A_1.pdb
 45 47 0 0 0
SMALL
GASTEIGER

@<TRIPOS>ATOM
      1  PG        -2.6350  -10.7610    3.3180 P.3   185  GNP185      0.4710
      2  O1G       -1.7970  -11.9380    3.6370 O.3   185  GNP185     -0.1250
      3  O2G       -3.1800  -10.6480    1.9500 O.2   185  GNP185     -0.2347
      4  O3G       -3.9030  -10.8370    4.3060 O.3   185  GNP185     -0.1250
      5  N3B       -1.6990   -9.4010    3.5710 N.3   185  GNP185     -0.1200
      6  PB        -1.4040   -8.2680    2.3750 P.3   185  GNP185      0.4495
      7  O1B       -1.3390   -8.9930    1.0870 O.2   185  GNP185     -0.2367
      8  O2B       -2.4310   -7.2140    2.5170 O.3   185  GNP185     -0.1263
      9  O3A        0.0200   -7.5380    2.5570 O.3   185  GNP185     -0.2370
     10  PA         1.3530   -7.6300    1.6560 P.3   185  GNP185      0.2213
     11  O1A        1.5720   -9.0450    1.2870 O.3   185  GNP185     -0.4371
     12  O2A        1.2710   -6.6000    0.5970 O.2   185  GNP185     -0.5170
     13  O5'        2.5050   -7.1970    2.6930 O.3   185  GNP185     -0.3245
     14  C5'        2.8740   -5.8230    2.8300 C.3   185  GNP185      0.0836
     15  C4'        4.3250   -5.6710    3.2700 C.3   185  GNP185      0.1131
     16  O4'        5.0820   -4.9540    2.2840 O.3   185  GNP185     -0.3474
     17  C3'        4.4190   -4.8970    4.5700 C.3   185  GNP185      0.1133
     18  O3'        4.6980   -5.7610    5.6750 O.3   185  GNP185     -0.3864
     19  C2'        5.5040   -3.8820    4.3850 C.3   185  GNP185      0.1266
     20  O2'        6.6390   -4.1920    5.2000 O.3   185  GNP185     -0.3849
     21  C1'        5.8640   -3.9230    2.9180 C.3   185  GNP185      0.1617
     22  N9         5.6210   -2.6170    2.2790 N.pl3 185  GNP185     -0.2241
     23  C8         4.7020   -2.2870    1.3460 C.2   185  GNP185      0.1451
     24  N7         4.6570   -1.0610    0.9450 N.2   185  GNP185     -0.3865
     25  C5         5.6790   -0.4790    1.6990 C.2   185  GNP185      0.2296
     26  C6         6.1500    0.8750    1.7260 C.2   185  GNP185      0.2859
     27  O6         5.7390    1.8340    1.0730 O.2   185  GNP185     -0.2668
     28  N1         7.2070    1.0480    2.6320 N.am  185  GNP185     -0.2418
     29  C2         7.7550    0.0400    3.4210 C.2   185  GNP185      0.2395
     30  N2         8.7730    0.3880    4.2120 N.pl3 185  GNP185     -0.3206
     31  N3         7.3140   -1.2380    3.4000 N.2   185  GNP185     -0.3551
     32  C4         6.2810   -1.4290    2.5240 C.2   185  GNP185      0.2272
     33 HNB3       -1.3070   -9.2600    4.4580 H     185  GNP185      0.1458
     34 H5'2        2.2260   -5.3500    3.5680 H     185  GNP185      0.0591
     35 H5'1        2.7440   -5.3260    1.8700 H     185  GNP185      0.0591
     36  H4'        4.7640   -6.6580    3.4060 H     185  GNP185      0.0647
     37  H3'        3.4930   -4.3740    4.7320 H     185  GNP185      0.0647
     38 HO3'        3.9540   -6.3620    5.7630 H     185  GNP185      0.2100
     39  H2'        5.1230   -2.8910    4.6390 H     185  GNP185      0.0663
     40 HO2'        7.4100   -4.1880    4.6290 H     185  GNP185      0.2101
     41  H1'        6.8980   -4.1750    2.8290 H     185  GNP185      0.0841
     42  H8         4.0280   -3.0370    0.9430 H     185  GNP185      0.1149
     43  HN1        7.5710    1.9590    2.7000 H     185  GNP185      0.1589
     44 HN21        9.0980    1.3440    4.2240 H     185  GNP185      0.1459
     45 HN22        9.2190   -0.3040    4.7980 H     185  GNP185      0.1459
@<TRIPOS>BOND
     1    12    10    2
     2    42    23    1
     3    24    23    2
     4    24    25    2
     5    27    26    2
     6     7     6    2
     7    11    10    1
     8    23    22    1
     9    10     9    1
    10    10    13    1
    11    25    26    1
    12    25    32    1
    13    26    28   am
    14    35    14    1
    15     3     1    2
    16    22    32    1
    17    22    21    1
    18    16    21    1
    19    16    15    1
    20     6     8    1
    21     6     9    1
    22     6     5    1
    23    32    31    2
    24    28    43    1
    25    28    29    1
    26    13    14    1
    27    41    21    1
    28    14    15    1
    29    14    34    1
    30    21    19    1
    31    15    36    1
    32    15    17    1
    33     1     5    1
    34     1     2    1
    35     1     4    1
    36    31    29    2
    37    29    30    1
    38     5    33    1
    39    30    44    1
    40    30    45    1
    41    19    17    1
    42    19    39    1
    43    19    20    1
    44    17    37    1
    45    17    18    1
    46    40    20    1
    47    18    38    1
