@<TRIPOS>MOLECULE
1cf5_NAG_A_1.pdb
 14 14 0 0 0
SMALL
GASTEIGER

@<TRIPOS>ATOM
      1  C1        18.6230   -1.0280   -5.0720 C.3   902  NAG902      0.1665
      2  C2        19.5720   -0.1390   -5.8770 C.3   902  NAG902      0.1576
      3  C3        20.9850   -0.8300   -5.7320 C.3   902  NAG902      0.2069
      4  C4        21.3110   -0.9670   -4.1940 C.3   902  NAG902      0.2134
      5  C5        20.2060   -1.6130   -3.3700 C.3   902  NAG902      0.1809
      6  C6        20.4480   -1.4950   -1.8580 C.3   902  NAG902      0.2141
      7  C7        18.6440   -0.6500   -8.1690 C.2   902  NAG902      0.2420
      8  C8        18.4370   -0.1710   -9.5960 C.3   902  NAG902      0.0964
      9  N2        19.2110    0.1640   -7.2790 N.am  902  NAG902     -0.2019
     10  O3        21.9710    0.0010   -6.4240 O.3   902  NAG902     -0.2184
     11  O4        22.4600   -1.8210   -3.9820 O.3   902  NAG902     -0.2176
     12  O5        18.9770   -0.9750   -3.7130 O.3   902  NAG902     -0.3489
     13  O6        20.9180   -0.1990   -1.4460 O.3   902  NAG902     -0.2176
     14  O7        18.2340   -1.7720   -7.8890 O.2   902  NAG902     -0.2733
@<TRIPOS>BOND
     1     8     7    1
     2     7    14    2
     3     7     9   am
     4     9     2    1
     5    10     3    1
     6     2     3    1
     7     2     1    1
     8     3     4    1
     9     1    12    1
    10     4    11    1
    11     4     5    1
    12    12     5    1
    13     5     6    1
    14     6    13    1
