@<TRIPOS>MOLECULE
1cf8_HAZ_H_1.pdb
 33 36 0 0 0
SMALL
GASTEIGER

@<TRIPOS>ATOM
      1  O6       -12.7670  -11.6390   57.6710 O.co2 800  HAZ800     -0.2457
      2  C25      -11.4930  -11.3320   57.5900 C.2   800  HAZ800      0.3649
      3  O5       -10.5500  -12.1320   57.6300 O.co2 800  HAZ800     -0.2457
      4  C22       -9.8920   -8.0080   56.2720 C.3   800  HAZ800      0.0878
      5  C23      -10.1390   -9.5150   56.4330 C.3   800  HAZ800      0.0214
      6  C24      -11.2550   -9.8270   57.4290 C.3   800  HAZ800      0.1146
      7  C21       -8.7810   -7.7110   55.2640 C.2   800  HAZ800      0.2456
      8  O4        -8.6420   -8.4040   54.2620 O.2   800  HAZ800     -0.2730
      9  N3        -7.9810   -6.6680   55.5340 N.am  800  HAZ800     -0.1792
     10  C15       -4.7970   -5.0970   53.4900 C.ar  800  HAZ800      0.0734
     11  C16       -5.2430   -6.4070   53.1950 C.ar  800  HAZ800      0.0179
     12  C17       -6.3290   -6.9450   53.8940 C.ar  800  HAZ800      0.0179
     13  C18       -6.9840   -6.1780   54.8960 C.ar  800  HAZ800      0.0734
     14  C19       -6.5450   -4.8750   55.1930 C.ar  800  HAZ800      0.0179
     15  C20       -5.4590   -4.3340   54.4950 C.ar  800  HAZ800      0.0179
     16  N2        -3.8000   -4.5980   52.8360 N.am  800  HAZ800     -0.1808
     17  C14       -3.2510   -3.3720   52.8410 C.2   800  HAZ800      0.2300
     18  O3        -3.6760   -2.4570   53.5530 O.2   800  HAZ800     -0.2751
     19  C1        -0.1300   -0.1970   50.1370 C.3   800  HAZ800     -0.0013
     20  C10       -0.0260   -1.6600   49.6280 C.3   800  HAZ800      0.0152
     21  C11        1.2130   -2.7710   46.0310 C.3   800  HAZ800      0.0321
     22  C12        0.9260   -2.5520   50.4410 C.3   800  HAZ800      0.0007
     23  C2        -0.9850   -0.0280   51.4110 C.3   800  HAZ800     -0.0172
     24  C3        -2.3730   -0.6800   51.2560 C.3   800  HAZ800     -0.0268
     25  O2        -3.5980   -2.3600   50.3330 O.3   800  HAZ800     -0.2888
     26  C13       -2.0800   -3.1440   51.8790 C.3   800  HAZ800      0.0617
     27  N1        -2.3410   -2.1160   50.7800 N.4   800  HAZ800      0.4375
     28  C5        -1.4590   -2.2220   49.5470 C.3   800  HAZ800     -0.0103
     29  C6        -1.3710   -3.6540   49.0150 C.3   800  HAZ800     -0.0128
     30  C7        -0.8830   -3.6480   47.5520 C.3   800  HAZ800      0.0278
     31  C8         0.2760   -2.6540   47.2240 C.3   800  HAZ800      0.1174
     32  C9         0.6120   -1.6550   48.1780 C.3   800  HAZ800      0.1379
     33  O1         0.0040   -0.9690   47.3080 O.3   800  HAZ800     -0.3563
@<TRIPOS>BOND
     1    21    31    1
     2    31    33    1
     3    31    30    1
     4    31    32    1
     5    33    32    1
     6    30    29    1
     7    32    20    1
     8    29    28    1
     9    28    20    1
    10    28    27    1
    11    20    19    1
    12    20    22    1
    13    19    23    1
    14    25    27    1
    15    27    24    1
    16    27    26    1
    17    24    23    1
    18    26    17    1
    19    16    17   am
    20    16    10    1
    21    17    18    2
    22    11    10   ar
    23    11    12   ar
    24    10    15   ar
    25    12    13   ar
    26     8     7    2
    27    15    14   ar
    28    13    14   ar
    29    13     9    1
    30     7     9   am
    31     7     4    1
    32     4     5    1
    33     5     6    1
    34     6     2    1
    35     2     3   ar
    36     2     1   ar
