@<TRIPOS>MOLECULE
1cf9_HEM_A_1.pdb
 43 50 0 0 0
SMALL
GASTEIGER

@<TRIPOS>ATOM
      1  CHA        1.7100   -3.1310   20.7510 C.2   754  HEM754      0.0000
      2  CHB       -2.1380   -3.8350   23.6480 C.2   754  HEM754      0.0000
      3  CHC       -4.1030    0.2560   21.9370 C.2   754  HEM754      0.0000
      4  CHD       -0.5250    0.6210   18.6320 C.2   754  HEM754      0.0000
      5  C1A        0.8440   -3.6520   21.7090 C.2   754  HEM754      0.0000
      6  C2A        1.1240   -4.7980   22.5410 C.2   754  HEM754      0.0000
      7  C3A        0.0750   -4.9850   23.3540 C.2   754  HEM754      0.0000
      8  C4A       -0.8950   -3.9310   23.0560 C.2   754  HEM754      0.0000
      9  CMA       -0.1160   -6.0710   24.4290 C.3   754  HEM754      0.0000
     10  CAA        2.4350   -5.6460   22.5010 C.3   754  HEM754      0.0000
     11  CBA        2.2850   -7.0110   21.7440 C.3   754  HEM754      0.0000
     12  CGA        3.6720   -7.7060   21.8470 C.2   754  HEM754      0.0000
     13  O1A        3.8080   -8.2130   22.9620 O.co2 754  HEM754      0.0000
     14  O2A        4.4330   -7.6040   20.8520 O.co2 754  HEM754      0.0000
     15  C1B       -3.0350   -2.7970   23.3810 C.ar  754  HEM754      0.0000
     16  C2B       -4.3550   -2.6770   23.9790 C.ar  754  HEM754      0.0000
     17  C3B       -4.8960   -1.5270   23.5280 C.ar  754  HEM754      0.0000
     18  C4B       -3.9150   -0.9390   22.6070 C.ar  754  HEM754      0.0000
     19  CMB       -5.0220   -3.6510   24.9530 C.3   754  HEM754      0.0000
     20  CAB       -6.2580   -0.9050   23.8060 C.2   754  HEM754      0.0000
     21  CBB       -7.3520   -1.5360   24.1620 C.2   754  HEM754      0.0000
     22  C1C       -3.3210    0.6690   20.8510 C.2   754  HEM754      0.0000
     23  C2C       -3.6740    1.7070   19.9190 C.2   754  HEM754      0.0000
     24  C3C       -2.7230    1.7970   19.0090 C.2   754  HEM754      0.0000
     25  C4C       -1.7060    0.7960   19.3550 C.2   754  HEM754      0.0000
     26  CMC       -4.9990    2.5250   20.0020 C.3   754  HEM754      0.0000
     27  CAC       -2.5480    2.7470   17.8070 C.2   754  HEM754      0.0000
     28  CBC       -3.6580    3.2200   17.1870 C.2   754  HEM754      0.0000
     29  C1D        0.4120   -0.3340   19.0000 C.ar  754  HEM754      0.0000
     30  C2D        1.6620   -0.5190   18.3000 C.ar  754  HEM754      0.0000
     31  C3D        2.2700   -1.5380   18.8750 C.ar  754  HEM754      0.0000
     32  C4D        1.4570   -2.0530   19.9340 C.ar  754  HEM754      0.0000
     33  CMD        2.1250    0.3850   17.1290 C.3   754  HEM754      0.0000
     34  CAD        3.6750   -2.1190   18.4920 C.3   754  HEM754      0.0000
     35  CBD        3.3530   -3.4270   17.6680 C.3   754  HEM754      0.0000
     36  CGD        4.6150   -4.0240   17.0910 C.2   754  HEM754      0.0000
     37  O1D        5.6620   -3.3800   16.9620 O.co2 754  HEM754      0.0000
     38  O2D        4.6180   -5.2430   16.7280 O.co2 754  HEM754      0.0000
     39  NA        -0.3830   -3.1420   22.0290 N.2   754  HEM754      0.0000
     40  NB        -2.7590   -1.7350   22.5540 N.ar  754  HEM754      0.0000
     41  NC        -2.0820    0.1320   20.4850 N.2   754  HEM754      0.0000
     42  ND         0.2640   -1.3170   19.9940 N.ar  754  HEM754      0.0000
     43 FE         -1.4400   -1.7120   21.0070 Fe    754  HEM754      0.0000
@<TRIPOS>BOND
     1    38    36   ar
     2    37    36   ar
     3    36    35    1
     4    33    30    1
     5    28    27    2
     6    35    34    1
     7    27    24    1
     8    30    31   ar
     9    30    29   ar
    10    34    31    1
    11     4    29    2
    12     4    25    1
    13    31    32   ar
    14    29    42   ar
    15    24    25    1
    16    24    23    2
    17    25    41    2
    18    23    26    1
    19    23    22    1
    20    32    42   ar
    21    32     1    2
    22    42    43    1
    23    41    22    1
    24    41    43    1
    25     1     5    1
    26    22     3    2
    27    14    12   ar
    28    43    39    1
    29    43    40    1
    30     5    39    2
    31     5     6    1
    32    11    12    1
    33    11    10    1
    34    12    13   ar
    35     3    18    1
    36    39     8    1
    37    10     6    1
    38     6     7    2
    39    40    18   ar
    40    40    15   ar
    41    18    17   ar
    42     8     7    1
    43     8     2    2
    44     7     9    1
    45    15     2    1
    46    15    16   ar
    47    17    20    1
    48    17    16   ar
    49    20    21    2
    50    16    19    1
