@<TRIPOS>MOLECULE
1cfm_HEM_A_1.pdb
 43 50 0 0 0
SMALL
GASTEIGER

@<TRIPOS>ATOM
      1 FE         19.6200   44.7930   54.6290 Fe    253  HEM253      0.0000
      2  CHA       19.2770   46.2900   51.6130 C.2   253  HEM253      0.0000
      3  CHB       23.0230   44.8180   54.3220 C.2   253  HEM253      0.0000
      4  CHC       19.9000   43.7820   57.8580 C.2   253  HEM253      0.0000
      5  CHD       16.2150   44.5310   54.8810 C.2   253  HEM253      0.0000
      6  NA        20.8700   45.4160   53.2740 N.ar  253  HEM253      0.0000
      7  C1A       20.5590   46.0720   52.0950 C.ar  253  HEM253      0.0000
      8  C2A       21.7550   46.4270   51.3710 C.ar  253  HEM253      0.0000
      9  C3A       22.8060   45.9810   52.1070 C.ar  253  HEM253      0.0000
     10  C4A       22.2570   45.3600   53.2850 C.ar  253  HEM253      0.0000
     11  CMA       24.2470   45.9480   51.6390 C.3   253  HEM253      0.0000
     12  CAA       21.8050   47.0400   49.9690 C.3   253  HEM253      0.0000
     13  CBA       21.9400   45.8740   49.0110 C.3   253  HEM253      0.0000
     14  CGA       21.9950   46.3010   47.5680 C.2   253  HEM253      0.0000
     15  O1A       22.3220   45.4390   46.7240 O.co2 253  HEM253      0.0000
     16  O2A       21.7030   47.4840   47.2760 O.co2 253  HEM253      0.0000
     17  NB        21.1190   44.3520   55.7980 N.2   253  HEM253      0.0000
     18  C1B       22.4540   44.3260   55.5010 C.2   253  HEM253      0.0000
     19  C2B       23.2180   43.8770   56.6430 C.2   253  HEM253      0.0000
     20  C3B       22.3670   43.8670   57.6960 C.2   253  HEM253      0.0000
     21  C4B       21.0590   44.0020   57.1300 C.2   253  HEM253      0.0000
     22  CMB       24.6320   43.3160   56.5950 C.3   253  HEM253      0.0000
     23  CAB       22.6200   43.8520   59.0930 C.3   253  HEM253      0.0000
     24  CBB       23.8220   43.9350   59.7870 C.3   253  HEM253      0.0000
     25  NC        18.3440   44.2730   56.0560 N.ar  253  HEM253      0.0000
     26  C1C       18.6240   43.9330   57.3560 C.ar  253  HEM253      0.0000
     27  C2C       17.4260   43.8750   58.1670 C.ar  253  HEM253      0.0000
     28  C3C       16.3980   44.2240   57.3490 C.ar  253  HEM253      0.0000
     29  C4C       16.9660   44.3020   56.0180 C.ar  253  HEM253      0.0000
     30  CMC       17.3380   43.4200   59.6270 C.3   253  HEM253      0.0000
     31  CAC       15.0650   44.5860   57.6670 C.3   253  HEM253      0.0000
     32  CBC       14.4080   44.5600   58.8880 C.3   253  HEM253      0.0000
     33  ND        18.0910   45.2750   53.5020 N.2   253  HEM253      0.0000
     34  C1D       16.7500   45.0170   53.7170 C.2   253  HEM253      0.0000
     35  C2D       15.9400   45.4920   52.6070 C.2   253  HEM253      0.0000
     36  C3D       16.7900   45.9940   51.7150 C.2   253  HEM253      0.0000
     37  C4D       18.1270   45.8950   52.2710 C.2   253  HEM253      0.0000
     38  CMD       14.4280   45.4400   52.4620 C.3   253  HEM253      0.0000
     39  CAD       16.3970   46.4750   50.3360 C.3   253  HEM253      0.0000
     40  CBD       16.1840   47.9700   50.3340 C.3   253  HEM253      0.0000
     41  CGD       15.6830   48.4800   48.9920 C.2   253  HEM253      0.0000
     42  O1D       14.5420   48.1650   48.6220 O.co2 253  HEM253      0.0000
     43  O2D       16.4390   49.1870   48.3030 O.co2 253  HEM253      0.0000
@<TRIPOS>BOND
     1    15    14   ar
     2    16    14   ar
     3    14    13    1
     4    43    41   ar
     5    42    41   ar
     6    41    40    1
     7    13    12    1
     8    12     8    1
     9    40    39    1
    10    39    36    1
    11     8     7   ar
    12     8     9   ar
    13     2     7    2
    14     2    37    1
    15    11     9    1
    16    36    37    1
    17    36    35    2
    18     7     6   ar
    19     9    10   ar
    20    37    33    2
    21    38    35    1
    22    35    34    1
    23     6    10   ar
    24     6     1    1
    25    10     3    2
    26    33    34    1
    27    33     1    1
    28    34     5    2
    29     3    18    1
    30     1    17    1
    31     1    25    1
    32     5    29    1
    33    18    17    2
    34    18    19    1
    35    17    21    1
    36    29    25   ar
    37    29    28   ar
    38    25    26   ar
    39    22    19    1
    40    19    20    2
    41    21    20    1
    42    21     4    2
    43    28    31    1
    44    28    27   ar
    45    26     4    1
    46    26    27   ar
    47    31    32    1
    48    20    23    1
    49    27    30    1
    50    23    24    1
