@<TRIPOS>MOLECULE
1cft_III_C_1.pdb
 37 37 0 0 0
SMALL
GASTEIGER

@<TRIPOS>ATOM
      1  N         -1.4440   52.4730  151.9170 N.3     1  LEU1       -0.1231
      2  CA        -2.5900   53.3790  151.5960 C.3     1  LEU1        0.1693
      3  C         -3.3060   52.5380  150.4480 C.2     1  LEU1        0.2592
      4  O         -4.2480   52.0050  151.2820 O.2     1  LEU1       -0.2718
      5  CB        -2.4460   54.7630  151.1030 C.3     1  LEU1        0.0284
      6  CG        -1.3260   55.7880  151.3890 C.3     1  LEU1        0.0019
      7  CD1       -1.9740   57.0150  152.0210 C.3     1  LEU1        0.0001
      8  CD2       -0.1990   55.1380  152.1520 C.3     1  LEU1        0.0001
      9  N         -2.8910   51.8960  149.3170 N.am    2  LYS2       -0.1966
     10  CA        -3.6160   50.4800  149.2610 C.3     2  LYS2        0.1728
     11  C         -2.4170   49.6520  148.9120 C.2     2  LYS2        0.2617
     12  O         -1.5370   50.2690  149.7500 O.2     2  LYS2       -0.2715
     13  CB        -5.0030   50.8160  148.7080 C.3     2  LYS2        0.0311
     14  CG        -5.7440   49.5240  148.1600 C.3     2  LYS2        0.0038
     15  CD        -7.0220   50.0220  147.4160 C.3     2  LYS2        0.0206
     16  CE        -7.3280   49.1540  146.1470 C.3     2  LYS2        0.1093
     17  NZ        -8.8150   48.7190  146.1890 N.3     2  LYS2       -0.1314
     18  N         -1.8660   48.6070  148.1480 N.am    3  GLY3       -0.1941
     19  CA        -0.3980   48.2690  148.5890 C.3     3  GLY3        0.1998
     20  C         -0.7400   46.7930  148.4510 C.2     3  GLY3        0.2478
     21  O         -1.1580   45.7410  149.1060 O.2     3  GLY3       -0.2729
     22  N         -0.3030   46.5760  147.1560 N.am    4  PRO4       -0.2757
     23  CA        -0.6600   44.9970  146.7480 C.3     4  PRO4        0.1227
     24  C         -1.8360   45.7290  146.1870 C.3     4  PRO4        0.2442
     25  O         -2.4390   46.9450  146.1480 O.3     4  PRO4       -0.2018
     26  CB         0.4050   44.5920  147.7890 C.3     4  PRO4        0.0257
     27  CG         1.4960   45.0940  146.7490 C.3     4  PRO4        0.0233
     28  CD         0.8930   46.5370  146.3230 C.3     4  PRO4        0.0936
     29  N         -1.4740   45.4010  144.8880 N.3     5  LEU5       -0.1777
     30  CA        -2.0590   45.5550  143.5410 C.3     5  LEU5        0.1780
     31  C         -0.5420   45.5960  143.0450 C.2     5  LEU5        0.3803
     32  O         -0.2200   44.4120  142.7240 O.co2   5  LEU5       -0.2441
     33  CB        -2.5520   46.9420  143.3320 C.3     5  LEU5        0.0290
     34  CG        -4.0720   47.0330  143.1270 C.3     5  LEU5        0.0020
     35  CD1       -4.9570   46.8720  141.8540 C.3     5  LEU5        0.0001
     36  CD2       -4.5740   46.1810  144.3900 C.3     5  LEU5        0.0001
     37  OXT        0.0420   46.6000  143.6090 O.co2   5  LEU5       -0.2441
@<TRIPOS>BOND
     1    35    34    1
     2    32    31   ar
     3    31    30    1
     4    31    37   ar
     5    34    33    1
     6    34    36    1
     7    33    30    1
     8    30    29    1
     9    29    24    1
    10    16    17    1
    11    16    15    1
    12    25    24    1
    13    24    23    1
    14    28    27    1
    15    28    22    1
    16    23    22    1
    17    23    26    1
    18    27    26    1
    19    22    20   am
    20    15    14    1
    21    18    19    1
    22    18    11   am
    23    14    13    1
    24    20    19    1
    25    20    21    2
    26    13    10    1
    27    11    10    1
    28    11    12    2
    29    10     9    1
    30     9     3   am
    31     3     4    2
    32     3     2    1
    33     5     6    1
    34     5     2    1
    35     6     7    1
    36     6     8    1
    37     2     1    1
