@<TRIPOS>MOLECULE
1cfv_E3G_H_1.pdb
 32 36 0 0 0
SMALL
GASTEIGER

@<TRIPOS>ATOM
      1  C1'       62.2840   24.9350    8.4050 C.3   200  E3G200      0.3222
      2  C2'       63.0200   25.3580    7.1300 C.3   200  E3G200      0.2542
      3  C3'       62.0940   26.0200    6.0900 C.3   200  E3G200      0.2216
      4  C4'       60.7020   25.3440    5.9330 C.3   200  E3G200      0.2230
      5  C5'       60.1020   25.1250    7.3530 C.3   200  E3G200      0.2538
      6  C6'       58.7300   24.4400    7.3350 C.2   200  E3G200      0.3941
      7  C1        63.7810   22.8810   12.3990 C.ar  200  E3G200     -0.0015
      8  C2        63.8840   23.0080   11.0330 C.ar  200  E3G200      0.0367
      9  C3        62.8990   23.6870   10.3540 C.ar  200  E3G200      0.1411
     10  C4        61.8020   24.1820   11.0350 C.ar  200  E3G200      0.0324
     11  C5        61.6960   24.0480   12.4010 C.ar  200  E3G200     -0.0231
     12  C6        60.4830   24.6490   13.0910 C.3   200  E3G200      0.0261
     13  C7        60.4800   24.4440   14.5920 C.3   200  E3G200      0.0050
     14  C8        61.8880   24.4970   15.2000 C.3   200  E3G200      0.0048
     15  C9        62.6500   23.2520   14.6520 C.3   200  E3G200      0.0220
     16  C10       62.7140   23.3880   13.1180 C.ar  200  E3G200     -0.0263
     17  C11       64.0870   23.2800   15.2460 C.3   200  E3G200      0.0048
     18  C12       64.0430   23.2370   16.7880 C.3   200  E3G200      0.0073
     19  C13       63.2590   24.4380   17.3230 C.3   200  E3G200      0.0515
     20  C14       61.8410   24.3950   16.7190 C.3   200  E3G200      0.0073
     21  C15       61.0940   25.4630   17.5410 C.3   200  E3G200      0.0082
     22  C16       61.5750   25.1680   18.9780 C.3   200  E3G200      0.0645
     23  C17       62.9130   24.4480   18.7890 C.2   200  E3G200      0.1498
     24  C18       64.0510   25.7490   17.1250 C.3   200  E3G200      0.0073
     25  O8'       64.0420   26.2980    7.4880 O.3   200  E3G200     -0.2135
     26  O9'       62.6790   26.2930    4.8440 O.3   200  E3G200     -0.2173
     27  O10       59.8810   26.2820    5.2210 O.3   200  E3G200     -0.2171
     28  O11       58.4160   23.4530    8.3040 O.co2 200  E3G200     -0.2429
     29  O12       57.7740   24.8130    6.3450 O.co2 200  E3G200     -0.2429
     30  O7'       61.0320   24.2410    8.0470 O.3   200  E3G200     -0.3067
     31  O20       62.9470   23.8950    9.0190 O.3   200  E3G200     -0.4505
     32  O19       63.5650   23.9520   19.6720 O.2   200  E3G200     -0.2961
@<TRIPOS>BOND
     1    26     3    1
     2    27     4    1
     3     4     3    1
     4     4     5    1
     5     3     2    1
     6    29     6   ar
     7     2    25    1
     8     2     1    1
     9     6     5    1
    10     6    28   ar
    11     5    30    1
    12    30     1    1
    13     1    31    1
    14    31     9    1
    15     9     8   ar
    16     9    10   ar
    17     8     7   ar
    18    10    11   ar
    19     7    16   ar
    20    11    12    1
    21    11    16   ar
    22    12    13    1
    23    16    15    1
    24    13    14    1
    25    15    14    1
    26    15    17    1
    27    14    20    1
    28    17    18    1
    29    20    19    1
    30    20    21    1
    31    18    19    1
    32    24    19    1
    33    19    23    1
    34    21    22    1
    35    23    22    1
    36    23    32    2
