@<TRIPOS>MOLECULE
1cg0_GDP_A_1.pdb
 28 30 0 0 0
SMALL
GASTEIGER

@<TRIPOS>ATOM
      1  PB        -4.1980   46.9150   45.1360 P.3   432  GDP432      0.5373
      2  O1B       -4.1030   46.2990   43.7910 O.2   432  GDP432     -0.2221
      3  O2B       -5.4740   47.6050   45.3180 O.3   432  GDP432     -0.1143
      4  O3B       -4.0160   45.9410   46.2380 O.3   432  GDP432     -0.1143
      5  O3A       -2.9970   47.9590   45.4230 O.3   432  GDP432     -0.2261
      6  PA        -2.6530   49.2830   44.5620 P.3   432  GDP432      0.2231
      7  O1A       -2.3210   49.0920   43.1310 O.2   432  GDP432     -0.5169
      8  O2A       -3.6830   50.3300   44.7280 O.3   432  GDP432     -0.4370
      9  O5'       -1.2480   49.6740   45.1720 O.3   432  GDP432     -0.3111
     10  C5'       -0.1570   48.8030   45.2800 C.3   432  GDP432      0.1813
     11  C4'        0.9770   49.7400   44.8800 C.3   432  GDP432      0.1799
     12  O4'        2.2470   49.1740   45.0710 O.3   432  GDP432     -0.3326
     13  C3'        0.9360   49.8850   43.3990 C.3   432  GDP432      0.2158
     14  O3'        1.4430   51.1400   43.0560 O.3   432  GDP432     -0.2175
     15  C2'        1.7750   48.7400   42.8950 C.3   432  GDP432      0.2310
     16  O2'        2.2640   49.0860   41.6110 O.3   432  GDP432     -0.2158
     17  C1'        2.8540   48.7460   43.8280 C.3   432  GDP432      0.2293
     18  N9         3.4390   47.5020   44.0270 N.pl3 432  GDP432     -0.2354
     19  C8         2.9210   46.2350   44.0860 C.3   432  GDP432      0.2246
     20  N7         3.7680   45.3190   44.5470 N.2   432  GDP432     -0.2322
     21  C5         4.9360   46.0210   44.8100 C.2   432  GDP432      0.2182
     22  C6         6.1870   45.5730   45.3310 C.1   432  GDP432      0.2372
     23  O6         6.4560   44.4030   45.5780 O.2   432  GDP432     -0.2069
     24  N1         7.1280   46.5990   45.5050 N.2   432  GDP432     -0.2485
     25  C2         6.8960   47.9250   45.1400 C.1   432  GDP432      0.2531
     26  N2         7.8740   48.8250   45.3080 N.pl3 432  GDP432     -0.0226
     27  N3         5.6870   48.3670   44.6190 N.2   432  GDP432     -0.3074
     28  C4         4.7610   47.3650   44.5050 C.2   432  GDP432      0.2300
@<TRIPOS>BOND
     1    16    15    1
     2    15    13    1
     3    15    17    1
     4    14    13    1
     5     7     6    2
     6    13    11    1
     7     2     1    2
     8    17    18    1
     9    17    12    1
    10    18    19    1
    11    18    28    1
    12    19    20    1
    13    28    27    2
    14    28    21    1
    15    20    21    2
    16     6     8    1
    17     6     9    1
    18     6     5    1
    19    27    25    2
    20    21    22    1
    21    11    12    1
    22    11    10    1
    23     1     3    1
    24     1     5    1
    25     1     4    1
    26    25    26    1
    27    25    24    2
    28     9    10    1
    29    22    24    2
    30    22    23    2
