@<TRIPOS>MOLECULE
1cg0_IMO_A_1.pdb
 27 29 0 0 0
SMALL
GASTEIGER

@<TRIPOS>ATOM
      1  P         -8.3630   48.8510   46.7200 P.3   440  IMO440      0.5898
      2  O1        -7.5160   49.4980   45.6880 O.2   440  IMO440     -0.2114
      3  C2        -8.1910   51.4800   50.1940 C.3   440  IMO440      0.3944
      4  C1'      -11.7820   53.3010   51.7210 C.3   440  IMO440      0.3186
      5  C2'      -12.0990   54.7300   51.6300 C.3   440  IMO440      0.2570
      6  C3'      -12.8960   55.0390   52.9370 C.3   440  IMO440      0.2184
      7  C4'      -13.7400   53.7830   53.0320 C.3   440  IMO440      0.1823
      8  C5'      -15.1130   53.8920   52.4740 C.3   440  IMO440      0.1860
      9  O2        -7.6190   48.5210   47.9580 O.3   440  IMO440     -0.1039
     10  O3        -9.0800   47.6610   46.1850 O.3   440  IMO440     -0.1039
     11  PA       -16.0990   53.9030   49.9860 P.3   440  IMO440      0.5327
     12  O1A      -15.8240   52.4800   49.6830 O.3   440  IMO440     -0.1145
     13  O2A      -15.7830   54.7200   48.8210 O.2   440  IMO440     -0.2224
     14  O3A      -17.5080   54.2070   50.3190 O.3   440  IMO440     -0.1145
     15  O5'      -15.0930   54.3390   51.1710 O.3   440  IMO440     -0.2675
     16  O4'      -12.9450   52.7130   52.4250 O.3   440  IMO440     -0.3135
     17  N9       -11.4550   52.8080   50.4600 N.pl3 440  IMO440     -0.1440
     18  C4       -10.2630   52.1650   50.0900 C.2   440  IMO440      0.3462
     19  N3        -9.1380   52.1380   50.7940 N.2   440  IMO440     -0.0347
     20  N1        -8.3370   50.8970   49.0260 N.2   440  IMO440     -0.1827
     21  C6        -9.4610   50.8060   48.2690 C.2   440  IMO440      0.2580
     22  O6        -9.5910   49.9210   47.0580 O.2   440  IMO440     -0.3807
     23  C5       -10.4940   51.5540   48.8910 C.2   440  IMO440      0.2152
     24  N7       -11.7990   51.8010   48.4640 N.2   440  IMO440     -0.2121
     25  C8       -12.2900   52.5250   49.4230 C.3   440  IMO440      0.3376
     26  O2'      -10.8310   55.3850   51.4530 O.3   440  IMO440     -0.2130
     27  O3'      -12.0630   55.2490   54.1380 O.3   440  IMO440     -0.2174
@<TRIPOS>BOND
     1     2     1    2
     2    10     1    1
     3     1    22    1
     4     1     9    1
     5    22    21    1
     6    21    23    1
     7    21    20    2
     8    24    23    2
     9    24    25    1
    10    13    11    2
    11    23    18    1
    12    20     3    1
    13    25    17    1
    14    12    11    1
    15    11    14    1
    16    11    15    1
    17    18    17    1
    18    18    19    2
    19     3    19    1
    20    17     4    1
    21    15     8    1
    22    26     5    1
    23     5     4    1
    24     5     6    1
    25     4    16    1
    26    16     7    1
    27     8     7    1
    28     6     7    1
    29     6    27    1
