@<TRIPOS>MOLECULE
1cg1_IMO_A_1.pdb
 27 29 0 0 0
SMALL
GASTEIGER

@<TRIPOS>ATOM
      1  P         -8.5020   48.9900   46.6730 P.3   440  IMO440      0.5898
      2  O1        -7.6850   49.6140   45.6030 O.2   440  IMO440     -0.2114
      3  C2        -8.1320   51.8170   49.9950 C.3   440  IMO440      0.3944
      4  C1'      -11.9100   53.5050   51.8130 C.3   440  IMO440      0.3186
      5  C2'      -12.3690   54.9180   51.6790 C.3   440  IMO440      0.2570
      6  C3'      -12.9430   55.2280   53.0560 C.3   440  IMO440      0.2184
      7  C4'      -13.8000   53.9760   53.1080 C.3   440  IMO440      0.1823
      8  C5'      -15.1810   54.0900   52.6070 C.3   440  IMO440      0.1860
      9  O2        -7.6300   48.4870   47.7620 O.3   440  IMO440     -0.1039
     10  O3        -9.2790   47.8560   46.1100 O.3   440  IMO440     -0.1039
     11  PA       -16.2130   54.0180   49.9790 P.3   440  IMO440      0.5327
     12  O1A      -15.7080   52.7170   49.4960 O.3   440  IMO440     -0.1145
     13  O2A      -16.1780   55.1220   48.9880 O.2   440  IMO440     -0.2224
     14  O3A      -17.5930   53.9740   50.5120 O.3   440  IMO440     -0.1145
     15  O5'      -15.2450   54.5070   51.1810 O.3   440  IMO440     -0.2675
     16  O4'      -13.1100   52.9670   52.3490 O.3   440  IMO440     -0.3135
     17  N9       -11.5600   52.9630   50.5810 N.pl3 440  IMO440     -0.1440
     18  C4       -10.2930   52.3690   50.1200 C.2   440  IMO440      0.3462
     19  N3        -9.0750   52.4630   50.6720 N.2   440  IMO440     -0.0347
     20  N1        -8.3920   51.1400   48.9020 N.2   440  IMO440     -0.1827
     21  C6        -9.5540   50.9730   48.2900 C.2   440  IMO440      0.2580
     22  O6        -9.6540   50.1250   47.1630 O.2   440  IMO440     -0.3807
     23  C5       -10.5700   51.6590   48.9600 C.2   440  IMO440      0.2152
     24  N7       -11.9440   51.7850   48.6760 N.2   440  IMO440     -0.2121
     25  C8       -12.4630   52.5280   49.6140 C.3   440  IMO440      0.3376
     26  O2'      -11.2510   55.6780   51.2900 O.3   440  IMO440     -0.2130
     27  O3'      -11.8180   55.1910   54.0400 O.3   440  IMO440     -0.2174
@<TRIPOS>BOND
     1     2     1    2
     2    10     1    1
     3     1    22    1
     4     1     9    1
     5    22    21    1
     6    21    20    2
     7    21    23    1
     8    24    23    2
     9    24    25    1
    10    20     3    1
    11    23    18    1
    12    13    11    2
    13    12    11    1
    14    25    17    1
    15    11    14    1
    16    11    15    1
    17     3    19    1
    18    18    17    1
    19    18    19    2
    20    17     4    1
    21    15     8    1
    22    26     5    1
    23     5     4    1
    24     5     6    1
    25     4    16    1
    26    16     7    1
    27     8     7    1
    28     6     7    1
    29     6    27    1
