@<TRIPOS>MOLECULE
1cg1_GDP_A_1.pdb
 28 30 0 0 0
SMALL
GASTEIGER

@<TRIPOS>ATOM
      1  PB        -4.2440   47.2300   45.3160 P.3   432  GDP432      0.5373
      2  O1B       -4.0020   46.5670   44.0140 O.2   432  GDP432     -0.2221
      3  O2B       -5.5050   48.0070   45.2930 O.3   432  GDP432     -0.1143
      4  O3B       -4.2820   46.1620   46.3520 O.3   432  GDP432     -0.1143
      5  O3A       -3.0630   48.2730   45.5580 O.3   432  GDP432     -0.2261
      6  PA        -2.8060   49.6350   44.7450 P.3   432  GDP432      0.2231
      7  O1A       -2.5250   49.3740   43.2940 O.2   432  GDP432     -0.5169
      8  O2A       -3.7060   50.7920   45.0180 O.3   432  GDP432     -0.4370
      9  O5'       -1.3720   49.9300   45.3790 O.3   432  GDP432     -0.3111
     10  C5'       -0.2850   49.0300   45.1780 C.3   432  GDP432      0.1813
     11  C4'        0.8410   49.9230   44.5750 C.3   432  GDP432      0.1799
     12  O4'        2.1360   49.3840   44.8180 O.3   432  GDP432     -0.3326
     13  C3'        0.8530   50.1480   43.0860 C.3   432  GDP432      0.2158
     14  O3'        1.6010   51.3270   43.0520 O.3   432  GDP432     -0.2175
     15  C2'        1.7140   48.9560   42.5700 C.3   432  GDP432      0.2310
     16  O2'        2.2750   49.2070   41.3130 O.3   432  GDP432     -0.2158
     17  C1'        2.8050   48.9140   43.6580 C.3   432  GDP432      0.2293
     18  N9         3.3730   47.6970   44.0410 N.pl3 432  GDP432     -0.2354
     19  C8         2.8270   46.4550   44.1360 C.3   432  GDP432      0.2246
     20  N7         3.6310   45.5160   44.6040 N.2   432  GDP432     -0.2322
     21  C5         4.8020   46.1930   44.8470 C.2   432  GDP432      0.2182
     22  C6         6.0090   45.7000   45.3670 C.1   432  GDP432      0.2372
     23  O6         6.2650   44.5610   45.7800 O.2   432  GDP432     -0.2069
     24  N1         6.9650   46.7120   45.4410 N.2   432  GDP432     -0.2485
     25  C2         6.7340   48.0220   45.0640 C.1   432  GDP432      0.2531
     26  N2         7.7370   48.9030   45.1560 N.pl3 432  GDP432     -0.0226
     27  N3         5.5380   48.4710   44.5830 N.2   432  GDP432     -0.3074
     28  C4         4.6590   47.5040   44.5070 C.2   432  GDP432      0.2300
@<TRIPOS>BOND
     1    16    15    1
     2    15    13    1
     3    15    17    1
     4    14    13    1
     5    13    11    1
     6     7     6    2
     7    17    18    1
     8    17    12    1
     9     2     1    2
    10    18    19    1
    11    18    28    1
    12    19    20    1
    13    28    27    2
    14    28    21    1
    15    11    12    1
    16    11    10    1
    17    27    25    2
    18    20    21    2
    19     6     8    1
    20     6     9    1
    21     6     5    1
    22    21    22    1
    23    25    26    1
    24    25    24    2
    25    10     9    1
    26     3     1    1
    27     1     5    1
    28     1     4    1
    29    22    24    2
    30    22    23    2
