@<TRIPOS>MOLECULE
1cg3_IMO_A_1.pdb
 27 29 0 0 0
SMALL
GASTEIGER

@<TRIPOS>ATOM
      1  P         -8.4970   49.0230   46.7910 P.3   440  IMO440      0.5898
      2  O1        -7.5690   49.7050   45.8590 O.2   440  IMO440     -0.2114
      3  C2        -8.0820   51.7100   50.1300 C.3   440  IMO440      0.3944
      4  C1'      -11.7360   53.4570   51.6840 C.3   440  IMO440      0.3186
      5  C2'      -12.1040   54.9730   51.5030 C.3   440  IMO440      0.2570
      6  C3'      -12.8480   55.3300   52.6910 C.3   440  IMO440      0.2184
      7  C4'      -13.7480   54.1160   52.6430 C.3   440  IMO440      0.1823
      8  C5'      -15.1190   54.3390   51.9990 C.3   440  IMO440      0.1860
      9  O2        -7.6650   48.5490   47.8970 O.3   440  IMO440     -0.1039
     10  O3        -9.1700   47.9030   46.1050 O.3   440  IMO440     -0.1039
     11  PA       -16.0650   54.1570   49.6180 P.3   440  IMO440      0.5327
     12  O1A      -15.6570   52.7370   49.3270 O.3   440  IMO440     -0.1145
     13  O2A      -15.9420   55.0340   48.4170 O.2   440  IMO440     -0.2224
     14  O3A      -17.4240   54.2740   50.1920 O.3   440  IMO440     -0.1145
     15  O5'      -14.9480   54.6850   50.6580 O.3   440  IMO440     -0.2675
     16  O4'      -12.9570   52.9430   52.1960 O.3   440  IMO440     -0.3135
     17  N9       -11.4420   52.9050   50.4430 N.pl3 440  IMO440     -0.1440
     18  C4       -10.2510   52.3140   50.0960 C.2   440  IMO440      0.3462
     19  N3        -9.0860   52.4160   50.7160 N.2   440  IMO440     -0.0347
     20  N1        -8.2170   50.9650   49.0280 N.2   440  IMO440     -0.1827
     21  C6        -9.4130   50.8500   48.3770 C.2   440  IMO440      0.2580
     22  O6        -9.6520   50.0430   47.2650 O.2   440  IMO440     -0.3807
     23  C5       -10.4720   51.5930   48.9620 C.2   440  IMO440      0.2152
     24  N7       -11.8110   51.7110   48.5570 N.2   440  IMO440     -0.2121
     25  C8       -12.3640   52.4980   49.4610 C.3   440  IMO440      0.3376
     26  O2'      -10.9220   55.7450   51.4630 O.3   440  IMO440     -0.2130
     27  O3'      -11.9350   55.2700   53.8850 O.3   440  IMO440     -0.2174
@<TRIPOS>BOND
     1     2     1    2
     2    10     1    1
     3     1    22    1
     4     1     9    1
     5    22    21    1
     6    21    23    1
     7    21    20    2
     8    13    11    2
     9    24    23    2
    10    24    25    1
    11    23    18    1
    12    20     3    1
    13    12    11    1
    14    25    17    1
    15    11    14    1
    16    11    15    1
    17    18    17    1
    18    18    19    2
    19     3    19    1
    20    17     4    1
    21    15     8    1
    22    26     5    1
    23     5     4    1
    24     5     6    1
    25     4    16    1
    26     8     7    1
    27    16     7    1
    28     7     6    1
    29     6    27    1
