@<TRIPOS>MOLECULE
1cg3_GDP_A_1.pdb
 28 30 0 0 0
SMALL
GASTEIGER

@<TRIPOS>ATOM
      1  PB        -4.1310   47.2690   45.2730 P.3   432  GDP432      0.5373
      2  O1B       -4.0220   46.5350   44.0350 O.2   432  GDP432     -0.2221
      3  O2B       -5.2120   48.2430   45.3060 O.3   432  GDP432     -0.1143
      4  O3B       -4.3160   46.1580   46.2630 O.3   432  GDP432     -0.1143
      5  O3A       -2.8390   48.1210   45.5570 O.3   432  GDP432     -0.2261
      6  PA        -2.5520   49.4500   44.7400 P.3   432  GDP432      0.2231
      7  O1A       -2.3580   49.2210   43.2860 O.2   432  GDP432     -0.5169
      8  O2A       -3.4410   50.5690   45.0890 O.3   432  GDP432     -0.4370
      9  O5'       -1.1630   49.6400   45.4690 O.3   432  GDP432     -0.3111
     10  C5'       -0.0730   48.7660   45.3180 C.3   432  GDP432      0.1813
     11  C4'        1.0080   49.7800   44.8890 C.3   432  GDP432      0.1799
     12  O4'        2.3140   49.3160   45.1240 O.3   432  GDP432     -0.3326
     13  C3'        0.9360   50.0500   43.4020 C.3   432  GDP432      0.2158
     14  O3'        1.7090   51.1560   43.1060 O.3   432  GDP432     -0.2175
     15  C2'        1.7880   48.8800   42.9080 C.3   432  GDP432      0.2310
     16  O2'        2.2180   49.2000   41.6230 O.3   432  GDP432     -0.2158
     17  C1'        2.9400   48.9000   43.9260 C.3   432  GDP432      0.2293
     18  N9         3.4900   47.6490   44.2030 N.pl3 432  GDP432     -0.2354
     19  C8         2.8450   46.4400   44.3050 C.3   432  GDP432      0.2246
     20  N7         3.5700   45.5060   44.8130 N.2   432  GDP432     -0.2322
     21  C5         4.8050   46.1190   45.0820 C.2   432  GDP432      0.2182
     22  C6         5.9970   45.5940   45.6460 C.1   432  GDP432      0.2372
     23  O6         6.3370   44.4770   46.0240 O.2   432  GDP432     -0.2069
     24  N1         6.9790   46.5340   45.7440 N.2   432  GDP432     -0.2485
     25  C2         6.8810   47.8350   45.3300 C.1   432  GDP432      0.2531
     26  N2         8.0220   48.5160   45.4490 N.pl3 432  GDP432     -0.0226
     27  N3         5.7500   48.3330   44.8070 N.2   432  GDP432     -0.3074
     28  C4         4.7660   47.4230   44.7130 C.2   432  GDP432      0.2300
@<TRIPOS>BOND
     1    16    15    1
     2    15    13    1
     3    15    17    1
     4    14    13    1
     5     7     6    2
     6    13    11    1
     7    17    18    1
     8    17    12    1
     9     2     1    2
    10    18    19    1
    11    18    28    1
    12    19    20    1
    13    28    27    2
    14    28    21    1
    15     6     8    1
    16     6     9    1
    17     6     5    1
    18    27    25    2
    19    20    21    2
    20    11    12    1
    21    11    10    1
    22    21    22    1
    23     1     3    1
    24     1     5    1
    25     1     4    1
    26    10     9    1
    27    25    26    1
    28    25    24    2
    29    22    24    2
    30    22    23    2
