@<TRIPOS>MOLECULE
1cg4_GDP_A_1.pdb
 28 30 0 0 0
SMALL
GASTEIGER

@<TRIPOS>ATOM
      1  PB        -4.6370   47.3700   44.7110 P.3   432  GDP432      0.5373
      2  O1B       -4.9640   46.6640   43.4260 O.2   432  GDP432     -0.2221
      3  O2B       -5.5490   48.4820   44.9030 O.3   432  GDP432     -0.1143
      4  O3B       -4.5640   46.4130   45.8480 O.3   432  GDP432     -0.1143
      5  O3A       -3.1600   47.9650   44.6650 O.3   432  GDP432     -0.2261
      6  PA        -2.9360   49.4040   43.9620 P.3   432  GDP432      0.2231
      7  O1A       -2.5800   49.1850   42.5420 O.2   432  GDP432     -0.5169
      8  O2A       -3.9550   50.4880   44.2400 O.3   432  GDP432     -0.4370
      9  O5'       -1.5900   49.7660   44.7640 O.3   432  GDP432     -0.3111
     10  C5'       -0.4970   48.8860   44.5150 C.3   432  GDP432      0.1813
     11  C4'        0.5520   49.7740   43.9530 C.3   432  GDP432      0.1799
     12  O4'        1.8850   49.4690   44.1880 O.3   432  GDP432     -0.3326
     13  C3'        0.5540   50.0110   42.4990 C.3   432  GDP432      0.2158
     14  O3'        1.2800   51.2720   42.2740 O.3   432  GDP432     -0.2175
     15  C2'        1.5130   48.9020   41.9670 C.3   432  GDP432      0.2310
     16  O2'        2.0220   49.4430   40.7320 O.3   432  GDP432     -0.2158
     17  C1'        2.5510   48.8900   43.0130 C.3   432  GDP432      0.2293
     18  N9         3.1170   47.6460   43.3260 N.pl3 432  GDP432     -0.2354
     19  C8         2.5720   46.3690   43.4200 C.3   432  GDP432      0.2246
     20  N7         3.4140   45.4640   43.9670 N.2   432  GDP432     -0.2322
     21  C5         4.5590   46.2030   44.2470 C.2   432  GDP432      0.2182
     22  C6         5.7350   45.7670   44.8190 C.1   432  GDP432      0.2372
     23  O6         5.9960   44.6070   45.2030 O.2   432  GDP432     -0.2069
     24  N1         6.6520   46.8230   44.9040 N.2   432  GDP432     -0.2485
     25  C2         6.4370   48.1270   44.4960 C.1   432  GDP432      0.2531
     26  N2         7.3930   49.0500   44.6680 N.pl3 432  GDP432     -0.0226
     27  N3         5.2900   48.5110   43.9560 N.2   432  GDP432     -0.3074
     28  C4         4.4220   47.5020   43.8660 C.2   432  GDP432      0.2300
@<TRIPOS>BOND
     1    16    15    1
     2    15    13    1
     3    15    17    1
     4    14    13    1
     5    13    11    1
     6     7     6    2
     7    17    18    1
     8    17    12    1
     9    18    19    1
    10    18    28    1
    11    19    20    1
    12     2     1    2
    13    28    27    2
    14    28    21    1
    15    11    12    1
    16    11    10    1
    17    27    25    2
    18     6     8    1
    19     6     5    1
    20     6     9    1
    21    20    21    2
    22    21    22    1
    23    25    26    1
    24    25    24    2
    25    10     9    1
    26     5     1    1
    27     1     3    1
    28     1     4    1
    29    22    24    2
    30    22    23    2
