@<TRIPOS>MOLECULE
1cg4_IMO_A_1.pdb
 27 29 0 0 0
SMALL
GASTEIGER

@<TRIPOS>ATOM
      1  P         -8.6830   48.9820   46.5770 P.3   440  IMO440      0.5898
      2  O1        -7.7430   49.4150   45.5200 O.2   440  IMO440     -0.2114
      3  C2        -8.4080   51.8950   49.7480 C.3   440  IMO440      0.3944
      4  C1'      -12.0820   53.4640   51.2090 C.3   440  IMO440      0.3186
      5  C2'      -12.1990   54.9840   51.1830 C.3   440  IMO440      0.2570
      6  C3'      -12.9940   55.1960   52.4540 C.3   440  IMO440      0.2184
      7  C4'      -13.9680   54.0190   52.4770 C.3   440  IMO440      0.1823
      8  C5'      -15.2340   54.3390   51.8800 C.3   440  IMO440      0.1860
      9  O2        -7.8790   48.6980   47.7870 O.3   440  IMO440     -0.1039
     10  O3        -9.3900   47.6980   46.1450 O.3   440  IMO440     -0.1039
     11  PA       -16.3870   54.1510   49.5400 P.3   440  IMO440      0.5327
     12  O1A      -16.1230   52.7100   49.3160 O.3   440  IMO440     -0.1145
     13  O2A      -16.2970   54.8400   48.2170 O.2   440  IMO440     -0.2224
     14  O3A      -17.7450   54.3190   50.1150 O.3   440  IMO440     -0.1145
     15  O5'      -15.2000   54.7240   50.5100 O.3   440  IMO440     -0.2675
     16  O4'      -13.3660   52.9260   51.7600 O.3   440  IMO440     -0.3135
     17  N9       -11.6850   52.9990   49.9520 N.pl3 440  IMO440     -0.1440
     18  C4       -10.4870   52.4300   49.6230 C.2   440  IMO440      0.3462
     19  N3        -9.3800   52.5440   50.2660 N.2   440  IMO440     -0.0347
     20  N1        -8.5580   51.1760   48.6550 N.2   440  IMO440     -0.1827
     21  C6        -9.6560   51.0180   47.9280 C.2   440  IMO440      0.2580
     22  O6        -9.8020   50.1470   46.8090 O.2   440  IMO440     -0.3807
     23  C5       -10.6970   51.7270   48.4820 C.2   440  IMO440      0.2152
     24  N7       -12.0130   51.8310   48.0310 N.2   440  IMO440     -0.2121
     25  C8       -12.5380   52.5820   48.9240 C.3   440  IMO440      0.3376
     26  O2'      -10.9270   55.4610   51.3500 O.3   440  IMO440     -0.2130
     27  O3'      -12.0220   55.1240   53.5540 O.3   440  IMO440     -0.2174
@<TRIPOS>BOND
     1     2     1    2
     2    10     1    1
     3     1    22    1
     4     1     9    1
     5    22    21    1
     6    21    23    1
     7    21    20    2
     8    24    23    2
     9    24    25    1
    10    13    11    2
    11    23    18    1
    12    20     3    1
    13    25    17    1
    14    12    11    1
    15    11    14    1
    16    11    15    1
    17    18    17    1
    18    18    19    2
    19     3    19    1
    20    17     4    1
    21    15     8    1
    22     5     4    1
    23     5    26    1
    24     5     6    1
    25     4    16    1
    26    16     7    1
    27     8     7    1
    28     6     7    1
    29     6    27    1
