@<TRIPOS>MOLECULE
1cg5_HEM_A_1.pdb
 43 50 0 0 0
SMALL
GASTEIGER

@<TRIPOS>ATOM
      1 FE          7.3820   30.8570    0.9800 Fe    142  HEM142      0.0000
      2  CHA        7.6590   31.6670   -2.3280 C.2   142  HEM142      0.0000
      3  CHB        9.5130   33.4360    1.7360 C.2   142  HEM142      0.0000
      4  CHC        7.8510   29.5930    4.1530 C.2   142  HEM142      0.0000
      5  CHD        6.2320   27.7530    0.0250 C.2   142  HEM142      0.0000
      6  NA         8.2820   32.2910   -0.0600 N.2   142  HEM142      0.0000
      7  C1A        8.2330   32.5110   -1.4250 C.2   142  HEM142      0.0000
      8  C2A        9.0170   33.6470   -1.8270 C.2   142  HEM142      0.0000
      9  C3A        9.5760   34.1520   -0.6870 C.2   142  HEM142      0.0000
     10  C4A        9.1220   33.2970    0.4100 C.2   142  HEM142      0.0000
     11  CMA       10.5420   35.3370   -0.5820 C.3   142  HEM142      0.0000
     12  CAA        9.2010   34.1320   -3.2660 C.3   142  HEM142      0.0000
     13  CBA        8.3610   35.3880   -3.4380 C.3   142  HEM142      0.0000
     14  CGA        8.5070   36.0370   -4.8070 C.2   142  HEM142      0.0000
     15  O1A        7.4880   36.5380   -5.3280 O.co2 142  HEM142      0.0000
     16  O2A        9.6330   36.0640   -5.3550 O.co2 142  HEM142      0.0000
     17  NB         8.3760   31.4530    2.6000 N.ar  142  HEM142      0.0000
     18  C1B        9.1550   32.5820    2.7690 C.ar  142  HEM142      0.0000
     19  C2B        9.5670   32.7430    4.1620 C.ar  142  HEM142      0.0000
     20  C3B        9.0830   31.6580    4.8350 C.ar  142  HEM142      0.0000
     21  C4B        8.3750   30.8580    3.8560 C.ar  142  HEM142      0.0000
     22  CMB       10.3530   33.9310    4.7240 C.3   142  HEM142      0.0000
     23  CAB        9.1860   31.3120    6.1740 C.3   142  HEM142      0.0000
     24  CBB       10.3580   31.5150    7.0040 C.3   142  HEM142      0.0000
     25  NC         7.0410   29.0850    1.9220 N.2   142  HEM142      0.0000
     26  C1C        7.2390   28.7440    3.2510 C.2   142  HEM142      0.0000
     27  C2C        6.8250   27.3760    3.5430 C.2   142  HEM142      0.0000
     28  C3C        6.3740   26.8690    2.3520 C.2   142  HEM142      0.0000
     29  C4C        6.5400   27.9140    1.3730 C.2   142  HEM142      0.0000
     30  CMC        6.9050   26.6810    4.9090 C.3   142  HEM142      0.0000
     31  CAC        5.8060   25.6370    2.0190 C.3   142  HEM142      0.0000
     32  CBC        5.8270   24.3970    2.7410 C.3   142  HEM142      0.0000
     33  ND         6.9410   29.9590   -0.7540 N.ar  142  HEM142      0.0000
     34  C1D        6.3890   28.7010   -0.9650 C.ar  142  HEM142      0.0000
     35  C2D        6.0990   28.4670   -2.3800 C.ar  142  HEM142      0.0000
     36  C3D        6.5620   29.5650   -3.0230 C.ar  142  HEM142      0.0000
     37  C4D        7.0740   30.4680   -2.0320 C.ar  142  HEM142      0.0000
     38  CMD        5.3930   27.2480   -2.9980 C.3   142  HEM142      0.0000
     39  CAD        6.5850   29.8080   -4.5250 C.3   142  HEM142      0.0000
     40  CBD        7.9450   29.5120   -5.1370 C.3   142  HEM142      0.0000
     41  CGD        8.0010   29.7900   -6.6350 C.2   142  HEM142      0.0000
     42  O1D        7.4180   30.7980   -7.0900 O.co2 142  HEM142      0.0000
     43  O2D        8.6480   29.0050   -7.3580 O.co2 142  HEM142      0.0000
@<TRIPOS>BOND
     1    43    41   ar
     2    42    41   ar
     3    41    40    1
     4    16    14   ar
     5    15    14   ar
     6    40    39    1
     7    14    13    1
     8    39    36    1
     9    13    12    1
    10    12     8    1
    11    36    35   ar
    12    36    37   ar
    13    38    35    1
    14    35    34   ar
    15     2    37    2
    16     2     7    1
    17    37    33   ar
    18     8     7    1
    19     8     9    2
    20     7     6    2
    21    34    33   ar
    22    34     5    2
    23    33     1    1
    24     9    11    1
    25     9    10    1
    26     6    10    1
    27     6     1    1
    28     5    29    1
    29    10     3    2
    30     1    25    1
    31     1    17    1
    32    29    25    2
    33    29    28    1
    34     3    18    1
    35    25    26    1
    36    31    28    1
    37    31    32    1
    38    28    27    2
    39    17    18   ar
    40    17    21   ar
    41    18    19   ar
    42    26    27    1
    43    26     4    2
    44    27    30    1
    45    21     4    1
    46    21    20   ar
    47    19    22    1
    48    19    20   ar
    49    20    23    1
    50    23    24    1
