@<TRIPOS>MOLECULE
1cg6_MTA_A_1.pdb
 20 22 0 0 0
SMALL
GASTEIGER

@<TRIPOS>ATOM
      1  CS        59.5150   13.6780   32.1280 C.3   292  MTA292      0.0693
      2  S5'       58.8930   14.4900   30.6240 S.3   292  MTA292     -0.1367
      3  C5'       59.7360   16.0980   30.7420 C.3   292  MTA292      0.0899
      4  C4'       61.1600   15.9740   31.2480 C.3   292  MTA292      0.1630
      5  O4'       61.9480   15.4130   30.1630 O.3   292  MTA292     -0.3153
      6  C2'       62.4720   17.7210   30.2760 C.3   292  MTA292      0.2569
      7  O2'       63.8380   18.2100   30.5270 O.3   292  MTA292     -0.2130
      8  C3'       61.8030   17.2890   31.6490 C.3   292  MTA292      0.2168
      9  O3'       62.8030   17.1140   32.7270 O.3   292  MTA292     -0.2175
     10  C1'       62.5040   16.4660   29.3290 C.3   292  MTA292      0.3185
     11  N9        61.6410   16.5640   27.9870 N.pl3 292  MTA292     -0.1439
     12  C8        61.3710   15.5070   27.1300 C.3   292  MTA292      0.3377
     13  N7        60.6290   15.8280   26.0860 N.2   292  MTA292     -0.2095
     14  C5        60.3870   17.1780   26.2550 C.2   292  MTA292      0.2526
     15  C6        59.6600   18.1280   25.5030 C.2   292  MTA292      0.4393
     16  N6        59.0180   17.8150   24.3760 N.pl3 292  MTA292      0.2180
     17  N1        59.6390   19.4040   25.9860 N.2   292  MTA292      0.0021
     18  C2        60.2830   19.7070   27.1150 C.3   292  MTA292      0.5254
     19  N3        60.9930   18.8980   27.9040 N.2   292  MTA292     -0.0055
     20  C4        61.0020   17.6430   27.4100 C.2   292  MTA292      0.3518
@<TRIPOS>BOND
     1    16    15    1
     2    15    17    2
     3    15    14    1
     4    17    18    1
     5    13    14    2
     6    13    12    1
     7    14    20    1
     8    18    19    1
     9    12    11    1
    10    20    19    2
    11    20    11    1
    12    11    10    1
    13    10     5    1
    14    10     6    1
    15     5     4    1
    16     6     7    1
    17     6     8    1
    18     2     3    1
    19     2     1    1
    20     3     4    1
    21     4     8    1
    22     8     9    1
