@<TRIPOS>MOLECULE
1cg8_HEM_A_1.pdb
 43 50 0 0 0
SMALL
GASTEIGER

@<TRIPOS>ATOM
      1 FE        -16.7710   43.6140   21.5710 Fe    142  HEM142      0.0000
      2  CHA      -19.8860   44.8750   21.9110 C.2   142  HEM142      0.0000
      3  CHB      -15.9120   46.3880   19.6590 C.2   142  HEM142      0.0000
      4  CHC      -13.6200   42.3840   21.0950 C.2   142  HEM142      0.0000
      5  CHD      -17.6050   40.8810   23.3190 C.2   142  HEM142      0.0000
      6  NA       -17.7120   45.2070   20.8600 N.ar  142  HEM142      0.0000
      7  C1A      -19.0240   45.5700   21.0870 C.ar  142  HEM142      0.0000
      8  C2A      -19.3470   46.7910   20.3810 C.ar  142  HEM142      0.0000
      9  C3A      -18.2470   47.1810   19.7030 C.ar  142  HEM142      0.0000
     10  C4A      -17.2230   46.2390   20.0400 C.ar  142  HEM142      0.0000
     11  CMA      -18.1120   48.3500   18.7520 C.3   142  HEM142      0.0000
     12  CAA      -20.6390   47.5740   20.4760 C.3   142  HEM142      0.0000
     13  CBA      -20.6070   48.3600   21.7780 C.3   142  HEM142      0.0000
     14  CGA      -21.8290   49.2300   21.9690 C.2   142  HEM142      0.0000
     15  O1A      -22.9530   48.6850   22.0030 O.co2 142  HEM142      0.0000
     16  O2A      -21.6630   50.4620   22.0900 O.co2 142  HEM142      0.0000
     17  NB       -15.1690   44.2160   20.5740 N.2   142  HEM142      0.0000
     18  C1B      -14.9600   45.4220   19.9110 C.2   142  HEM142      0.0000
     19  C2B      -13.6280   45.5530   19.4500 C.2   142  HEM142      0.0000
     20  C3B      -12.9720   44.4230   19.8710 C.2   142  HEM142      0.0000
     21  C4B      -13.9470   43.5890   20.5040 C.2   142  HEM142      0.0000
     22  CMB      -13.1180   46.7550   18.6310 C.3   142  HEM142      0.0000
     23  CAB      -11.6050   44.1430   19.8590 C.3   142  HEM142      0.0000
     24  CBB      -10.8830   43.7410   18.6670 C.3   142  HEM142      0.0000
     25  NC       -15.7770   42.0190   22.1570 N.ar  142  HEM142      0.0000
     26  C1C      -14.4610   41.6420   21.8720 C.ar  142  HEM142      0.0000
     27  C2C      -14.1350   40.3320   22.3820 C.ar  142  HEM142      0.0000
     28  C3C      -15.2690   39.8890   23.0000 C.ar  142  HEM142      0.0000
     29  C4C      -16.2760   40.9540   22.8630 C.ar  142  HEM142      0.0000
     30  CMC      -12.8210   39.5730   22.2060 C.3   142  HEM142      0.0000
     31  CAC      -15.5050   38.6580   23.6210 C.3   142  HEM142      0.0000
     32  CBC      -15.0310   37.3520   23.1870 C.3   142  HEM142      0.0000
     33  ND       -18.3890   43.0380   22.4900 N.2   142  HEM142      0.0000
     34  C1D      -18.5950   41.8480   23.1490 C.2   142  HEM142      0.0000
     35  C2D      -19.9770   41.7360   23.6140 C.2   142  HEM142      0.0000
     36  C3D      -20.6040   42.8880   23.2380 C.2   142  HEM142      0.0000
     37  C4D      -19.6070   43.6900   22.5560 C.2   142  HEM142      0.0000
     38  CMD      -20.5740   40.5380   24.3470 C.3   142  HEM142      0.0000
     39  CAD      -22.0810   43.2680   23.3640 C.3   142  HEM142      0.0000
     40  CBD      -22.9820   42.3540   22.5320 C.3   142  HEM142      0.0000
     41  CGD      -24.4190   42.8490   22.4370 C.2   142  HEM142      0.0000
     42  O1D      -25.0100   43.2090   23.4790 O.co2 142  HEM142      0.0000
     43  O2D      -24.9570   42.8750   21.3090 O.co2 142  HEM142      0.0000
@<TRIPOS>BOND
     1    22    19    1
     2    24    23    1
     3    11     9    1
     4    19    20    2
     5    19    18    1
     6     3    18    1
     7     3    10    2
     8     9    10   ar
     9     9     8   ar
    10    23    20    1
    11    20    21    1
    12    18    17    2
    13    10     6   ar
    14     8    12    1
    15     8     7   ar
    16    12    13    1
    17    21    17    1
    18    21     4    2
    19    17     1    1
    20     6     7   ar
    21     6     1    1
    22     7     2    2
    23     4    26    1
    24    43    41   ar
    25     1    25    1
    26     1    33    1
    27    13    14    1
    28    26    25   ar
    29    26    27   ar
    30     2    37    1
    31    14    15   ar
    32    14    16   ar
    33    25    29   ar
    34    30    27    1
    35    27    28   ar
    36    41    40    1
    37    41    42   ar
    38    33    37    2
    39    33    34    1
    40    40    39    1
    41    37    36    1
    42    29    28   ar
    43    29     5    1
    44    28    31    1
    45    34     5    2
    46    34    35    1
    47    32    31    1
    48    36    39    1
    49    36    35    2
    50    35    38    1
