@<TRIPOS>MOLECULE
1cgh_1ZG_A_1.pdb
 39 40 0 0 0
SMALL
GASTEIGER

@<TRIPOS>ATOM
      1  C1        13.5290   47.3740   -0.4050 C.2     1  1ZG1        0.3565
      2  O1        12.6290   47.3560   -1.2780 O.co2   1  1ZG1       -0.2464
      3  O2        14.8790   47.8720   -0.5780 O.co2   1  1ZG1       -0.2464
      4  C2        13.0790   46.7080    0.9100 C.3     1  1ZG1        0.0574
      5  C3        14.1910   45.9310    1.6660 C.3     1  1ZG1        0.0342
      6  C4        13.6790   45.2980    2.9360 C.2     1  1ZG1        0.2144
      7  O3        13.7390   45.9400    3.9950 O.2     1  1ZG1       -0.2758
      8  N         12.8100   44.3010    2.7550 N.am    1  1ZG1       -0.2989
      9  CA        12.0410   43.7580    3.8710 C.3     1  1ZG1        0.1487
     10  C         12.6520   42.4090    4.2800 C.2     1  1ZG1        0.2438
     11  O         13.4530   41.8480    3.5260 O.2     1  1ZG1       -0.2731
     12  CB        10.4890   43.6270    3.5210 C.3     1  1ZG1        0.0269
     13  CG1       10.2230   42.5820    2.4750 C.3     1  1ZG1        0.0022
     14  CG2        9.7170   43.2910    4.7420 C.3     1  1ZG1        0.0022
     15  N1        13.0520   42.1110    5.5340 N.am    1  1ZG1       -0.2717
     16  CA1       13.4810   40.7730    5.9600 C.3     1  1ZG1        0.1518
     17  C5        12.5410   39.6590    5.4910 C.2     1  1ZG1        0.2409
     18  O4        11.3180   39.8480    5.4720 O.2     1  1ZG1       -0.2733
     19  CB1       13.5590   40.9010    7.4890 C.3     1  1ZG1        0.0310
     20  CG        12.6520   41.9910    7.8190 C.3     1  1ZG1        0.0237
     21  CD        12.7890   42.9710    6.7030 C.3     1  1ZG1        0.0939
     22  N2        13.1150   38.5130    5.0900 N.am    1  1ZG1       -0.2967
     23  CA2       12.5510   37.6700    4.7360 C.3     1  1ZG1        0.1513
     24  P         12.4440   36.2810    5.8810 P.3     1  1ZG1        0.2735
     25  O1P       11.5050   35.0770    5.5330 O.3     1  1ZG1       -0.1728
     26  O2P       11.7940   36.7470    7.1540 O.3     1  1ZG1       -0.1728
     27  CB2       12.8360   36.9820    3.3680 C.3     1  1ZG1        0.0553
     28  CG3       12.6730   37.7690    2.0740 C.ar    1  1ZG1       -0.0200
     29  CD1       13.6030   37.6500    1.0490 C.ar    1  1ZG1       -0.0042
     30  CD2       11.5840   38.6390    1.8940 C.ar    1  1ZG1       -0.0042
     31  CE1       13.4600   38.3930   -0.1580 C.ar    1  1ZG1       -0.0003
     32  CE2       11.4320   39.3790    0.7000 C.ar    1  1ZG1       -0.0003
     33  CZ        12.3780   39.2510   -0.3250 C.ar    1  1ZG1       -0.0000
     34  H21       12.2280   46.0570    0.7370 H       1  1ZG1        0.0384
     35  H22       12.7190   47.5240    1.5290 H       1  1ZG1        0.0384
     36  H31       15.0030   46.5880    1.9330 H       1  1ZG1        0.0364
     37  H32       14.7130   45.2040    1.0660 H       1  1ZG1        0.0364
     38  H         12.9730   43.7290    1.9760 H       1  1ZG1        0.1498
     39  HN2       14.0970   38.4320    5.1170 H       1  1ZG1        0.1499
@<TRIPOS>BOND
     1     2     1   ar
     2     3     1   ar
     3     1     4    1
     4    33    31   ar
     5    33    32   ar
     6    31    29   ar
     7    32    30   ar
     8    34     4    1
     9     4    35    1
    10     4     5    1
    11    29    28   ar
    12    37     5    1
    13     5    36    1
    14     5     6    1
    15    30    28   ar
    16    38     8    1
    17    28    27    1
    18    13    12    1
    19     8     6   am
    20     8     9    1
    21     6     7    2
    22    27    23    1
    23    12     9    1
    24    12    14    1
    25    11    10    2
    26     9    10    1
    27    10    15   am
    28    23    22    1
    29    23    24    1
    30    22    39    1
    31    22    17   am
    32    18    17    2
    33    17    16    1
    34    25    24    1
    35    15    16    1
    36    15    21    1
    37    24    26    1
    38    16    19    1
    39    21    20    1
    40    19    20    1
