@<TRIPOS>MOLECULE
1cgk_NAR_A_1.pdb
 20 22 0 0 0
SMALL
GASTEIGER

@<TRIPOS>ATOM
      1  C1        19.6900   52.0180   56.0110 C.ar  390  NAR390      0.0792
      2  C2        18.7350   52.4490   56.9440 C.ar  390  NAR390      0.2020
      3  C3        17.7480   51.5080   57.2940 C.ar  390  NAR390      0.0843
      4  C4        17.9900   50.1420   57.2420 C.ar  390  NAR390      0.2046
      5  C5        19.0090   49.7520   56.3480 C.ar  390  NAR390      0.1078
      6  C6        19.8150   50.6690   55.6560 C.ar  390  NAR390      0.1478
      7  C7        18.9420   48.3700   55.8230 C.2   390  NAR390      0.1831
      8  C8        19.9880   47.9750   54.8190 C.3   390  NAR390      0.1171
      9  C9        21.1680   48.9400   54.7440 C.3   390  NAR390      0.1916
     10  O1        20.6520   50.2400   54.6680 O.3   390  NAR390     -0.4743
     11  O2        18.0240   47.5990   56.1440 O.2   390  NAR390     -0.2910
     12  C10       21.9470   48.6400   53.4190 C.2   390  NAR390     -0.0087
     13  C11       21.7750   49.2610   52.1780 C.2   390  NAR390     -0.0286
     14  C12       22.6630   49.0170   51.0950 C.3   390  NAR390      0.0583
     15  C13       23.5780   47.9540   51.2460 C.3   390  NAR390      0.1566
     16  C14       23.8670   47.5840   52.5660 C.3   390  NAR390      0.0377
     17  C15       22.8550   47.5720   53.5200 C.3   390  NAR390      0.0278
     18  O3        24.4840   47.7120   50.2940 O.3   390  NAR390     -0.2228
     19  O4        18.2500   53.7130   57.0990 O.3   390  NAR390     -0.2864
     20  O5        17.1610   49.2360   57.8670 O.3   390  NAR390     -0.2863
@<TRIPOS>BOND
     1    18    15    1
     2    14    15    1
     3    14    13    1
     4    15    16    1
     5    13    12    2
     6    16    17    1
     7    12    17    1
     8    12     9    1
     9    10     9    1
    10    10     6    1
    11     9     8    1
    12     8     7    1
    13     6     1   ar
    14     6     5   ar
    15     7    11    2
    16     7     5    1
    17     1     2   ar
    18     5     4   ar
    19     2    19    1
    20     2     3   ar
    21     4     3   ar
    22     4    20    1
