@<TRIPOS>MOLECULE
1cgn_HEM_A_1.pdb
 43 50 0 0 0
SMALL
GASTEIGER

@<TRIPOS>ATOM
      1 FE         10.6290   33.2210   38.3040 Fe    128  HEM128      0.0000
      2  CHA        8.8310   36.1460   38.4310 C.2   128  HEM128      0.0000
      3  CHB       10.9490   33.2490   41.6170 C.2   128  HEM128      0.0000
      4  CHC       11.8270   29.9770   38.1850 C.2   128  HEM128      0.0000
      5  CHD       10.0600   33.0800   34.9290 C.2   128  HEM128      0.0000
      6  NA        10.0520   34.4280   39.7060 N.2   128  HEM128      0.0000
      7  C1A        9.2580   35.5710   39.5980 C.2   128  HEM128      0.0000
      8  C2A        8.9730   36.0640   40.9260 C.2   128  HEM128      0.0000
      9  C3A        9.5740   35.2710   41.7950 C.2   128  HEM128      0.0000
     10  C4A       10.2270   34.2410   41.0550 C.2   128  HEM128      0.0000
     11  CMA        9.5750   35.3270   43.3250 C.3   128  HEM128      0.0000
     12  CAA        8.1390   37.2860   41.2070 C.3   128  HEM128      0.0000
     13  CBA        6.6830   37.0430   41.6150 C.3   128  HEM128      0.0000
     14  CGA        5.9750   38.2930   42.0570 C.2   128  HEM128      0.0000
     15  O1A        5.6650   39.1190   41.1650 O.co2 128  HEM128      0.0000
     16  O2A        5.8070   38.4470   43.2750 O.co2 128  HEM128      0.0000
     17  NB        11.1940   31.8630   39.6400 N.ar  128  HEM128      0.0000
     18  C1B       11.3400   32.1030   40.9850 C.ar  128  HEM128      0.0000
     19  C2B       12.0200   31.0040   41.6120 C.ar  128  HEM128      0.0000
     20  C3B       12.2500   30.0830   40.6690 C.ar  128  HEM128      0.0000
     21  C4B       11.7510   30.6100   39.4130 C.ar  128  HEM128      0.0000
     22  CMB       12.3670   30.9760   43.1360 C.3   128  HEM128      0.0000
     23  CAB       12.9510   28.6860   40.8100 C.2   128  HEM128      0.0000
     24  CBB       12.6790   27.8870   41.8930 C.2   128  HEM128      0.0000
     25  NC        10.8560   31.8380   36.8720 N.2   128  HEM128      0.0000
     26  C1C       11.4270   30.5780   37.0050 C.2   128  HEM128      0.0000
     27  C2C       11.5230   29.9470   35.7100 C.2   128  HEM128      0.0000
     28  C3C       11.0530   30.7940   34.7900 C.2   128  HEM128      0.0000
     29  C4C       10.5960   31.9740   35.5090 C.2   128  HEM128      0.0000
     30  CMC       12.0940   28.5360   35.5260 C.3   128  HEM128      0.0000
     31  CAC       10.9200   30.5700   33.2340 C.3   128  HEM128      0.0000
     32  CBC       10.5190   29.3390   32.7500 C.3   128  HEM128      0.0000
     33  ND         9.6290   34.3490   36.9550 N.ar  128  HEM128      0.0000
     34  C1D        9.5690   34.1650   35.5860 C.ar  128  HEM128      0.0000
     35  C2D        8.9400   35.3200   34.9680 C.ar  128  HEM128      0.0000
     36  C3D        8.5720   36.1310   35.9380 C.ar  128  HEM128      0.0000
     37  C4D        9.0080   35.5700   37.1850 C.ar  128  HEM128      0.0000
     38  CMD        8.6800   35.4810   33.4380 C.3   128  HEM128      0.0000
     39  CAD        7.7840   37.4380   35.8280 C.3   128  HEM128      0.0000
     40  CBD        6.2780   37.1570   35.9950 C.3   128  HEM128      0.0000
     41  CGD        5.3420   38.3360   35.8600 C.2   128  HEM128      0.0000
     42  O1D        4.4080   38.2070   35.0360 O.co2 128  HEM128      0.0000
     43  O2D        5.5270   39.3420   36.6050 O.co2 128  HEM128      0.0000
@<TRIPOS>BOND
     1    32    31    1
     2    31    28    1
     3    38    35    1
     4    28    29    1
     5    28    27    2
     6     5    29    1
     7     5    34    2
     8    35    34   ar
     9    35    36   ar
    10    42    41   ar
    11    29    25    2
    12    30    27    1
    13    34    33   ar
    14    27    26    1
    15    39    36    1
    16    39    40    1
    17    41    40    1
    18    41    43   ar
    19    36    37   ar
    20    25    26    1
    21    25     1    1
    22    33    37   ar
    23    33     1    1
    24    26     4    2
    25    37     2    2
    26     4    21    1
    27     1    17    1
    28     1     6    1
    29     2     7    1
    30    21    17   ar
    31    21    20   ar
    32     7     6    2
    33     7     8    1
    34    17    18   ar
    35     6    10    1
    36    20    23    1
    37    20    19   ar
    38    23    24    2
    39     8    12    1
    40     8     9    2
    41    18    19   ar
    42    18     3    1
    43    10     3    2
    44    10     9    1
    45    15    14   ar
    46    12    13    1
    47    19    22    1
    48    13    14    1
    49     9    11    1
    50    14    16   ar
