@<TRIPOS>MOLECULE
1cgo_HEM_A_1.pdb
 43 50 0 0 0
SMALL
GASTEIGER

@<TRIPOS>ATOM
      1 FE         10.7180   33.0840   38.5030 Fe    128  HEM128      0.0000
      2  CHA        8.8380   35.9780   38.6050 C.2   128  HEM128      0.0000
      3  CHB       10.9490   33.1520   41.8360 C.2   128  HEM128      0.0000
      4  CHC       11.7810   29.7960   38.4090 C.2   128  HEM128      0.0000
      5  CHD       10.1200   32.9020   35.1510 C.2   128  HEM128      0.0000
      6  NA        10.0020   34.2540   39.9030 N.2   128  HEM128      0.0000
      7  C1A        9.2400   35.4400   39.7740 C.2   128  HEM128      0.0000
      8  C2A        8.9900   35.9940   41.0980 C.2   128  HEM128      0.0000
      9  C3A        9.5570   35.1800   41.9730 C.2   128  HEM128      0.0000
     10  C4A       10.2310   34.1340   41.2580 C.2   128  HEM128      0.0000
     11  CMA        9.6100   35.2940   43.4960 C.3   128  HEM128      0.0000
     12  CAA        8.1900   37.2610   41.3840 C.3   128  HEM128      0.0000
     13  CBA        6.7520   36.9750   41.8550 C.3   128  HEM128      0.0000
     14  CGA        6.0110   38.2510   42.1870 C.2   128  HEM128      0.0000
     15  O1A        5.7690   39.0260   41.2560 O.co2 128  HEM128      0.0000
     16  O2A        5.7630   38.4710   43.3800 O.co2 128  HEM128      0.0000
     17  NB        11.1820   31.7470   39.8500 N.ar  128  HEM128      0.0000
     18  C1B       11.3800   32.0080   41.2020 C.ar  128  HEM128      0.0000
     19  C2B       12.0850   30.8980   41.8280 C.ar  128  HEM128      0.0000
     20  C3B       12.2690   29.9510   40.8770 C.ar  128  HEM128      0.0000
     21  C4B       11.7190   30.4610   39.6200 C.ar  128  HEM128      0.0000
     22  CMB       12.4270   30.8720   43.3470 C.3   128  HEM128      0.0000
     23  CAB       12.9270   28.5660   41.0140 C.2   128  HEM128      0.0000
     24  CBB       12.5040   27.7860   42.0650 C.2   128  HEM128      0.0000
     25  NC        10.8680   31.6740   37.1220 N.2   128  HEM128      0.0000
     26  C1C       11.4310   30.4100   37.2560 C.2   128  HEM128      0.0000
     27  C2C       11.5800   29.7930   35.9600 C.2   128  HEM128      0.0000
     28  C3C       11.1190   30.6380   35.0290 C.2   128  HEM128      0.0000
     29  C4C       10.6520   31.8160   35.7500 C.2   128  HEM128      0.0000
     30  CMC       12.2060   28.4020   35.7970 C.3   128  HEM128      0.0000
     31  CAC       11.0400   30.4400   33.4660 C.3   128  HEM128      0.0000
     32  CBC       10.9060   29.1660   32.9430 C.3   128  HEM128      0.0000
     33  ND         9.6610   34.1580   37.1610 N.ar  128  HEM128      0.0000
     34  C1D        9.6210   33.9990   35.7910 C.ar  128  HEM128      0.0000
     35  C2D        8.9600   35.1450   35.1440 C.ar  128  HEM128      0.0000
     36  C3D        8.6030   35.9740   36.1290 C.ar  128  HEM128      0.0000
     37  C4D        9.0490   35.3970   37.3760 C.ar  128  HEM128      0.0000
     38  CMD        8.7390   35.3010   33.6060 C.3   128  HEM128      0.0000
     39  CAD        7.8210   37.3030   36.0280 C.3   128  HEM128      0.0000
     40  CBD        6.2870   37.0420   36.0480 C.3   128  HEM128      0.0000
     41  CGD        5.3560   38.2290   35.9270 C.2   128  HEM128      0.0000
     42  O1D        4.4260   38.0550   35.0690 O.co2 128  HEM128      0.0000
     43  O2D        5.4860   39.2170   36.7000 O.co2 128  HEM128      0.0000
@<TRIPOS>BOND
     1    32    31    1
     2    31    28    1
     3    38    35    1
     4    28    29    1
     5    28    27    2
     6    42    41   ar
     7    35    34   ar
     8    35    36   ar
     9     5    29    1
    10     5    34    2
    11    29    25    2
    12    34    33   ar
    13    30    27    1
    14    41    40    1
    15    41    43   ar
    16    27    26    1
    17    39    40    1
    18    39    36    1
    19    36    37   ar
    20    25    26    1
    21    25     1    1
    22    33    37   ar
    23    33     1    1
    24    26     4    2
    25    37     2    2
    26     4    21    1
    27     1    17    1
    28     1     6    1
    29     2     7    1
    30    21    17   ar
    31    21    20   ar
    32     7     6    2
    33     7     8    1
    34    17    18   ar
    35     6    10    1
    36    20    23    1
    37    20    19   ar
    38    23    24    2
    39     8    12    1
    40     8     9    2
    41    18    19   ar
    42    18     3    1
    43    15    14   ar
    44    10     3    2
    45    10     9    1
    46    12    13    1
    47    19    22    1
    48    13    14    1
    49     9    11    1
    50    14    16   ar
