@<TRIPOS>MOLECULE
1cgp_CMP_A_1.pdb
 25 28 0 0 0
SMALL
GASTEIGER

@<TRIPOS>ATOM
      1  P         30.9040   44.4460   10.2420 P.3   206  CMP206      0.2141
      2  O1P       30.1680   44.6510    8.9740 O.2   206  CMP206     -0.5172
      3  O2P       30.2870   43.6760   11.3350 O.3   206  CMP206     -0.4373
      4  O5'       32.2940   43.8220    9.8810 O.3   206  CMP206     -0.3114
      5  C5'       33.2920   44.5870    9.2250 C.3   206  CMP206      0.1812
      6  C4'       33.5500   45.7820   10.0330 C.3   206  CMP206      0.1792
      7  O4'       34.5070   46.6730    9.4550 O.3   206  CMP206     -0.3137
      8  C3'       32.2900   46.5600   10.0420 C.3   206  CMP206      0.1848
      9  O3'       31.3580   45.8530   10.8490 O.3   206  CMP206     -0.3112
     10  C2'       32.7630   47.8880   10.5960 C.3   206  CMP206      0.2143
     11  O2'       33.0370   47.8250   12.0040 O.3   206  CMP206     -0.3763
     12  C1'       34.0980   47.9980    9.8220 C.3   206  CMP206      0.3149
     13  N9        33.9070   48.8510    8.6180 N.pl3 206  CMP206     -0.1440
     14  C8        33.2550   48.6080    7.4240 C.3   206  CMP206      0.3377
     15  N7        33.2360   49.6330    6.6120 N.2   206  CMP206     -0.2098
     16  C5        33.9270   50.6220    7.3160 C.2   206  CMP206      0.2438
     17  C6        34.2590   51.9560    7.0090 C.2   206  CMP206      0.3428
     18  N6        33.8770   52.5610    5.8870 N.pl3 206  CMP206     -0.2449
     19  N1        34.9570   52.6300    7.9210 N.2   206  CMP206     -0.0059
     20  C2        35.2770   52.0130    9.0510 C.3   206  CMP206      0.5252
     21  N3        35.0340   50.7920    9.4730 N.2   206  CMP206     -0.0055
     22  C4        34.3400   50.1410    8.5270 C.2   206  CMP206      0.3515
     23 HO2'       33.6110   48.5770   12.1940 H     206  CMP206      0.2107
     24 HN61       33.4390   52.0130    5.1530 H     206  CMP206      0.2885
     25 HN62       33.9550   53.5600    5.7560 H     206  CMP206      0.2885
@<TRIPOS>BOND
     1    24    18    1
     2    25    18    1
     3    18    17    1
     4    15    16    2
     5    15    14    1
     6    17    16    1
     7    17    19    2
     8    16    22    1
     9    14    13    1
    10    19    20    1
    11    22    13    1
    12    22    21    2
    13    13    12    1
    14     2     1    2
    15    20    21    1
    16     5     4    1
    17     5     6    1
    18     7    12    1
    19     7     6    1
    20    12    10    1
    21     4     1    1
    22     6     8    1
    23     8    10    1
    24     8     9    1
    25     1     9    1
    26     1     3    1
    27    10    11    1
    28    11    23    1
