@<TRIPOS>MOLECULE
1cgu_GLC_A_1.pdb
 11 11 0 0 0
SMALL
GASTEIGER

@<TRIPOS>ATOM
      1  C1        60.1890   10.2440   15.2580 C.3   1301  GLC1301     0.1777
      2  C2        61.1580    9.0700   15.0480 C.3   1301  GLC1301     0.2141
      3  C3        61.0350    8.5580   13.6530 C.3   1301  GLC1301     0.2173
      4  C4        59.6040    8.1110   13.4090 C.3   1301  GLC1301     0.2142
      5  C5        58.7540    9.3940   13.3980 C.3   1301  GLC1301     0.1810
      6  C6        57.2650    9.0910   13.1000 C.3   1301  GLC1301     0.2141
      7  O2        62.5040    9.4150   15.2780 O.3   1301  GLC1301    -0.2176
      8  O3        61.8990    7.4830   13.3850 O.3   1301  GLC1301    -0.2175
      9  O4        59.5700    7.3760   12.1930 O.3   1301  GLC1301    -0.2176
     10  O5        58.8690   10.0200   14.7130 O.3   1301  GLC1301    -0.3481
     11  O6        56.5200    9.1040   14.3090 O.3   1301  GLC1301    -0.2176
@<TRIPOS>BOND
     1     9     4    1
     2     6     5    1
     3     6    11    1
     4     8     3    1
     5     5     4    1
     6     5    10    1
     7     4     3    1
     8     3     2    1
     9    10     1    1
    10     2     1    1
    11     2     7    1
