@<TRIPOS>MOLECULE
1cgv_MAL_A_1.pdb
 23 24 0 0 0
SMALL
GASTEIGER

@<TRIPOS>ATOM
      1  C1        63.5600   98.9270    9.9940 C.3   688  MAL688      0.2695
      2  C2        64.0990   97.9650   11.0310 C.3   688  MAL688      0.2406
      3  C3        65.5780   97.8250   10.7760 C.3   688  MAL688      0.2198
      4  C4        65.8130   97.2820    9.3790 C.3   688  MAL688      0.2144
      5  C5        65.2120   98.2500    8.3760 C.3   688  MAL688      0.1835
      6  C6        65.3150   97.6780    6.9980 C.3   688  MAL688      0.2142
      7  O1        64.1290  100.1930   10.2510 O.3   688  MAL688     -0.3257
      8  O2        63.9510   98.5480   12.3190 O.3   688  MAL688     -0.2149
      9  O3        66.2360   96.9920   11.7320 O.3   688  MAL688     -0.2174
     10  O4        67.1950   97.2200    9.0520 O.3   688  MAL688     -0.2176
     11  O5        63.8320   98.5100    8.6590 O.3   688  MAL688     -0.3256
     12  O6        65.3610   98.7170    6.0210 O.3   688  MAL688     -0.2176
     13  C1'       62.8280  104.1200   10.3420 C.3   688  MAL688      0.3023
     14  C2'       62.3130  103.2210   11.4220 C.3   688  MAL688      0.2433
     15  C3'       63.2130  102.0150   11.5290 C.3   688  MAL688      0.2168
     16  C4'       63.2640  101.3400   10.1720 C.3   688  MAL688      0.1804
     17  C5'       63.8120  102.2950    9.1170 C.3   688  MAL688      0.1804
     18  C6'       63.7420  101.6590    7.7520 C.3   688  MAL688      0.2141
     19  O1'       64.0350  104.6270   10.7710 O.3   688  MAL688     -0.1869
     20  O2'       62.3800  103.9050   12.6730 O.3   688  MAL688     -0.2148
     21  O3'       62.6580  101.1600   12.5180 O.3   688  MAL688     -0.2175
     22  O5'       62.9340  103.4210    9.1000 O.3   688  MAL688     -0.3237
     23  O6'       64.2120  102.6030    6.7930 O.3   688  MAL688     -0.2176
@<TRIPOS>BOND
     1    12     6    1
     2    23    18    1
     3     6     5    1
     4    18    17    1
     5     5    11    1
     6     5     4    1
     7    11     1    1
     8    10     4    1
     9    22    17    1
    10    22    13    1
    11    17    16    1
    12     4     3    1
    13     1     7    1
    14     1     2    1
    15    16     7    1
    16    16    15    1
    17    13    19    1
    18    13    14    1
    19     3     2    1
    20     3     9    1
    21     2     8    1
    22    14    15    1
    23    14    20    1
    24    15    21    1
