@<TRIPOS>MOLECULE
1cgw_MAL_A_1.pdb
 23 24 0 0 0
SMALL
GASTEIGER

@<TRIPOS>ATOM
      1  C1        63.5420   98.7640   10.0370 C.3   688  MAL688      0.2695
      2  C2        64.0870   97.7950   11.0660 C.3   688  MAL688      0.2406
      3  C3        65.5750   97.8350   10.8480 C.3   688  MAL688      0.2198
      4  C4        65.8490   97.3130    9.4480 C.3   688  MAL688      0.2144
      5  C5        65.2350   98.2440    8.4170 C.3   688  MAL688      0.1835
      6  C6        65.3740   97.6090    7.0690 C.3   688  MAL688      0.2142
      7  O1        64.2110   99.9770   10.2860 O.3   688  MAL688     -0.3257
      8  O2        63.8890   98.2560   12.4010 O.3   688  MAL688     -0.2149
      9  O3        66.2970   97.0970   11.8360 O.3   688  MAL688     -0.2174
     10  O4        67.2390   97.3150    9.1580 O.3   688  MAL688     -0.2176
     11  O5        63.8400   98.4130    8.6870 O.3   688  MAL688     -0.3256
     12  O6        65.4380   98.5620    6.0090 O.3   688  MAL688     -0.2176
     13  C1'       62.9410  103.9410   10.3150 C.3   688  MAL688      0.3023
     14  C2'       62.4860  103.0450   11.4260 C.3   688  MAL688      0.2433
     15  C3'       63.3820  101.8360   11.5280 C.3   688  MAL688      0.2168
     16  C4'       63.3930  101.1520   10.1750 C.3   688  MAL688      0.1804
     17  C5'       63.9350  102.0920    9.1020 C.3   688  MAL688      0.1804
     18  C6'       63.8370  101.4940    7.7210 C.3   688  MAL688      0.2141
     19  O1'       64.1170  104.5280   10.7230 O.3   688  MAL688     -0.1869
     20  O2'       62.6240  103.7860   12.6340 O.3   688  MAL688     -0.2148
     21  O3'       62.8290  100.9790   12.5140 O.3   688  MAL688     -0.2175
     22  O5'       63.0720  103.2320    9.0810 O.3   688  MAL688     -0.3237
     23  O6'       64.5700  102.3380    6.8270 O.3   688  MAL688     -0.2176
@<TRIPOS>BOND
     1    12     6    1
     2    23    18    1
     3     6     5    1
     4    18    17    1
     5     5    11    1
     6     5     4    1
     7    11     1    1
     8    22    17    1
     9    22    13    1
    10    17    16    1
    11    10     4    1
    12     4     3    1
    13     1     7    1
    14     1     2    1
    15    16     7    1
    16    16    15    1
    17    13    19    1
    18    13    14    1
    19     3     2    1
    20     3     9    1
    21     2     8    1
    22    14    15    1
    23    14    20    1
    24    15    21    1
