@<TRIPOS>MOLECULE
1cgx_MAL_A_1.pdb
 23 24 0 0 0
SMALL
GASTEIGER

@<TRIPOS>ATOM
      1  C1        63.2870   98.5870    9.9870 C.3   688  MAL688      0.2695
      2  C2        63.8620   97.6060   10.9860 C.3   688  MAL688      0.2406
      3  C3        65.3500   97.4440   10.8030 C.3   688  MAL688      0.2198
      4  C4        65.6040   96.8980    9.4080 C.3   688  MAL688      0.2144
      5  C5        64.9790   97.8510    8.4080 C.3   688  MAL688      0.1835
      6  C6        65.0560   97.3280    7.0090 C.3   688  MAL688      0.2142
      7  O1        63.7970   99.8840   10.2230 O.3   688  MAL688     -0.3257
      8  O2        63.6010   98.0400   12.3140 O.3   688  MAL688     -0.2149
      9  O3        65.8650   96.5130   11.7570 O.3   688  MAL688     -0.2174
     10  O4        66.9880   96.8830    9.0730 O.3   688  MAL688     -0.2176
     11  O5        63.6030   98.1530    8.6660 O.3   688  MAL688     -0.3256
     12  O6        64.8290   98.3730    6.0650 O.3   688  MAL688     -0.2176
     13  C1'       62.5850  103.8340   10.2950 C.3   688  MAL688      0.3023
     14  C2'       62.0720  102.9420   11.3840 C.3   688  MAL688      0.2433
     15  C3'       62.9370  101.7100   11.4660 C.3   688  MAL688      0.2168
     16  C4'       62.9270  101.0260   10.1130 C.3   688  MAL688      0.1804
     17  C5'       63.4790  101.9900    9.0680 C.3   688  MAL688      0.1804
     18  C6'       63.4610  101.3580    7.6980 C.3   688  MAL688      0.2141
     19  O1'       63.8570  104.2200   10.6630 O.3   688  MAL688     -0.1869
     20  O2'       62.1700  103.6010   12.6440 O.3   688  MAL688     -0.2148
     21  O3'       62.3910  100.8510   12.4540 O.3   688  MAL688     -0.2175
     22  O5'       62.5830  103.1060    9.0640 O.3   688  MAL688     -0.3237
     23  O6'       64.1700  102.1770    6.7740 O.3   688  MAL688     -0.2176
@<TRIPOS>BOND
     1    12     6    1
     2    23    18    1
     3     6     5    1
     4    18    17    1
     5     5    11    1
     6     5     4    1
     7    11     1    1
     8    22    17    1
     9    22    13    1
    10    17    16    1
    11    10     4    1
    12     4     3    1
    13     1     7    1
    14     1     2    1
    15    16     7    1
    16    16    15    1
    17    13    19    1
    18    13    14    1
    19     3     2    1
    20     3     9    1
    21     2     8    1
    22    14    15    1
    23    14    20    1
    24    15    21    1
