@<TRIPOS>MOLECULE
1cgy_MAL_A_1.pdb
 23 24 0 0 0
SMALL
GASTEIGER

@<TRIPOS>ATOM
      1  C1        63.1860   98.4610    9.8800 C.3   688  MAL688      0.2695
      2  C2        63.7380   97.4920   10.9150 C.3   688  MAL688      0.2406
      3  C3        65.2160   97.3190   10.6770 C.3   688  MAL688      0.2198
      4  C4        65.5080   96.8170    9.2690 C.3   688  MAL688      0.2144
      5  C5        64.8290   97.7380    8.2740 C.3   688  MAL688      0.1835
      6  C6        64.9280   97.2400    6.8690 C.3   688  MAL688      0.2142
      7  O1        63.7740   99.7320   10.0380 O.3   688  MAL688     -0.3257
      8  O2        63.5150   97.8890   12.2590 O.3   688  MAL688     -0.2149
      9  O3        65.8340   96.4660   11.6400 O.3   688  MAL688     -0.2174
     10  O4        66.8890   96.9510    8.9490 O.3   688  MAL688     -0.2176
     11  O5        63.4470   97.9540    8.5780 O.3   688  MAL688     -0.3256
     12  O6        64.9640   98.3390    5.9560 O.3   688  MAL688     -0.2176
     13  C1'       62.4780  103.6670   10.1900 C.3   688  MAL688      0.3023
     14  C2'       62.0050  102.7810   11.2900 C.3   688  MAL688      0.2433
     15  C3'       62.9010  101.5680   11.3740 C.3   688  MAL688      0.2168
     16  C4'       62.9140  100.8870   10.0150 C.3   688  MAL688      0.1804
     17  C5'       63.3980  101.8580    8.9440 C.3   688  MAL688      0.1804
     18  C6'       63.3350  101.2240    7.5780 C.3   688  MAL688      0.2141
     19  O1'       63.7270  104.0920   10.5970 O.3   688  MAL688     -0.1869
     20  O2'       62.0480  103.5300   12.4990 O.3   688  MAL688     -0.2148
     21  O3'       62.3350  100.7130   12.3500 O.3   688  MAL688     -0.2175
     22  O5'       62.4540  102.9320    8.9640 O.3   688  MAL688     -0.3237
     23  O6'       64.1080  102.0140    6.6700 O.3   688  MAL688     -0.2176
@<TRIPOS>BOND
     1    12     6    1
     2    23    18    1
     3     6     5    1
     4    18    17    1
     5     5    11    1
     6     5     4    1
     7    11     1    1
     8    17    22    1
     9    17    16    1
    10    10     4    1
    11    22    13    1
    12     4     3    1
    13     1     7    1
    14     1     2    1
    15    16     7    1
    16    16    15    1
    17    13    19    1
    18    13    14    1
    19     3     2    1
    20     3     9    1
    21     2     8    1
    22    14    15    1
    23    14    20    1
    24    15    21    1
