@<TRIPOS>MOLECULE
1cgz_STL_A_1.pdb
 17 18 0 0 0
SMALL
GASTEIGER

@<TRIPOS>ATOM
      1  C1        17.3950   49.9350   57.8350 C.ar  390  STL390      0.1989
      2  C2        17.3540   51.3520   57.9430 C.ar  390  STL390      0.0840
      3  C3        17.8990   52.0740   56.8410 C.ar  390  STL390      0.1989
      4  C4        19.0140   51.4750   56.1610 C.ar  390  STL390      0.0422
      5  C5        19.1370   50.0580   56.1510 C.ar  390  STL390      0.0064
      6  C6        18.3270   49.2740   57.0070 C.ar  390  STL390      0.0422
      7  C7        20.0230   49.3580   55.2510 C.2   390  STL390      0.0002
      8  C8        20.2830   49.8800   53.9720 C.2   390  STL390      0.0000
      9  C9        21.3020   49.3260   53.1270 C.ar  390  STL390      0.0002
     10  C10       22.2140   48.3540   53.6410 C.ar  390  STL390      0.0033
     11  C11       23.1590   47.7580   52.7360 C.ar  390  STL390      0.0420
     12  C12       23.3210   48.3190   51.4420 C.ar  390  STL390      0.1957
     13  C13       22.4520   49.3460   50.9250 C.ar  390  STL390      0.0420
     14  C14       21.4680   49.8510   51.8290 C.ar  390  STL390      0.0033
     15  O1        24.1740   47.7670   50.5370 O.3   390  STL390     -0.2866
     16  O2        17.8220   53.4320   56.9800 O.3   390  STL390     -0.2865
     17  O3        16.7440   49.3060   58.8260 O.3   390  STL390     -0.2865
@<TRIPOS>BOND
     1    15    12    1
     2    13    12   ar
     3    13    14   ar
     4    12    11   ar
     5    14     9   ar
     6    11    10   ar
     7     9    10   ar
     8     9     8    1
     9     8     7    2
    10     7     5    1
    11     5     4   ar
    12     5     6   ar
    13     4     3   ar
    14     3    16    1
    15     3     2   ar
    16     6     1   ar
    17     1     2   ar
    18     1    17    1
