@<TRIPOS>MOLECULE
1ch0_2GP_A_1.pdb
 24 26 0 0 0
SMALL
GASTEIGER

@<TRIPOS>ATOM
      1  P         16.1910   21.4100   15.2460 P.3   105  2GP105      0.5327
      2  O1P       16.8670   22.5590   15.8250 O.3   105  2GP105     -0.1145
      3  O2P       16.1670   20.1850   16.0490 O.3   105  2GP105     -0.1145
      4  O3P       14.8050   21.7750   14.8120 O.2   105  2GP105     -0.2224
      5  O5'       18.7750   19.8960    9.1820 O.3   105  2GP105     -0.2176
      6  C5'       18.9610   21.1570    9.7460 C.3   105  2GP105      0.2142
      7  C4'       18.2470   21.4280   11.1070 C.3   105  2GP105      0.1827
      8  O4'       16.7930   21.5940   10.9050 O.3   105  2GP105     -0.3326
      9  C3'       18.3570   20.2240   12.0990 C.3   105  2GP105      0.2132
     10  O3'       19.4970   20.2720   12.9020 O.3   105  2GP105     -0.2176
     11  C2'       17.0190   20.3020   12.9230 C.3   105  2GP105      0.2054
     12  O2'       17.2040   21.2630   13.9490 O.3   105  2GP105     -0.2657
     13  C1'       16.0120   20.7780   11.8020 C.3   105  2GP105      0.2266
     14  N9        15.4010   19.6340   11.0830 N.pl3 105  2GP105     -0.2354
     15  C8        15.4100   19.5210    9.6830 C.3   105  2GP105      0.2246
     16  N7        14.8590   18.4500    9.2130 N.2   105  2GP105     -0.2322
     17  C5        14.4490   17.7950   10.3930 C.2   105  2GP105      0.2182
     18  C6        13.7690   16.5320   10.5650 C.1   105  2GP105      0.2372
     19  O6        13.4160   15.7770    9.6910 O.2   105  2GP105     -0.2069
     20  N1        13.5150   16.1840   11.9070 N.2   105  2GP105     -0.2485
     21  C2        13.8730   16.9840   12.9680 C.1   105  2GP105      0.2531
     22  N2        13.3880   16.5780   14.1640 N.pl3 105  2GP105     -0.0226
     23  N3        14.5070   18.1460   12.8430 N.2   105  2GP105     -0.3074
     24  C4        14.7600   18.4890   11.5310 C.2   105  2GP105      0.2300
@<TRIPOS>BOND
     1     5     6    1
     2    16    15    1
     3    16    17    2
     4    15    14    1
     5    19    18    2
     6     6     7    1
     7    17    18    1
     8    17    24    1
     9    18    20    2
    10     8     7    1
    11     8    13    1
    12    14    24    1
    13    14    13    1
    14     7     9    1
    15    24    23    2
    16    13    11    1
    17    20    21    2
    18     9    10    1
    19     9    11    1
    20    23    21    2
    21    11    12    1
    22    21    22    1
    23    12     1    1
    24     4     1    2
    25     1     2    1
    26     1     3    1
