@<TRIPOS>MOLECULE
1ch1_HEM_A_1.pdb
 43 50 0 0 0
SMALL
GASTEIGER

@<TRIPOS>ATOM
      1 FE         35.2450    4.1690   10.3220 Fe    154  HEM154      0.0000
      2  CHA       37.8810    2.2670   11.4520 C.2   154  HEM154      0.0000
      3  CHB       37.1840    5.3210    7.7020 C.2   154  HEM154      0.0000
      4  CHC       32.6350    6.1870    9.2320 C.2   154  HEM154      0.0000
      5  CHD       33.3230    3.1350   12.9850 C.2   154  HEM154      0.0000
      6  NA        37.1250    3.9270    9.7600 N.ar  154  HEM154      0.0000
      7  C1A       38.0490    3.0750   10.3390 C.ar  154  HEM154      0.0000
      8  C2A       39.2730    3.1200    9.5760 C.ar  154  HEM154      0.0000
      9  C3A       39.0870    3.9800    8.5470 C.ar  154  HEM154      0.0000
     10  C4A       37.7300    4.4680    8.6390 C.ar  154  HEM154      0.0000
     11  CMA       40.0800    4.3630    7.4480 C.3   154  HEM154      0.0000
     12  CAA       40.5360    2.2790    9.8630 C.3   154  HEM154      0.0000
     13  CBA       40.6850    1.0290    8.9480 C.3   154  HEM154      0.0000
     14  CGA       39.4100    0.1820    8.9220 C.2   154  HEM154      0.0000
     15  O1A       39.1340   -0.4570    9.9600 O.co2 154  HEM154      0.0000
     16  O2A       38.7620    0.1980    7.8530 O.co2 154  HEM154      0.0000
     17  NB        34.9800    5.4850    8.8350 N.2   154  HEM154      0.0000
     18  C1B       35.9020    5.8070    7.8530 C.2   154  HEM154      0.0000
     19  C2B       35.3270    6.7790    6.9580 C.2   154  HEM154      0.0000
     20  C3B       34.0440    7.0040    7.3650 C.2   154  HEM154      0.0000
     21  C4B       33.8280    6.1840    8.5390 C.2   154  HEM154      0.0000
     22  CMB       36.0370    7.4200    5.7630 C.3   154  HEM154      0.0000
     23  CAB       32.9860    7.8270    6.8720 C.3   154  HEM154      0.0000
     24  CBB       33.2620    9.1240    6.2950 C.3   154  HEM154      0.0000
     25  NC        33.3950    4.5500   10.9440 N.ar  154  HEM154      0.0000
     26  C1C       32.5000    5.4420   10.3900 C.ar  154  HEM154      0.0000
     27  C2C       31.3280    5.5310   11.2320 C.ar  154  HEM154      0.0000
     28  C3C       31.5270    4.7100   12.3000 C.ar  154  HEM154      0.0000
     29  C4C       32.8160    4.0700   12.1020 C.ar  154  HEM154      0.0000
     30  CMC       30.1160    6.4260   10.9330 C.3   154  HEM154      0.0000
     31  CAC       30.7830    4.3830   13.4690 C.3   154  HEM154      0.0000
     32  CBC       29.7400    5.1950   14.0000 C.3   154  HEM154      0.0000
     33  ND        35.5350    2.9790   11.8690 N.2   154  HEM154      0.0000
     34  C1D       34.6170    2.6790   12.8620 C.2   154  HEM154      0.0000
     35  C2D       35.2340    1.7780   13.8110 C.2   154  HEM154      0.0000
     36  C3D       36.5220    1.6130   13.4270 C.2   154  HEM154      0.0000
     37  C4D       36.6980    2.3060   12.1730 C.2   154  HEM154      0.0000
     38  CMD       34.5260    1.1690   15.0270 C.3   154  HEM154      0.0000
     39  CAD       37.6610    0.9340   14.2180 C.3   154  HEM154      0.0000
     40  CBD       38.2450    1.8380   15.3460 C.3   154  HEM154      0.0000
     41  CGD       39.4160    1.2070   16.0910 C.2   154  HEM154      0.0000
     42  O1D       39.1320    0.5210   17.0980 O.co2 154  HEM154      0.0000
     43  O2D       40.5480    1.4310   15.6270 O.co2 154  HEM154      0.0000
@<TRIPOS>BOND
     1    22    19    1
     2    24    23    1
     3    23    20    1
     4    19    20    2
     5    19    18    1
     6    20    21    1
     7    11     9    1
     8     3    18    1
     9     3    10    2
    10    16    14   ar
    11    18    17    2
    12    21    17    1
    13    21     4    2
    14     9    10   ar
    15     9     8   ar
    16    10     6   ar
    17    17     1    1
    18    14    13    1
    19    14    15   ar
    20    13    12    1
    21     4    26    1
    22     8    12    1
    23     8     7   ar
    24     6     1    1
    25     6     7   ar
    26     1    25    1
    27     1    33    1
    28     7     2    2
    29    26    25   ar
    30    26    27   ar
    31    30    27    1
    32    25    29   ar
    33    27    28   ar
    34     2    37    1
    35    33    37    2
    36    33    34    1
    37    29    28   ar
    38    29     5    1
    39    37    36    1
    40    28    31    1
    41    34     5    2
    42    34    35    1
    43    36    35    2
    44    36    39    1
    45    31    32    1
    46    35    38    1
    47    39    40    1
    48    40    41    1
    49    43    41   ar
    50    41    42   ar
