@<TRIPOS>MOLECULE
1ch2_HEM_A_1.pdb
 43 50 0 0 0
SMALL
GASTEIGER

@<TRIPOS>ATOM
      1 FE         35.2810    4.1970   10.3010 Fe    154  HEM154      0.0000
      2  CHA       37.9490    2.3280   11.5490 C.2   154  HEM154      0.0000
      3  CHB       37.2810    5.4230    7.7870 C.2   154  HEM154      0.0000
      4  CHC       32.6650    6.2630    9.2500 C.2   154  HEM154      0.0000
      5  CHD       33.3220    3.1680   13.0170 C.2   154  HEM154      0.0000
      6  NA        37.1930    3.9530    9.8000 N.ar  154  HEM154      0.0000
      7  C1A       38.1010    3.1050   10.4050 C.ar  154  HEM154      0.0000
      8  C2A       39.3250    3.1500    9.6450 C.ar  154  HEM154      0.0000
      9  C3A       39.1450    4.0120    8.6080 C.ar  154  HEM154      0.0000
     10  C4A       37.8010    4.5320    8.7030 C.ar  154  HEM154      0.0000
     11  CMA       40.1510    4.3550    7.5110 C.3   154  HEM154      0.0000
     12  CAA       40.5740    2.2970    9.9160 C.3   154  HEM154      0.0000
     13  CBA       40.6800    1.0190    9.0200 C.3   154  HEM154      0.0000
     14  CGA       39.4280    0.1500    9.0990 C.2   154  HEM154      0.0000
     15  O1A       39.2500   -0.4790   10.1610 O.co2 154  HEM154      0.0000
     16  O2A       38.7010    0.1430    8.0830 O.co2 154  HEM154      0.0000
     17  NB        35.0520    5.6070    8.9020 N.2   154  HEM154      0.0000
     18  C1B       35.9930    5.8930    7.9390 C.2   154  HEM154      0.0000
     19  C2B       35.4050    6.8430    7.0190 C.2   154  HEM154      0.0000
     20  C3B       34.1200    7.0720    7.4150 C.2   154  HEM154      0.0000
     21  C4B       33.8850    6.2740    8.5980 C.2   154  HEM154      0.0000
     22  CMB       36.1340    7.4360    5.8100 C.3   154  HEM154      0.0000
     23  CAB       33.0480    7.8730    6.8830 C.3   154  HEM154      0.0000
     24  CBB       33.3600    9.1440    6.2600 C.3   154  HEM154      0.0000
     25  NC        33.3920    4.5580   10.9390 N.ar  154  HEM154      0.0000
     26  C1C       32.5290    5.4890   10.3940 C.ar  154  HEM154      0.0000
     27  C2C       31.3590    5.5720   11.2350 C.ar  154  HEM154      0.0000
     28  C3C       31.5380    4.7330   12.2910 C.ar  154  HEM154      0.0000
     29  C4C       32.8240    4.0880   12.1100 C.ar  154  HEM154      0.0000
     30  CMC       30.1570    6.4860   10.9310 C.3   154  HEM154      0.0000
     31  CAC       30.7550    4.3840   13.4390 C.3   154  HEM154      0.0000
     32  CBC       29.6200    5.1370   13.8670 C.3   154  HEM154      0.0000
     33  ND        35.5460    2.9560   11.8740 N.2   154  HEM154      0.0000
     34  C1D       34.6200    2.7120   12.8680 C.2   154  HEM154      0.0000
     35  C2D       35.2350    1.8240   13.8330 C.2   154  HEM154      0.0000
     36  C3D       36.5240    1.6510   13.4680 C.2   154  HEM154      0.0000
     37  C4D       36.7310    2.3430   12.2110 C.2   154  HEM154      0.0000
     38  CMD       34.5130    1.2410   15.0570 C.3   154  HEM154      0.0000
     39  CAD       37.6450    0.9780   14.2780 C.3   154  HEM154      0.0000
     40  CBD       38.2890    1.9320   15.3510 C.3   154  HEM154      0.0000
     41  CGD       39.4150    1.2470   16.1250 C.2   154  HEM154      0.0000
     42  O1D       39.0820    0.5470   17.0990 O.co2 154  HEM154      0.0000
     43  O2D       40.5600    1.4360   15.6910 O.co2 154  HEM154      0.0000
@<TRIPOS>BOND
     1    22    19    1
     2    24    23    1
     3    23    20    1
     4    19    20    2
     5    19    18    1
     6    20    21    1
     7    11     9    1
     8     3    18    1
     9     3    10    2
    10    18    17    2
    11    16    14   ar
    12    21    17    1
    13    21     4    2
    14     9    10   ar
    15     9     8   ar
    16    10     6   ar
    17    17     1    1
    18    13    14    1
    19    13    12    1
    20    14    15   ar
    21     4    26    1
    22     8    12    1
    23     8     7   ar
    24     6     1    1
    25     6     7   ar
    26     1    25    1
    27     1    33    1
    28    26    25   ar
    29    26    27   ar
    30     7     2    2
    31    30    27    1
    32    25    29   ar
    33    27    28   ar
    34     2    37    1
    35    33    37    2
    36    33    34    1
    37    29    28   ar
    38    29     5    1
    39    37    36    1
    40    28    31    1
    41    34     5    2
    42    34    35    1
    43    31    32    1
    44    36    35    2
    45    36    39    1
    46    35    38    1
    47    39    40    1
    48    40    41    1
    49    43    41   ar
    50    41    42   ar
