@<TRIPOS>MOLECULE
1ch3_HEM_A_1.pdb
 43 50 0 0 0
SMALL
GASTEIGER

@<TRIPOS>ATOM
      1 FE         35.4370    4.2040   10.2390 Fe    154  HEM154      0.0000
      2  CHA       38.0990    2.3420   11.4360 C.2   154  HEM154      0.0000
      3  CHB       37.4570    5.5290    7.7640 C.2   154  HEM154      0.0000
      4  CHC       32.8510    6.3090    9.2440 C.2   154  HEM154      0.0000
      5  CHD       33.4840    3.1230   12.9210 C.2   154  HEM154      0.0000
      6  NA        37.3920    4.0290    9.7510 N.ar  154  HEM154      0.0000
      7  C1A       38.2860    3.1460   10.3290 C.ar  154  HEM154      0.0000
      8  C2A       39.5000    3.1810    9.5410 C.ar  154  HEM154      0.0000
      9  C3A       39.3090    4.0340    8.5070 C.ar  154  HEM154      0.0000
     10  C4A       37.9780    4.5990    8.6390 C.ar  154  HEM154      0.0000
     11  CMA       40.2470    4.3650    7.3430 C.3   154  HEM154      0.0000
     12  CAA       40.7360    2.3060    9.8180 C.3   154  HEM154      0.0000
     13  CBA       40.8400    1.0140    8.9720 C.3   154  HEM154      0.0000
     14  CGA       39.6000    0.1310    9.0610 C.2   154  HEM154      0.0000
     15  O1A       39.3610   -0.4000   10.1640 O.co2 154  HEM154      0.0000
     16  O2A       38.9260    0.0190    8.0160 O.co2 154  HEM154      0.0000
     17  NB        35.2050    5.6380    8.8160 N.2   154  HEM154      0.0000
     18  C1B       36.1570    5.9850    7.8820 C.2   154  HEM154      0.0000
     19  C2B       35.5620    6.9540    6.9850 C.2   154  HEM154      0.0000
     20  C3B       34.2820    7.1750    7.3930 C.2   154  HEM154      0.0000
     21  C4B       34.0470    6.3440    8.5600 C.2   154  HEM154      0.0000
     22  CMB       36.2830    7.5790    5.7840 C.3   154  HEM154      0.0000
     23  CAB       33.2150    7.9950    6.8990 C.3   154  HEM154      0.0000
     24  CBB       33.4830    9.2890    6.3260 C.3   154  HEM154      0.0000
     25  NC        33.5470    4.6020   10.9170 N.ar  154  HEM154      0.0000
     26  C1C       32.6900    5.5420   10.3830 C.ar  154  HEM154      0.0000
     27  C2C       31.5210    5.6110   11.2350 C.ar  154  HEM154      0.0000
     28  C3C       31.7350    4.8040   12.3110 C.ar  154  HEM154      0.0000
     29  C4C       32.9940    4.1060   12.0800 C.ar  154  HEM154      0.0000
     30  CMC       30.2910    6.4680   10.9150 C.3   154  HEM154      0.0000
     31  CAC       31.0280    4.5110   13.5110 C.3   154  HEM154      0.0000
     32  CBC       29.8270    5.1710   13.9120 C.3   154  HEM154      0.0000
     33  ND        35.7300    3.0000   11.8520 N.2   154  HEM154      0.0000
     34  C1D       34.7950    2.6910   12.8210 C.2   154  HEM154      0.0000
     35  C2D       35.4310    1.8040   13.7760 C.2   154  HEM154      0.0000
     36  C3D       36.7300    1.6700   13.4120 C.2   154  HEM154      0.0000
     37  C4D       36.9150    2.3530   12.1470 C.2   154  HEM154      0.0000
     38  CMD       34.7430    1.1950   15.0000 C.3   154  HEM154      0.0000
     39  CAD       37.8720    1.0220   14.2160 C.2   154  HEM154      0.0000
     40  CBD       38.5490    1.9470   15.2580 C.2   154  HEM154      0.0000
     41  CGD       39.6880    1.3200   16.0370 C.2   154  HEM154      0.0000
     42  O1D       39.3990    0.8150   17.1460 O.co2 154  HEM154      0.0000
     43  O2D       40.8190    1.3550   15.5100 O.co2 154  HEM154      0.0000
@<TRIPOS>BOND
     1    22    19    1
     2    24    23    1
     3    23    20    1
     4    19    20    2
     5    19    18    1
     6    11     9    1
     7    20    21    1
     8     3    18    1
     9     3    10    2
    10    18    17    2
    11    16    14   ar
    12     9    10   ar
    13     9     8   ar
    14    21    17    1
    15    21     4    2
    16    10     6   ar
    17    17     1    1
    18    13    14    1
    19    13    12    1
    20    14    15   ar
    21     4    26    1
    22     8    12    1
    23     8     7   ar
    24     6     1    1
    25     6     7   ar
    26     1    25    1
    27     1    33    1
    28     7     2    2
    29    26    25   ar
    30    26    27   ar
    31    30    27    1
    32    25    29   ar
    33    27    28   ar
    34     2    37    1
    35    33    37    2
    36    33    34    1
    37    29    28   ar
    38    29     5    1
    39    37    36    1
    40    28    31    1
    41    34     5    2
    42    34    35    1
    43    36    35    2
    44    36    39    1
    45    31    32    1
    46    35    38    1
    47    39    40    2
    48    40    41    1
    49    43    41   ar
    50    41    42   ar
