@<TRIPOS>MOLECULE
1ch4_HEM_A_1.pdb
 43 50 0 0 0
SMALL
GASTEIGER

@<TRIPOS>ATOM
      1 FE         13.6090   19.7710   14.9770 Fe    147  HEM147      0.0000
      2  CHA       11.9360   22.7020   14.6100 C.2   147  HEM147      0.0000
      3  CHB       15.0730   20.9940   17.7820 C.2   147  HEM147      0.0000
      4  CHC       15.3730   16.8950   15.3290 C.2   147  HEM147      0.0000
      5  CHD       12.4840   18.7090   11.9700 C.2   147  HEM147      0.0000
      6  NA        13.5460   21.4810   15.9590 N.2   147  HEM147      0.0000
      7  C1A       12.7400   22.5760   15.7190 C.2   147  HEM147      0.0000
      8  C2A       12.9330   23.6010   16.7340 C.2   147  HEM147      0.0000
      9  C3A       13.9270   23.1650   17.5300 C.2   147  HEM147      0.0000
     10  C4A       14.2590   21.8430   17.0810 C.2   147  HEM147      0.0000
     11  CMA       14.5940   23.9260   18.6640 C.3   147  HEM147      0.0000
     12  CAA       12.0540   24.8210   17.0050 C.3   147  HEM147      0.0000
     13  CBA       12.5950   26.1830   16.5610 C.3   147  HEM147      0.0000
     14  CGA       12.3250   26.5290   15.1100 C.2   147  HEM147      0.0000
     15  O1A       13.2850   26.7170   14.3590 O.co2 147  HEM147      0.0000
     16  O2A       11.1560   26.5870   14.7480 O.co2 147  HEM147      0.0000
     17  NB        14.8800   19.0620   16.3150 N.ar  147  HEM147      0.0000
     18  C1B       15.3660   19.7020   17.4310 C.ar  147  HEM147      0.0000
     19  C2B       16.3180   18.8900   18.1440 C.ar  147  HEM147      0.0000
     20  C3B       16.4680   17.7280   17.4690 C.ar  147  HEM147      0.0000
     21  C4B       15.5340   17.8360   16.3280 C.ar  147  HEM147      0.0000
     22  CMB       17.0430   19.2800   19.4320 C.3   147  HEM147      0.0000
     23  CAB       17.4570   16.7880   17.7840 C.3   147  HEM147      0.0000
     24  CBB       17.4850   15.3750   17.4520 C.3   147  HEM147      0.0000
     25  NC        13.8280   18.1320   13.9080 N.2   147  HEM147      0.0000
     26  C1C       14.6080   17.0380   14.1920 C.2   147  HEM147      0.0000
     27  C2C       14.5980   16.0850   13.1140 C.2   147  HEM147      0.0000
     28  C3C       13.7900   16.5830   12.1490 C.2   147  HEM147      0.0000
     29  C4C       13.3110   17.8530   12.6600 C.2   147  HEM147      0.0000
     30  CMC       15.3680   14.7760   13.0970 C.3   147  HEM147      0.0000
     31  CAC       13.4310   16.0040   10.9360 C.3   147  HEM147      0.0000
     32  CBC       14.3620   15.6220    9.8860 C.3   147  HEM147      0.0000
     33  ND        12.4510   20.5400   13.6000 N.ar  147  HEM147      0.0000
     34  C1D       12.0960   19.9690   12.3870 C.ar  147  HEM147      0.0000
     35  C2D       11.2810   20.8680   11.6010 C.ar  147  HEM147      0.0000
     36  C3D       11.1430   21.9950   12.3360 C.ar  147  HEM147      0.0000
     37  C4D       11.8300   21.7740   13.5930 C.ar  147  HEM147      0.0000
     38  CMD       10.6520   20.5790   10.2430 C.3   147  HEM147      0.0000
     39  CAD       10.4600   23.2800   11.8900 C.3   147  HEM147      0.0000
     40  CBD       11.4470   24.2000   11.1800 C.3   147  HEM147      0.0000
     41  CGD       10.9170   25.5230   10.6570 C.2   147  HEM147      0.0000
     42  O1D        9.8390   25.5590   10.0640 O.co2 147  HEM147      0.0000
     43  O2D       11.6350   26.5080   10.8080 O.co2 147  HEM147      0.0000
@<TRIPOS>BOND
     1    32    31    1
     2    42    41   ar
     3    38    35    1
     4    41    43   ar
     5    41    40    1
     6    31    28    1
     7    40    39    1
     8    35    36   ar
     9    35    34   ar
    10    39    36    1
    11     5    34    2
    12     5    29    1
    13    28    29    1
    14    28    27    2
    15    36    37   ar
    16    34    33   ar
    17    29    25    2
    18    30    27    1
    19    27    26    1
    20    37    33   ar
    21    37     2    2
    22    33     1    1
    23    25    26    1
    24    25     1    1
    25    26     4    2
    26    15    14   ar
    27     2     7    1
    28    16    14   ar
    29     1     6    1
    30     1    17    1
    31    14    13    1
    32     4    21    1
    33     7     6    2
    34     7     8    1
    35     6    10    1
    36    17    21   ar
    37    17    18   ar
    38    21    20   ar
    39    13    12    1
    40     8    12    1
    41     8     9    2
    42    10     9    1
    43    10     3    2
    44    18     3    1
    45    18    19   ar
    46    24    23    1
    47    20    23    1
    48    20    19   ar
    49     9    11    1
    50    19    22    1
