@<TRIPOS>MOLECULE
1ch5_HEM_A_1.pdb
 43 50 0 0 0
SMALL
GASTEIGER

@<TRIPOS>ATOM
      1 FE         35.0590    4.3820   10.2750 Fe    154  HEM154      0.0000
      2  CHA       37.5560    2.5460   11.4120 C.2   154  HEM154      0.0000
      3  CHB       36.9740    5.4660    7.8260 C.2   154  HEM154      0.0000
      4  CHC       32.6120    6.3030    9.1990 C.2   154  HEM154      0.0000
      5  CHD       33.1880    3.3860   12.7840 C.2   154  HEM154      0.0000
      6  NA        36.9760    4.1060    9.7470 N.ar  154  HEM154      0.0000
      7  C1A       37.9140    3.2510   10.2850 C.ar  154  HEM154      0.0000
      8  C2A       39.1660    3.2410    9.5620 C.ar  154  HEM154      0.0000
      9  C3A       38.9850    4.0670    8.5010 C.ar  154  HEM154      0.0000
     10  C4A       37.6450    4.5830    8.6390 C.ar  154  HEM154      0.0000
     11  CMA       39.9480    4.4220    7.3730 C.3   154  HEM154      0.0000
     12  CAA       40.4100    2.4520    9.9410 C.3   154  HEM154      0.0000
     13  CBA       40.9350    1.3830    8.9920 C.3   154  HEM154      0.0000
     14  CGA       40.0340    0.1760    8.8040 C.2   154  HEM154      0.0000
     15  O1A       40.4530   -0.9080    9.2850 O.co2 154  HEM154      0.0000
     16  O2A       38.9640    0.3680    8.1890 O.co2 154  HEM154      0.0000
     17  NB        34.8070    5.6280    8.7170 N.2   154  HEM154      0.0000
     18  C1B       35.7270    6.0320    7.7710 C.2   154  HEM154      0.0000
     19  C2B       35.2080    7.0000    6.8320 C.2   154  HEM154      0.0000
     20  C3B       33.9340    7.2600    7.2380 C.2   154  HEM154      0.0000
     21  C4B       33.7240    6.4170    8.3980 C.2   154  HEM154      0.0000
     22  CMB       35.9500    7.5700    5.6330 C.3   154  HEM154      0.0000
     23  CAB       32.9050    8.1120    6.7530 C.3   154  HEM154      0.0000
     24  CBB       33.2420    9.4670    6.3260 C.3   154  HEM154      0.0000
     25  NC        33.1630    4.7010   10.8350 N.ar  154  HEM154      0.0000
     26  C1C       32.2900    5.6640   10.3730 C.ar  154  HEM154      0.0000
     27  C2C       31.1330    5.8580   11.2180 C.ar  154  HEM154      0.0000
     28  C3C       31.3150    5.0380   12.2880 C.ar  154  HEM154      0.0000
     29  C4C       32.5610    4.3390   12.0210 C.ar  154  HEM154      0.0000
     30  CMC       29.9800    6.7950   10.9060 C.3   154  HEM154      0.0000
     31  CAC       30.6050    4.7600   13.4890 C.3   154  HEM154      0.0000
     32  CBC       29.5580    5.6350   13.9640 C.3   154  HEM154      0.0000
     33  ND        35.3360    3.1830   11.8640 N.2   154  HEM154      0.0000
     34  C1D       34.4360    2.8110   12.8360 C.2   154  HEM154      0.0000
     35  C2D       34.9730    1.8720   13.7950 C.2   154  HEM154      0.0000
     36  C3D       36.2660    1.6780   13.4300 C.2   154  HEM154      0.0000
     37  C4D       36.4510    2.4540   12.2240 C.2   154  HEM154      0.0000
     38  CMD       34.2050    1.2790   14.9670 C.3   154  HEM154      0.0000
     39  CAD       37.3490    0.8590   14.1300 C.3   154  HEM154      0.0000
     40  CBD       37.8010    1.3090   15.5150 C.3   154  HEM154      0.0000
     41  CGD       39.2180    0.9740   15.9200 C.2   154  HEM154      0.0000
     42  O1D       39.3600    0.0940   16.8200 O.co2 154  HEM154      0.0000
     43  O2D       40.1380    1.6100   15.3610 O.co2 154  HEM154      0.0000
@<TRIPOS>BOND
     1    22    19    1
     2    24    23    1
     3    23    20    1
     4    19    20    2
     5    19    18    1
     6    20    21    1
     7    11     9    1
     8    18     3    1
     9    18    17    2
    10     3    10    2
    11    16    14   ar
    12    21    17    1
    13    21     4    2
    14     9    10   ar
    15     9     8   ar
    16    10     6   ar
    17    17     1    1
    18    14    13    1
    19    14    15   ar
    20    13    12    1
    21     4    26    1
    22     8    12    1
    23     8     7   ar
    24     6     1    1
    25     6     7   ar
    26     1    25    1
    27     1    33    1
    28     7     2    2
    29    26    25   ar
    30    26    27   ar
    31    25    29   ar
    32    30    27    1
    33    27    28   ar
    34     2    37    1
    35    33    37    2
    36    33    34    1
    37    29    28   ar
    38    29     5    1
    39    37    36    1
    40    28    31    1
    41     5    34    2
    42    34    35    1
    43    36    35    2
    44    36    39    1
    45    31    32    1
    46    35    38    1
    47    39    40    1
    48    43    41   ar
    49    40    41    1
    50    41    42   ar
