@<TRIPOS>MOLECULE
1ch7_HEM_A_1.pdb
 43 50 0 0 0
SMALL
GASTEIGER

@<TRIPOS>ATOM
      1 FE         35.0970    4.2530   10.3030 Fe    154  HEM154      0.0000
      2  CHA       37.8240    2.4910   11.5420 C.2   154  HEM154      0.0000
      3  CHB       37.0680    5.5120    7.7370 C.2   154  HEM154      0.0000
      4  CHC       32.4220    6.2210    9.2140 C.2   154  HEM154      0.0000
      5  CHD       33.1870    3.1940   13.0240 C.2   154  HEM154      0.0000
      6  NA        36.9430    3.9630    9.7060 N.ar  154  HEM154      0.0000
      7  C1A       37.8900    3.2110   10.3670 C.ar  154  HEM154      0.0000
      8  C2A       39.0930    3.2080    9.5590 C.ar  154  HEM154      0.0000
      9  C3A       38.8880    4.0450    8.5080 C.ar  154  HEM154      0.0000
     10  C4A       37.5410    4.5690    8.6230 C.ar  154  HEM154      0.0000
     11  CMA       39.8680    4.3880    7.3810 C.3   154  HEM154      0.0000
     12  CAA       40.3210    2.3320    9.8360 C.3   154  HEM154      0.0000
     13  CBA       40.5850    1.1820    8.8430 C.3   154  HEM154      0.0000
     14  CGA       39.4260    0.2100    8.6960 C.2   154  HEM154      0.0000
     15  O1A       39.1400   -0.4830    9.6920 O.co2 154  HEM154      0.0000
     16  O2A       38.8530    0.1940    7.5790 O.co2 154  HEM154      0.0000
     17  NB        34.7980    5.5130    8.8130 N.2   154  HEM154      0.0000
     18  C1B       35.7450    5.8770    7.8820 C.2   154  HEM154      0.0000
     19  C2B       35.1340    6.8160    6.9660 C.2   154  HEM154      0.0000
     20  C3B       33.8510    7.0280    7.3810 C.2   154  HEM154      0.0000
     21  C4B       33.6380    6.2110    8.5570 C.2   154  HEM154      0.0000
     22  CMB       35.8360    7.4290    5.7500 C.3   154  HEM154      0.0000
     23  CAB       32.7800    7.8310    6.8850 C.3   154  HEM154      0.0000
     24  CBB       33.0360    9.0890    6.2230 C.3   154  HEM154      0.0000
     25  NC        33.2620    4.6090   10.9510 N.ar  154  HEM154      0.0000
     26  C1C       32.3730    5.4920   10.3870 C.ar  154  HEM154      0.0000
     27  C2C       31.2210    5.5870   11.2640 C.ar  154  HEM154      0.0000
     28  C3C       31.4400    4.7830   12.3370 C.ar  154  HEM154      0.0000
     29  C4C       32.7260    4.1250   12.1200 C.ar  154  HEM154      0.0000
     30  CMC       30.0280    6.5010   10.9580 C.3   154  HEM154      0.0000
     31  CAC       30.7700    4.4850   13.5690 C.3   154  HEM154      0.0000
     32  CBC       29.4700    5.0130   13.8830 C.3   154  HEM154      0.0000
     33  ND        35.3930    3.0440   11.8380 N.2   154  HEM154      0.0000
     34  C1D       34.4850    2.7680   12.8420 C.2   154  HEM154      0.0000
     35  C2D       35.1290    1.8910   13.8010 C.2   154  HEM154      0.0000
     36  C3D       36.4270    1.7740   13.4330 C.2   154  HEM154      0.0000
     37  C4D       36.5990    2.4640   12.1720 C.2   154  HEM154      0.0000
     38  CMD       34.4480    1.2660   15.0250 C.3   154  HEM154      0.0000
     39  CAD       37.5730    1.1300   14.2280 C.3   154  HEM154      0.0000
     40  CBD       38.2080    2.0540   15.2920 C.3   154  HEM154      0.0000
     41  CGD       39.3600    1.4100   16.0490 C.2   154  HEM154      0.0000
     42  O1D       39.0520    0.8120   17.1020 O.co2 154  HEM154      0.0000
     43  O2D       40.4840    1.5420   15.5290 O.co2 154  HEM154      0.0000
@<TRIPOS>BOND
     1    22    19    1
     2    24    23    1
     3    23    20    1
     4    19    20    2
     5    19    18    1
     6    11     9    1
     7    20    21    1
     8    16    14   ar
     9     3    18    1
    10     3    10    2
    11    18    17    2
    12     9    10   ar
    13     9     8   ar
    14    21    17    1
    15    21     4    2
    16    10     6   ar
    17    14    13    1
    18    14    15   ar
    19    17     1    1
    20    13    12    1
    21     4    26    1
    22     8    12    1
    23     8     7   ar
    24     6     1    1
    25     6     7   ar
    26     1    25    1
    27     1    33    1
    28     7     2    2
    29    26    25   ar
    30    26    27   ar
    31    25    29   ar
    32    30    27    1
    33    27    28   ar
    34     2    37    1
    35    33    37    2
    36    33    34    1
    37    29    28   ar
    38    29     5    1
    39    37    36    1
    40    28    31    1
    41    34     5    2
    42    34    35    1
    43    36    35    2
    44    36    39    1
    45    31    32    1
    46    35    38    1
    47    39    40    1
    48    40    41    1
    49    43    41   ar
    50    41    42   ar
