@<TRIPOS>MOLECULE
1ch8_IMP_A_1.pdb
 23 25 0 0 0
SMALL
GASTEIGER

@<TRIPOS>ATOM
      1  P        -16.4320   54.2860   50.0570 P.3   440  IMP440      0.5327
      2  O1P      -17.8210   54.5320   50.5790 O.3   440  IMP440     -0.1145
      3  O2P      -16.2660   52.8650   49.7030 O.3   440  IMP440     -0.1145
      4  O3P      -16.1410   55.3150   48.8420 O.2   440  IMP440     -0.2224
      5  O5'      -15.2730   54.7010   51.1000 O.3   440  IMP440     -0.2675
      6  C5'      -15.2770   54.4960   52.5190 C.3   440  IMP440      0.1860
      7  C4'      -13.8910   54.4610   53.0400 C.3   440  IMP440      0.1823
      8  O4'      -13.1010   53.3900   52.5190 O.3   440  IMP440     -0.3135
      9  C3'      -13.0570   55.6570   52.8380 C.3   440  IMP440      0.2184
     10  O3'      -12.0810   55.7340   53.9360 O.3   440  IMP440     -0.2174
     11  C2'      -12.2130   55.2510   51.6360 C.3   440  IMP440      0.2570
     12  O2'      -11.1200   56.0970   51.5710 O.3   440  IMP440     -0.2130
     13  C1'      -11.8120   53.8340   51.9560 C.3   440  IMP440      0.3186
     14  N9       -11.6320   53.1110   50.7760 N.pl3 440  IMP440     -0.1435
     15  C8       -12.6250   52.7830   49.8900 C.3   440  IMP440      0.3382
     16  N7       -12.3290   52.1440   48.8400 N.2   440  IMP440     -0.2054
     17  C5       -10.9790   51.9970   48.9940 C.2   440  IMP440      0.2446
     18  C6       -10.1030   51.3400   48.1010 C.1   440  IMP440      0.1792
     19  O6       -10.4330   50.6950   47.1070 O.2   440  IMP440     -0.2203
     20  N1        -8.8100   51.4050   48.5890 N.2   440  IMP440     -0.1458
     21  C2        -8.4590   52.0050   49.7890 C.3   440  IMP440      0.4017
     22  N3        -9.2940   52.6130   50.6290 N.2   440  IMP440     -0.0334
     23  C4       -10.5280   52.5750   50.1670 C.2   440  IMP440      0.3528
@<TRIPOS>BOND
     1    19    18    2
     2    18    20    2
     3    18    17    1
     4    20    21    1
     5    16    17    2
     6    16    15    1
     7     4     1    2
     8    17    23    1
     9     3     1    1
    10    21    22    1
    11    15    14    1
    12     1     2    1
    13     1     5    1
    14    23    22    2
    15    23    14    1
    16    14    13    1
    17     5     6    1
    18    12    11    1
    19    11    13    1
    20    11     9    1
    21    13     8    1
    22     8     7    1
    23     6     7    1
    24     9     7    1
    25     9    10    1
