@<TRIPOS>MOLECULE
1ch8_GPX_A_1.pdb
 31 34 0 0 0
SMALL
GASTEIGER

@<TRIPOS>ATOM
      1  P1         2.7580   51.6600   41.4730 P.3   432  GPX432      0.2142
      2  N9         3.3950   48.1780   44.0340 N.pl3 432  GPX432     -0.2354
      3  C8         2.7360   46.9970   44.1830 C.3   432  GPX432      0.2246
      4  N7         3.4310   46.0090   44.6700 N.2   432  GPX432     -0.2322
      5  C5         4.6920   46.5860   44.8750 C.2   432  GPX432      0.2182
      6  C6         5.8440   46.0260   45.3740 C.1   432  GPX432      0.2372
      7  O6         6.0370   44.8670   45.7490 O.2   432  GPX432     -0.2069
      8  N1         6.8910   46.9250   45.4190 N.2   432  GPX432     -0.2485
      9  C2         6.7790   48.2310   45.0130 C.1   432  GPX432      0.2531
     10  N2         7.8560   49.0080   45.0860 N.pl3 432  GPX432     -0.0226
     11  N3         5.6780   48.7650   44.5450 N.2   432  GPX432     -0.3074
     12  C4         4.6790   47.8950   44.4950 C.2   432  GPX432      0.2300
     13  O11        2.5150   52.1960   40.1150 O.2   432  GPX432     -0.5172
     14  O21        3.9440   52.3320   42.0570 O.3   432  GPX432     -0.4373
     15  O3'        1.4720   51.8250   42.4470 O.3   432  GPX432     -0.3113
     16  PA        -2.5070   49.6610   44.9930 P.3   432  GPX432      0.2231
     17  O1A       -3.6510   50.5980   44.9040 O.2   432  GPX432     -0.5169
     18  O2A       -1.4830   50.2210   45.8970 O.3   432  GPX432     -0.4370
     19  O3A       -2.9090   48.1890   45.5270 O.3   432  GPX432     -0.2261
     20  O5'       -1.7740   49.3180   43.5920 O.3   432  GPX432     -0.3111
     21  PB        -4.3100   47.4390   45.3140 P.3   432  GPX432      0.5373
     22  O1B       -4.4220   46.6130   44.0790 O.2   432  GPX432     -0.2221
     23  O2B       -5.3640   48.4750   45.3160 O.3   432  GPX432     -0.1143
     24  O3B       -4.4690   46.5570   46.4900 O.3   432  GPX432     -0.1143
     25  C5'       -0.3920   48.8960   43.9080 C.3   432  GPX432      0.1812
     26  C4'        0.6590   50.0600   43.9940 C.3   432  GPX432      0.1770
     27  O4'        1.8580   49.6630   44.6220 O.3   432  GPX432     -0.3328
     28  C1'        2.8840   49.4110   43.6810 C.3   432  GPX432      0.2263
     29  C2'        2.1790   49.4850   42.3410 C.3   432  GPX432      0.1981
     30  O2'        3.0060   50.0750   41.3250 O.3   432  GPX432     -0.3096
     31  C3'        1.0570   50.4820   42.6240 C.3   432  GPX432      0.1829
@<TRIPOS>BOND
     1    13     1    2
     2    30     1    1
     3    30    29    1
     4     1    14    1
     5     1    15    1
     6    29    31    1
     7    29    28    1
     8    15    31    1
     9    31    26    1
    10    20    25    1
    11    20    16    1
    12    28     2    1
    13    28    27    1
    14    25    26    1
    15    26    27    1
    16     2     3    1
    17     2    12    1
    18    22    21    2
    19     3     4    1
    20    12    11    2
    21    12     5    1
    22    11     9    2
    23     4     5    2
    24     5     6    1
    25    17    16    2
    26    16    19    1
    27    16    18    1
    28     9    10    1
    29     9     8    2
    30    21    23    1
    31    21    19    1
    32    21    24    1
    33     6     8    2
    34     6     7    2
