@<TRIPOS>MOLECULE
1ch9_HEM_A_1.pdb
 43 50 0 0 0
SMALL
GASTEIGER

@<TRIPOS>ATOM
      1 FE         35.1670    4.2880   10.2750 Fe    154  HEM154      0.0000
      2  CHA       37.7300    2.3740   11.3910 C.2   154  HEM154      0.0000
      3  CHB       37.0750    5.3920    7.7450 C.2   154  HEM154      0.0000
      4  CHC       32.6120    6.2520    9.2050 C.2   154  HEM154      0.0000
      5  CHD       33.2550    3.2310   12.8640 C.2   154  HEM154      0.0000
      6  NA        37.0190    4.0080    9.7380 N.ar  154  HEM154      0.0000
      7  C1A       37.9660    3.1500   10.2740 C.ar  154  HEM154      0.0000
      8  C2A       39.2070    3.1810    9.5360 C.ar  154  HEM154      0.0000
      9  C3A       39.0030    4.0000    8.4750 C.ar  154  HEM154      0.0000
     10  C4A       37.6540    4.5080    8.6190 C.ar  154  HEM154      0.0000
     11  CMA       39.9450    4.3940    7.3390 C.3   154  HEM154      0.0000
     12  CAA       40.4970    2.4490    9.9080 C.3   154  HEM154      0.0000
     13  CBA       40.7700    1.1000    9.2370 C.3   154  HEM154      0.0000
     14  CGA       39.5240    0.2700    8.9700 C.2   154  HEM154      0.0000
     15  O1A       39.1410   -0.4790    9.8960 O.co2 154  HEM154      0.0000
     16  O2A       38.9890    0.4220    7.8490 O.co2 154  HEM154      0.0000
     17  NB        34.8950    5.5370    8.8010 N.2   154  HEM154      0.0000
     18  C1B       35.8050    5.9120    7.8340 C.2   154  HEM154      0.0000
     19  C2B       35.2680    6.8920    6.9190 C.2   154  HEM154      0.0000
     20  C3B       33.9760    7.0920    7.2910 C.2   154  HEM154      0.0000
     21  C4B       33.7660    6.2570    8.4530 C.2   154  HEM154      0.0000
     22  CMB       36.0370    7.5440    5.7680 C.3   154  HEM154      0.0000
     23  CAB       32.9230    7.9060    6.7910 C.3   154  HEM154      0.0000
     24  CBB       33.1950    9.1690    6.1550 C.3   154  HEM154      0.0000
     25  NC        33.3120    4.5980   10.8580 N.ar  154  HEM154      0.0000
     26  C1C       32.4120    5.5160   10.3580 C.ar  154  HEM154      0.0000
     27  C2C       31.2090    5.6010   11.1580 C.ar  154  HEM154      0.0000
     28  C3C       31.4190    4.8110   12.2460 C.ar  154  HEM154      0.0000
     29  C4C       32.7020    4.1640   12.0150 C.ar  154  HEM154      0.0000
     30  CMC       29.9840    6.4210   10.7790 C.3   154  HEM154      0.0000
     31  CAC       30.6890    4.5080   13.4290 C.3   154  HEM154      0.0000
     32  CBC       29.5420    5.2690   13.8430 C.3   154  HEM154      0.0000
     33  ND        35.4390    3.0880   11.8040 N.2   154  HEM154      0.0000
     34  C1D       34.5450    2.7480   12.8020 C.2   154  HEM154      0.0000
     35  C2D       35.1190    1.8290   13.7580 C.2   154  HEM154      0.0000
     36  C3D       36.3890    1.6150   13.3550 C.2   154  HEM154      0.0000
     37  C4D       36.5660    2.3600   12.1310 C.2   154  HEM154      0.0000
     38  CMD       34.4120    1.2660   14.9920 C.3   154  HEM154      0.0000
     39  CAD       37.5140    0.8810   14.1160 C.3   154  HEM154      0.0000
     40  CBD       38.1880    1.7720   15.2060 C.3   154  HEM154      0.0000
     41  CGD       39.2820    1.0730   15.9860 C.2   154  HEM154      0.0000
     42  O1D       39.0340    0.8130   17.1840 O.co2 154  HEM154      0.0000
     43  O2D       40.3410    0.8240   15.3650 O.co2 154  HEM154      0.0000
@<TRIPOS>BOND
     1    22    19    1
     2    24    23    1
     3    23    20    1
     4    19    20    2
     5    19    18    1
     6    20    21    1
     7    11     9    1
     8     3    18    1
     9     3    10    2
    10    18    17    2
    11    16    14   ar
    12    21    17    1
    13    21     4    2
    14     9    10   ar
    15     9     8   ar
    16    10     6   ar
    17    17     1    1
    18    14    13    1
    19    14    15   ar
    20     4    26    1
    21    13    12    1
    22     8    12    1
    23     8     7   ar
    24     6     7   ar
    25     6     1    1
    26     7     2    2
    27     1    25    1
    28     1    33    1
    29    26    25   ar
    30    26    27   ar
    31    30    27    1
    32    25    29   ar
    33    27    28   ar
    34     2    37    1
    35    33    37    2
    36    33    34    1
    37    29    28   ar
    38    29     5    1
    39    37    36    1
    40    28    31    1
    41    34     5    2
    42    34    35    1
    43    36    35    2
    44    36    39    1
    45    31    32    1
    46    35    38    1
    47    39    40    1
    48    40    41    1
    49    43    41   ar
    50    41    42   ar
