@<TRIPOS>MOLECULE
1chh_HEM_A_1.pdb
 43 50 0 0 0
SMALL
GASTEIGER

@<TRIPOS>ATOM
      1 FE          2.8720   20.9140   13.0650 Fe    104  HEM104      0.0000
      2  CHA        5.1280   18.5780   14.1020 C.2   104  HEM104      0.0000
      3  CHB        3.9470   20.7040    9.9200 C.2   104  HEM104      0.0000
      4  CHC        0.1820   22.8320   12.0530 C.2   104  HEM104      0.0000
      5  CHD        2.2100   21.7350   16.2820 C.2   104  HEM104      0.0000
      6  NA         4.2840   19.8490   12.1730 N.ar  104  HEM104      0.0000
      7  C1A        5.1270   18.9030   12.7380 C.ar  104  HEM104      0.0000
      8  C2A        5.8720   18.2560   11.7250 C.ar  104  HEM104      0.0000
      9  C3A        5.5840   18.8660   10.5410 C.ar  104  HEM104      0.0000
     10  C4A        4.5620   19.8590   10.7730 C.ar  104  HEM104      0.0000
     11  CMA        6.1510   18.5040    9.1490 C.3   104  HEM104      0.0000
     12  CAA        6.9220   17.1560   11.9800 C.3   104  HEM104      0.0000
     13  CBA        8.3270   17.8630   12.1150 C.3   104  HEM104      0.0000
     14  CGA        9.4900   16.9720   12.3610 C.2   104  HEM104      0.0000
     15  O1A       10.5800   17.5590   12.4840 O.co2 104  HEM104      0.0000
     16  O2A        9.3740   15.7340   12.3780 O.co2 104  HEM104      0.0000
     17  NB         2.1540   21.6070   11.3060 N.2   104  HEM104      0.0000
     18  C1B        2.8670   21.5210   10.1280 C.2   104  HEM104      0.0000
     19  C2B        2.0940   22.2620    9.1160 C.2   104  HEM104      0.0000
     20  C3B        1.0620   22.8500    9.7080 C.2   104  HEM104      0.0000
     21  C4B        1.1080   22.4480   11.1260 C.2   104  HEM104      0.0000
     22  CMB        2.5630   22.3520    7.6350 C.3   104  HEM104      0.0000
     23  CAB       -0.0390   23.7330    9.1140 C.3   104  HEM104      0.0000
     24  CBB       -0.9990   23.0430    8.1230 C.3   104  HEM104      0.0000
     25  NC         1.4920   22.0700   13.9930 N.ar  104  HEM104      0.0000
     26  C1C        0.4730   22.7820   13.4100 C.ar  104  HEM104      0.0000
     27  C2C       -0.2810   23.5050   14.4000 C.ar  104  HEM104      0.0000
     28  C3C        0.2900   23.2270   15.6060 C.ar  104  HEM104      0.0000
     29  C4C        1.3930   22.3350   15.3450 C.ar  104  HEM104      0.0000
     30  CMC       -1.4750   24.4400   14.0850 C.3   104  HEM104      0.0000
     31  CAC       -0.1190   23.8250   16.9770 C.3   104  HEM104      0.0000
     32  CBC       -1.5640   23.8410   17.3820 C.3   104  HEM104      0.0000
     33  ND         3.5510   20.2810   14.8920 N.2   104  HEM104      0.0000
     34  C1D        3.1160   20.7250   16.0780 C.2   104  HEM104      0.0000
     35  C2D        3.7410   19.9160   17.1210 C.2   104  HEM104      0.0000
     36  C3D        4.5630   19.0510   16.5160 C.2   104  HEM104      0.0000
     37  C4D        4.4150   19.2270   15.0840 C.2   104  HEM104      0.0000
     38  CMD        3.4600   20.0390   18.6350 C.3   104  HEM104      0.0000
     39  CAD        5.4210   17.9550   17.1550 C.3   104  HEM104      0.0000
     40  CBD        4.5970   16.7170   17.5140 C.3   104  HEM104      0.0000
     41  CGD        5.2910   15.6680   18.2700 C.2   104  HEM104      0.0000
     42  O1D        6.4510   15.9150   18.7300 O.co2 104  HEM104      0.0000
     43  O2D        4.6820   14.5560   18.3700 O.co2 104  HEM104      0.0000
@<TRIPOS>BOND
     1    22    19    1
     2    24    23    1
     3    23    20    1
     4    19    20    2
     5    19    18    1
     6    11     9    1
     7    20    21    1
     8     3    18    1
     9     3    10    2
    10    18    17    2
    11     9    10   ar
    12     9     8   ar
    13    10     6   ar
    14    21    17    1
    15    21     4    2
    16    17     1    1
    17     8    12    1
    18     8     7   ar
    19    12    13    1
    20     4    26    1
    21    13    14    1
    22     6     7   ar
    23     6     1    1
    24    14    16   ar
    25    14    15   ar
    26     7     2    2
    27     1    25    1
    28     1    33    1
    29    26    25   ar
    30    26    27   ar
    31    25    29   ar
    32    30    27    1
    33     2    37    1
    34    27    28   ar
    35    33    37    2
    36    33    34    1
    37    37    36    1
    38    29    28   ar
    39    29     5    1
    40    28    31    1
    41    34     5    2
    42    34    35    1
    43    36    35    2
    44    36    39    1
    45    31    32    1
    46    35    38    1
    47    39    40    1
    48    40    41    1
    49    41    43   ar
    50    41    42   ar
