@<TRIPOS>MOLECULE
1chi_HEM_A_1.pdb
 43 50 0 0 0
SMALL
GASTEIGER

@<TRIPOS>ATOM
      1 FE          2.7660   21.0110   13.1120 Fe    104  HEM104      0.0000
      2  CHA        5.1250   18.7260   14.1730 C.2   104  HEM104      0.0000
      3  CHB        3.9090   20.7860    9.9440 C.2   104  HEM104      0.0000
      4  CHC        0.0660   22.8220   12.0540 C.2   104  HEM104      0.0000
      5  CHD        2.0130   21.7680   16.3150 C.2   104  HEM104      0.0000
      6  NA         4.2820   20.0210   12.2390 N.ar  104  HEM104      0.0000
      7  C1A        5.0300   19.0170   12.8210 C.ar  104  HEM104      0.0000
      8  C2A        5.7590   18.3230   11.7660 C.ar  104  HEM104      0.0000
      9  C3A        5.4780   18.9040   10.5890 C.ar  104  HEM104      0.0000
     10  C4A        4.5160   19.9560   10.8570 C.ar  104  HEM104      0.0000
     11  CMA        5.9300   18.5050    9.1890 C.3   104  HEM104      0.0000
     12  CAA        6.7540   17.1980   12.1060 C.3   104  HEM104      0.0000
     13  CBA        8.0580   17.8220   12.7290 C.3   104  HEM104      0.0000
     14  CGA        9.3030   16.9910   12.4390 C.2   104  HEM104      0.0000
     15  O1A       10.3710   17.7070   12.3050 O.co2 104  HEM104      0.0000
     16  O2A        9.2480   15.7370   12.4060 O.co2 104  HEM104      0.0000
     17  NB         2.0580   21.5790   11.3320 N.2   104  HEM104      0.0000
     18  C1B        2.7830   21.5360   10.1240 C.2   104  HEM104      0.0000
     19  C2B        2.0350   22.3140    9.1260 C.2   104  HEM104      0.0000
     20  C3B        1.0020   22.8560    9.7380 C.2   104  HEM104      0.0000
     21  C4B        0.9940   22.4090   11.1230 C.2   104  HEM104      0.0000
     22  CMB        2.5330   22.4360    7.6720 C.3   104  HEM104      0.0000
     23  CAB       -0.1560   23.7200    9.1680 C.3   104  HEM104      0.0000
     24  CBB       -1.0150   22.8110    8.2340 C.3   104  HEM104      0.0000
     25  NC         1.3210   22.0870   14.0250 N.ar  104  HEM104      0.0000
     26  C1C        0.3250   22.8300   13.3980 C.ar  104  HEM104      0.0000
     27  C2C       -0.4020   23.6050   14.3900 C.ar  104  HEM104      0.0000
     28  C3C        0.1160   23.3030   15.5710 C.ar  104  HEM104      0.0000
     29  C4C        1.2350   22.3940   15.3500 C.ar  104  HEM104      0.0000
     30  CMC       -1.5680   24.5550   14.0150 C.3   104  HEM104      0.0000
     31  CAC       -0.2440   23.8680   16.9730 C.3   104  HEM104      0.0000
     32  CBC       -1.7450   24.0340   17.2710 C.3   104  HEM104      0.0000
     33  ND         3.4430   20.3790   14.8980 N.2   104  HEM104      0.0000
     34  C1D        2.9490   20.7790   16.1240 C.2   104  HEM104      0.0000
     35  C2D        3.6010   19.9930   17.1770 C.2   104  HEM104      0.0000
     36  C3D        4.4820   19.1880   16.5780 C.2   104  HEM104      0.0000
     37  C4D        4.3440   19.3700   15.1260 C.2   104  HEM104      0.0000
     38  CMD        3.3140   20.1270   18.7000 C.3   104  HEM104      0.0000
     39  CAD        5.3880   18.1250   17.2170 C.3   104  HEM104      0.0000
     40  CBD        4.8460   16.6690   17.1710 C.3   104  HEM104      0.0000
     41  CGD        5.3720   15.7520   18.2580 C.2   104  HEM104      0.0000
     42  O1D        6.4280   16.0510   18.8800 O.co2 104  HEM104      0.0000
     43  O2D        4.6550   14.7360   18.4180 O.co2 104  HEM104      0.0000
@<TRIPOS>BOND
     1    22    19    1
     2    24    23    1
     3    19    20    2
     4    19    18    1
     5    23    20    1
     6    11     9    1
     7    20    21    1
     8     3    18    1
     9     3    10    2
    10    18    17    2
    11     9    10   ar
    12     9     8   ar
    13    10     6   ar
    14    21    17    1
    15    21     4    2
    16    17     1    1
    17     8    12    1
    18     8     7   ar
    19     4    26    1
    20    12    13    1
    21     6     7   ar
    22     6     1    1
    23    15    14   ar
    24    16    14   ar
    25    14    13    1
    26     7     2    2
    27     1    25    1
    28     1    33    1
    29    26    25   ar
    30    26    27   ar
    31    30    27    1
    32    25    29   ar
    33     2    37    1
    34    27    28   ar
    35    33    37    2
    36    33    34    1
    37    37    36    1
    38    29    28   ar
    39    29     5    1
    40    28    31    1
    41    34     5    2
    42    34    35    1
    43    36    35    2
    44    36    39    1
    45    31    32    1
    46    40    39    1
    47    40    41    1
    48    35    38    1
    49    41    43   ar
    50    41    42   ar
