@<TRIPOS>MOLECULE
1chj_HEM_A_1.pdb
 43 50 0 0 0
SMALL
GASTEIGER

@<TRIPOS>ATOM
      1 FE          2.6060   20.9750   13.1940 Fe    104  HEM104      0.0000
      2  CHA        4.9810   18.6880   14.3550 C.2   104  HEM104      0.0000
      3  CHB        3.8540   20.7070   10.0980 C.2   104  HEM104      0.0000
      4  CHC        0.0380   22.8470   12.0730 C.2   104  HEM104      0.0000
      5  CHD        1.9170   21.8040   16.4270 C.2   104  HEM104      0.0000
      6  NA         4.1230   19.9540   12.4240 N.ar  104  HEM104      0.0000
      7  C1A        4.9550   19.0020   13.0260 C.ar  104  HEM104      0.0000
      8  C2A        5.7560   18.3410   11.9690 C.ar  104  HEM104      0.0000
      9  C3A        5.4290   18.8860   10.7930 C.ar  104  HEM104      0.0000
     10  C4A        4.4320   19.8920   11.0280 C.ar  104  HEM104      0.0000
     11  CMA        5.9930   18.5330    9.4010 C.3   104  HEM104      0.0000
     12  CAA        6.7920   17.2510   12.2700 C.3   104  HEM104      0.0000
     13  CBA        8.1120   17.8850   12.7170 C.3   104  HEM104      0.0000
     14  CGA        9.3700   17.1040   12.6840 C.2   104  HEM104      0.0000
     15  O1A       10.4540   17.7700   12.7240 O.co2 104  HEM104      0.0000
     16  O2A        9.3090   15.8470   12.6680 O.co2 104  HEM104      0.0000
     17  NB         2.0160   21.6650   11.4220 N.2   104  HEM104      0.0000
     18  C1B        2.7200   21.4670   10.2370 C.2   104  HEM104      0.0000
     19  C2B        2.0280   22.1960    9.1640 C.2   104  HEM104      0.0000
     20  C3B        0.9610   22.7720    9.6780 C.2   104  HEM104      0.0000
     21  C4B        0.9480   22.4320   11.1450 C.2   104  HEM104      0.0000
     22  CMB        2.6140   22.1430    7.7220 C.3   104  HEM104      0.0000
     23  CAB       -0.1320   23.6130    9.0680 C.3   104  HEM104      0.0000
     24  CBB       -1.2560   23.0040    8.2170 C.3   104  HEM104      0.0000
     25  NC         1.2330   22.0850   14.0980 N.ar  104  HEM104      0.0000
     26  C1C        0.2390   22.8380   13.4430 C.ar  104  HEM104      0.0000
     27  C2C       -0.4700   23.6270   14.4300 C.ar  104  HEM104      0.0000
     28  C3C        0.0220   23.2960   15.6170 C.ar  104  HEM104      0.0000
     29  C4C        1.1110   22.3840   15.4240 C.ar  104  HEM104      0.0000
     30  CMC       -1.6720   24.5420   14.0680 C.3   104  HEM104      0.0000
     31  CAC       -0.4100   23.8640   17.0000 C.3   104  HEM104      0.0000
     32  CBC       -1.9570   23.9660   17.1780 C.3   104  HEM104      0.0000
     33  ND         3.3350   20.3780   15.0730 N.2   104  HEM104      0.0000
     34  C1D        2.8560   20.8220   16.2680 C.2   104  HEM104      0.0000
     35  C2D        3.4630   20.0130   17.3410 C.2   104  HEM104      0.0000
     36  C3D        4.3020   19.1610   16.7570 C.2   104  HEM104      0.0000
     37  C4D        4.2130   19.3720   15.3000 C.2   104  HEM104      0.0000
     38  CMD        3.1230   20.1710   18.8360 C.3   104  HEM104      0.0000
     39  CAD        5.1710   18.0500   17.3760 C.3   104  HEM104      0.0000
     40  CBD        4.3550   16.7590   17.7070 C.3   104  HEM104      0.0000
     41  CGD        5.0710   15.7540   18.5620 C.2   104  HEM104      0.0000
     42  O1D        6.1110   16.0710   19.1640 O.co2 104  HEM104      0.0000
     43  O2D        4.5860   14.5880   18.6090 O.co2 104  HEM104      0.0000
@<TRIPOS>BOND
     1    22    19    1
     2    24    23    1
     3    23    20    1
     4    19    20    2
     5    19    18    1
     6    11     9    1
     7    20    21    1
     8     3    18    1
     9     3    10    2
    10    18    17    2
    11     9    10   ar
    12     9     8   ar
    13    10     6   ar
    14    21    17    1
    15    21     4    2
    16    17     1    1
    17     8    12    1
    18     8     7   ar
    19     4    26    1
    20    12    13    1
    21     6     7   ar
    22     6     1    1
    23    16    14   ar
    24    14    13    1
    25    14    15   ar
    26     7     2    2
    27     1    25    1
    28     1    33    1
    29    26    25   ar
    30    26    27   ar
    31    30    27    1
    32    25    29   ar
    33     2    37    1
    34    27    28   ar
    35    33    37    2
    36    33    34    1
    37    37    36    1
    38    29    28   ar
    39    29     5    1
    40    28    31    1
    41    34     5    2
    42    34    35    1
    43    36    35    2
    44    36    39    1
    45    31    32    1
    46    35    38    1
    47    39    40    1
    48    40    41    1
    49    41    43   ar
    50    41    42   ar
