@<TRIPOS>MOLECULE
1ci0_FMN_A_1.pdb
 31 33 0 0 0
SMALL
GASTEIGER

@<TRIPOS>ATOM
      1  N1       -26.0910    0.0630  -19.7240 N.2   301  FMN301     -0.2890
      2  C2       -24.7290    0.1040  -19.6870 C.1   301  FMN301      0.3669
      3  O2       -24.0720    0.9050  -20.2760 O.2   301  FMN301     -0.1744
      4  N3       -24.0310   -0.8560  -18.8970 N.2   301  FMN301     -0.2300
      5  C4       -24.6090   -1.8310  -18.1590 C.1   301  FMN301      0.2513
      6  O4       -23.9100   -2.6150  -17.5100 O.2   301  FMN301     -0.2057
      7  C4A      -26.0780   -1.8780  -18.1920 C.2   301  FMN301      0.2700
      8  N5       -26.7530   -2.7860  -17.5020 N.2   301  FMN301     -0.3878
      9  C5A      -28.1270   -2.7850  -17.5580 C.2   301  FMN301      0.1320
     10  C6       -28.8810   -3.7670  -16.7940 C.2   301  FMN301      0.0250
     11  C7       -30.2440   -3.8340  -16.7820 C.2   301  FMN301     -0.0238
     12  C7M      -31.0080   -4.8710  -15.9560 C.3   301  FMN301      0.0308
     13  C8       -31.0180   -2.8800  -17.5800 C.2   301  FMN301     -0.0280
     14  C8M      -32.5180   -2.9070  -17.5980 C.3   301  FMN301      0.0304
     15  C9       -30.3200   -1.9440  -18.3230 C.2   301  FMN301     -0.0041
     16  C9A      -28.9080   -1.8490  -18.3430 C.3   301  FMN301      0.1497
     17  N10      -28.1500   -0.9000  -19.0820 N.pl3 301  FMN301     -0.2691
     18  C10      -26.7600   -0.8580  -19.0340 C.2   301  FMN301      0.2416
     19  C1'      -28.7990    0.1110  -19.9420 C.3   301  FMN301      0.1294
     20  C2'      -29.3290    1.3410  -19.2380 C.3   301  FMN301      0.2044
     21  O2'      -30.3690    1.0490  -18.3110 O.3   301  FMN301     -0.2185
     22  C3'      -29.9280    2.3160  -20.2590 C.3   301  FMN301      0.2164
     23  O3'      -29.7300    1.8420  -21.6410 O.3   301  FMN301     -0.2175
     24  C4'      -29.3820    3.7150  -20.1320 C.3   301  FMN301      0.2147
     25  O4'      -30.0300    4.5180  -21.1300 O.3   301  FMN301     -0.2176
     26  C5'      -27.8940    3.8790  -20.3600 C.3   301  FMN301      0.1892
     27  O5'      -27.4410    5.2710  -20.1860 O.3   301  FMN301     -0.2674
     28  P        -28.2660    6.6670  -20.3260 P.3   301  FMN301      0.5327
     29  O1P      -29.3530    6.7590  -19.2830 O.3   301  FMN301     -0.1145
     30  O2P      -28.7970    6.7800  -21.7170 O.2   301  FMN301     -0.2224
     31  O3P      -27.1620    7.7230  -20.0030 O.3   301  FMN301     -0.1145
@<TRIPOS>BOND
     1    30    28    2
     2    23    22    1
     3    25    24    1
     4    26    27    1
     5    26    24    1
     6    28    27    1
     7    28    31    1
     8    28    29    1
     9     3     2    2
    10    22    24    1
    11    22    20    1
    12    19    20    1
    13    19    17    1
    14     1     2    2
    15     1    18    2
    16     2     4    2
    17    20    21    1
    18    17    18    1
    19    17    16    1
    20    18     7    1
    21     4     5    2
    22    16    15    1
    23    16     9    1
    24    15    13    2
    25     7     5    1
    26     7     8    2
    27     5     6    2
    28    14    13    1
    29    13    11    1
    30     9     8    2
    31     9    10    1
    32    10    11    2
    33    11    12    1
