@<TRIPOS>MOLECULE
1ci3_HEM_M_1.pdb
 43 50 0 0 0
SMALL
GASTEIGER

@<TRIPOS>ATOM
      1  CHA       35.9800   65.7340   55.1840 C.2   254  HEM254      0.0000
      2  CHB       40.2860   63.9590   56.5160 C.2   254  HEM254      0.0000
      3  CHC       42.3960   67.7530   54.4260 C.2   254  HEM254      0.0000
      4  CHD       38.1220   69.8380   54.0070 C.2   254  HEM254      0.0000
      5  C1A       37.0060   64.8420   55.5800 C.2   254  HEM254      0.0000
      6  C2A       36.7620   63.4970   56.1040 C.2   254  HEM254      0.0000
      7  C3A       37.9530   63.0270   56.5250 C.2   254  HEM254      0.0000
      8  C4A       38.9460   64.0420   56.2040 C.2   254  HEM254      0.0000
      9  CMA       38.2050   61.6970   57.1950 C.3   254  HEM254      0.0000
     10  CAA       35.3800   62.8460   56.1970 C.3   254  HEM254      0.0000
     11  CBA       34.8460   63.2130   57.6160 C.3   254  HEM254      0.0000
     12  CGA       33.3910   62.8320   57.8390 C.2   254  HEM254      0.0000
     13  O1A       33.0050   62.6080   59.0160 O.co2 254  HEM254      0.0000
     14  O2A       32.6310   62.7610   56.8480 O.co2 254  HEM254      0.0000
     15  C1B       41.2420   64.8840   56.1590 C.ar  254  HEM254      0.0000
     16  C2B       42.7030   64.7140   56.3330 C.ar  254  HEM254      0.0000
     17  C3B       43.3210   65.7760   55.7200 C.ar  254  HEM254      0.0000
     18  C4B       42.2150   66.5650   55.1270 C.ar  254  HEM254      0.0000
     19  CMB       43.3880   63.6360   57.1310 C.3   254  HEM254      0.0000
     20  CAB       44.7280   66.1070   55.6900 C.3   254  HEM254      0.0000
     21  CBB       45.6750   65.0030   55.1840 C.3   254  HEM254      0.0000
     22  C1C       41.4120   68.6200   54.0510 C.2   254  HEM254      0.0000
     23  C2C       41.6440   69.9280   53.4730 C.2   254  HEM254      0.0000
     24  C3C       40.4570   70.5330   53.3510 C.2   254  HEM254      0.0000
     25  C4C       39.4820   69.5750   53.8660 C.2   254  HEM254      0.0000
     26  CMC       43.0080   70.4210   53.0300 C.3   254  HEM254      0.0000
     27  CAC       40.1860   71.8690   52.8860 C.3   254  HEM254      0.0000
     28  CBC       40.6760   72.2560   51.4490 C.3   254  HEM254      0.0000
     29  C1D       37.1570   68.9270   54.3380 C.ar  254  HEM254      0.0000
     30  C2D       35.7280   69.2160   54.3110 C.ar  254  HEM254      0.0000
     31  C3D       35.1290   68.0350   54.5580 C.ar  254  HEM254      0.0000
     32  C4D       36.1810   67.0430   54.7610 C.ar  254  HEM254      0.0000
     33  CMD       35.0040   70.5750   54.0830 C.3   254  HEM254      0.0000
     34  CAD       33.6490   67.7520   54.5460 C.3   254  HEM254      0.0000
     35  CBD       33.0940   67.3660   53.1760 C.3   254  HEM254      0.0000
     36  CGD       31.6030   67.1200   53.2390 C.2   254  HEM254      0.0000
     37  O1D       30.8370   67.9910   52.7540 O.co2 254  HEM254      0.0000
     38  O2D       31.2090   66.0690   53.8060 O.co2 254  HEM254      0.0000
     39  NA        38.3400   65.1510   55.6090 N.2   254  HEM254      0.0000
     40  NB        40.9590   66.0410   55.4060 N.ar  254  HEM254      0.0000
     41  NC        40.0760   68.3850   54.2570 N.2   254  HEM254      0.0000
     42  ND        37.4230   67.5960   54.6430 N.ar  254  HEM254      0.0000
     43 FE         39.1920   66.8200   55.0120 Fe    254  HEM254      0.0000
@<TRIPOS>BOND
     1    28    27    1
     2    37    36   ar
     3    27    24    1
     4    26    23    1
     5    35    36    1
     6    35    34    1
     7    36    38   ar
     8    24    23    2
     9    24    25    1
    10    23    22    1
    11    25     4    1
    12    25    41    2
    13     4    29    2
    14    22    41    1
    15    22     3    2
    16    33    30    1
    17    41    43    1
    18    30    29   ar
    19    30    31   ar
    20    29    42   ar
    21     3    18    1
    22    34    31    1
    23    31    32   ar
    24    42    32   ar
    25    42    43    1
    26    32     1    2
    27    43    40    1
    28    43    39    1
    29    18    40   ar
    30    18    17   ar
    31    21    20    1
    32     1     5    1
    33    40    15   ar
    34     5    39    2
    35     5     6    1
    36    39     8    1
    37    20    17    1
    38    17    16   ar
    39     6    10    1
    40     6     7    2
    41    15    16   ar
    42    15     2    1
    43    10    11    1
    44     8     2    2
    45     8     7    1
    46    16    19    1
    47     7     9    1
    48    14    12   ar
    49    11    12    1
    50    12    13   ar
