@<TRIPOS>MOLECULE
1ci7_CB3_A_1.pdb
 35 37 0 0 0
SMALL
GASTEIGER

@<TRIPOS>ATOM
      1  N1       108.7850  -21.9730   56.2760 N.2   768  CB3768     -0.3286
      2  C2       108.3030  -20.7440   56.6860 C.1   768  CB3768      0.2515
      3  NA2      107.8000  -20.5760   57.9110 N.pl3 768  CB3768     -0.0226
      4  N3       108.3720  -19.6830   55.8120 N.2   768  CB3768     -0.2501
      5  C4       108.9460  -19.7890   54.5530 C.1   768  CB3768      0.2179
      6  O4       108.8670  -18.6610   53.7420 O.2   768  CB3768     -0.2085
      7  C4A      109.5540  -21.0380   54.1200 C.2   768  CB3768      0.1217
      8  C5       110.2490  -21.2560   52.8710 C.2   768  CB3768      0.0121
      9  C6       110.8100  -22.5530   52.5190 C.2   768  CB3768     -0.0054
     10  C7       110.6480  -23.6520   53.4380 C.2   768  CB3768     -0.0212
     11  C8       109.9650  -23.4570   54.6990 C.3   768  CB3768      0.0865
     12  C8A      109.4200  -22.1620   55.0600 C.2   768  CB3768      0.1389
     13  C9       111.7410  -22.7620   51.3740 C.3   768  CB3768      0.1182
     14  N10      112.2980  -21.5610   50.6720 N.pl3 768  CB3768     -0.2924
     15  C11      113.2260  -20.6700   51.1690 C.ar  768  CB3768      0.0488
     16  C12      113.3410  -19.3070   50.6930 C.ar  768  CB3768      0.0147
     17  C13      114.3800  -18.4440   51.1920 C.ar  768  CB3768      0.0058
     18  C14      115.3200  -18.9300   52.1750 C.ar  768  CB3768      0.0551
     19  C15      115.1670  -20.2440   52.7120 C.ar  768  CB3768      0.0058
     20  C16      114.1350  -21.1020   52.2100 C.ar  768  CB3768      0.0147
     21  C        116.5060  -18.1900   52.5250 C.2   768  CB3768      0.2652
     22  O        117.1550  -18.4340   53.5420 O.2   768  CB3768     -0.2684
     23  N        116.8680  -17.2210   51.6800 N.am  768  CB3768     -0.1918
     24  CA       117.9660  -16.2330   51.7860 C.3   768  CB3768      0.1986
     25  CB       118.4530  -15.7990   53.1710 C.3   768  CB3768      0.0451
     26  CG       119.3910  -16.7840   53.8630 C.3   768  CB3768      0.1164
     27  CD       120.6500  -17.0690   53.0540 C.2   768  CB3768      0.3649
     28  OE1      121.3090  -16.1040   52.5940 O.co2 768  CB3768     -0.2457
     29  OE2      120.9880  -18.2620   52.8890 O.co2 768  CB3768     -0.2457
     30  CT       117.6530  -15.0140   50.9180 C.2   768  CB3768      0.3842
     31  O1       116.9600  -15.1920   49.8910 O.co2 768  CB3768     -0.2437
     32  O2       118.1000  -13.8990   51.2680 O.co2 768  CB3768     -0.2437
     33  CP1      111.9960  -21.5880   49.2190 C.3   768  CB3768      0.1697
     34  CP2      111.5860  -20.2860   48.6760 C.1   768  CB3768     -0.0557
     35  CP3      111.2430  -19.2650   48.1460 C.1   768  CB3768     -0.0124
@<TRIPOS>BOND
     1    35    34    3
     2    34    33    1
     3    33    14    1
     4    31    30   ar
     5    14    15    1
     6    14    13    1
     7    16    15   ar
     8    16    17   ar
     9    30    32   ar
    10    30    24    1
    11    15    20   ar
    12    17    18   ar
    13    13     9    1
    14    23    24    1
    15    23    21   am
    16    24    25    1
    17    18    21    1
    18    18    19   ar
    19    20    19   ar
    20     9     8    1
    21     9    10    2
    22    21    22    2
    23    28    27   ar
    24     8     7    2
    25    29    27   ar
    26    27    26    1
    27    25    26    1
    28    10    11    1
    29     6     5    2
    30     7     5    1
    31     7    12    1
    32     5     4    2
    33    11    12    1
    34    12     1    2
    35     4     2    2
    36     1     2    2
    37     2     3    1
