@<TRIPOS>MOLECULE
1ci7_UMP_A_1.pdb
 20 21 0 0 0
SMALL
GASTEIGER

@<TRIPOS>ATOM
      1  N1       106.4880  -20.7540   52.0670 N.am  767  UMP767     -0.2018
      2  C2       106.5530  -19.5360   51.4190 C.1   767  UMP767      0.2802
      3  N3       107.1950  -19.4770   50.2070 N.2   767  UMP767     -0.2497
      4  C4       107.8020  -20.5580   49.5400 C.1   767  UMP767      0.1941
      5  C5       107.7270  -21.9060   50.2320 C.3   767  UMP767      0.1579
      6  C6       106.5070  -21.9500   51.3300 C.3   767  UMP767      0.1249
      7  O2       106.0570  -18.5020   51.8850 O.2   767  UMP767     -0.1922
      8  O4       108.3260  -20.4400   48.4940 O.2   767  UMP767     -0.2133
      9  C1'      105.8670  -21.0030   53.3630 C.3   767  UMP767      0.2048
     10  C2'      104.4440  -20.4490   53.4540 C.3   767  UMP767      0.0871
     11  C3'      104.0360  -20.8840   54.8490 C.3   767  UMP767      0.1857
     12  C4'      104.4700  -22.3510   54.9750 C.3   767  UMP767      0.1774
     13  O3'      104.8070  -20.0460   55.7330 O.3   767  UMP767     -0.2203
     14  O4'      105.6750  -22.3450   54.0510 O.3   767  UMP767     -0.3342
     15  C5'      103.4010  -23.2810   54.4040 C.3   767  UMP767      0.1858
     16  O5'      102.2280  -23.2200   55.2320 O.3   767  UMP767     -0.2675
     17  P        101.4800  -24.5450   55.2320 P.3   767  UMP767      0.5327
     18  OP1      100.2830  -24.4850   54.3790 O.2   767  UMP767     -0.2224
     19  OP2      102.3310  -25.6270   54.7050 O.3   767  UMP767     -0.1145
     20  OP3      101.0930  -24.8920   56.6060 O.3   767  UMP767     -0.1145
@<TRIPOS>BOND
     1     8     4    2
     2     4     3    2
     3     4     5    1
     4     3     2    2
     5     5     6    1
     6     6     1    1
     7     2     7    2
     8     2     1   am
     9     1     9    1
    10     9    10    1
    11     9    14    1
    12    10    11    1
    13    14    12    1
    14    18    17    2
    15    15    12    1
    16    15    16    1
    17    19    17    1
    18    11    12    1
    19    11    13    1
    20    16    17    1
    21    17    20    1
