@<TRIPOS>MOLECULE
1ci9_DFP_A_1.pdb
 10 9 0 0 0
SMALL
GASTEIGER

@<TRIPOS>ATOM
      1  C1       -24.1250   42.5650   86.7760 C.3   401  DFP401      0.1236
      2  C2       -25.2590   42.1280   85.8290 C.3   401  DFP401      0.0325
      3  C3       -23.7240   41.3790   87.6730 C.3   401  DFP401      0.0325
      4  C1'      -23.8000   46.9590   87.6400 C.3   401  DFP401      0.1236
      5  C2'      -24.6330   47.0560   86.3470 C.3   401  DFP401      0.0325
      6  C3'      -23.7090   48.3530   88.2890 C.3   401  DFP401      0.0325
      7  P        -24.1410   44.5050   88.8320 P.3   401  DFP401      0.3659
      8  O1P      -24.5560   43.6630   87.5770 O.3   401  DFP401     -0.2993
      9  O2P      -24.4160   46.0440   88.5450 O.3   401  DFP401     -0.2993
     10  O3P      -25.1130   44.2100   90.0260 O.3   401  DFP401     -0.1446
@<TRIPOS>BOND
     1     2     1    1
     2     5     4    1
     3     1     8    1
     4     1     3    1
     5     8     7    1
     6     4     6    1
     7     4     9    1
     8     9     7    1
     9     7    10    1
