@<TRIPOS>MOLECULE
1cib_IMP_A_1.pdb
 23 25 0 0 0
SMALL
GASTEIGER

@<TRIPOS>ATOM
      1  P        -16.2350   54.3020   50.3510 P.3   440  IMP440      0.5327
      2  O1P      -17.6780   54.6280   50.4750 O.3   440  IMP440     -0.1145
      3  O2P      -16.0600   52.8760   50.0250 O.3   440  IMP440     -0.1145
      4  O3P      -15.8840   55.2810   49.1310 O.2   440  IMP440     -0.2224
      5  O5'      -15.1980   54.7820   51.4860 O.3   440  IMP440     -0.2675
      6  C5'      -15.2340   54.3760   52.8390 C.3   440  IMP440      0.1860
      7  C4'      -13.8300   54.1910   53.3690 C.3   440  IMP440      0.1823
      8  O4'      -13.1570   53.1530   52.6390 O.3   440  IMP440     -0.3135
      9  C3'      -12.9430   55.3860   53.2810 C.3   440  IMP440      0.2184
     10  O3'      -11.9660   55.2520   54.3490 O.3   440  IMP440     -0.2174
     11  C2'      -12.2680   55.1600   51.9610 C.3   440  IMP440      0.2570
     12  O2'      -11.0050   55.8060   51.8650 O.3   440  IMP440     -0.2130
     13  C1'      -11.9380   53.6750   52.0520 C.3   440  IMP440      0.3186
     14  N9       -11.6630   53.0970   50.8080 N.pl3 440  IMP440     -0.1435
     15  C8       -12.6050   52.7260   49.9160 C.3   440  IMP440      0.3382
     16  N7       -12.1900   52.0110   48.9340 N.2   440  IMP440     -0.2054
     17  C5       -10.8400   51.8710   49.1580 C.2   440  IMP440      0.2446
     18  C6        -9.8810   51.1720   48.3950 C.1   440  IMP440      0.1792
     19  O6       -10.0680   50.4760   47.3930 O.2   440  IMP440     -0.2203
     20  N1        -8.6190   51.2620   48.9490 N.2   440  IMP440     -0.1458
     21  C2        -8.3320   51.9510   50.1050 C.3   440  IMP440      0.4017
     22  N3        -9.2660   52.6100   50.8240 N.2   440  IMP440     -0.0334
     23  C4       -10.4890   52.5290   50.3020 C.2   440  IMP440      0.3528
@<TRIPOS>BOND
     1    19    18    2
     2    18    20    2
     3    18    17    1
     4    16    17    2
     5    16    15    1
     6    20    21    1
     7     4     1    2
     8    17    23    1
     9    15    14    1
    10     3     1    1
    11    21    22    1
    12    23    14    1
    13    23    22    2
    14     1     2    1
    15     1     5    1
    16    14    13    1
    17     5     6    1
    18    12    11    1
    19    11    13    1
    20    11     9    1
    21    13     8    1
    22     8     7    1
    23     6     7    1
    24     9     7    1
    25     9    10    1
