@<TRIPOS>MOLECULE
1cib_GDP_A_1.pdb
 28 30 0 0 0
SMALL
GASTEIGER

@<TRIPOS>ATOM
      1  PB        -4.1660   47.2740   45.3660 P.3   432  GDP432      0.5373
      2  O1B       -4.1590   46.5300   44.0770 O.2   432  GDP432     -0.2221
      3  O2B       -5.3340   48.1930   45.4230 O.3   432  GDP432     -0.1143
      4  O3B       -4.2330   46.2840   46.4760 O.3   432  GDP432     -0.1143
      5  O3A       -2.7900   48.0450   45.6020 O.3   432  GDP432     -0.2261
      6  PA        -2.4720   49.5430   45.1640 P.3   432  GDP432      0.2231
      7  O1A       -3.5650   50.4960   45.5110 O.3   432  GDP432     -0.4370
      8  O2A       -2.1680   49.6220   43.7140 O.2   432  GDP432     -0.5169
      9  O5'       -1.0820   49.8970   45.8730 O.3   432  GDP432     -0.3111
     10  C5'        0.0900   49.1260   45.6230 C.3   432  GDP432      0.1813
     11  C4'        1.0610   50.0690   44.9520 C.3   432  GDP432      0.1799
     12  O4'        2.4390   49.7110   45.0800 O.3   432  GDP432     -0.3326
     13  C3'        0.8160   50.1830   43.4510 C.3   432  GDP432      0.2158
     14  O3'        1.1290   51.5150   43.0430 O.3   432  GDP432     -0.2175
     15  C2'        1.8320   49.1650   42.8770 C.3   432  GDP432      0.2310
     16  O2'        2.1790   49.5050   41.5190 O.3   432  GDP432     -0.2158
     17  C1'        3.0280   49.2470   43.8750 C.3   432  GDP432      0.2293
     18  N9         3.5830   48.0630   44.3430 N.pl3 432  GDP432     -0.2354
     19  C8         3.0190   46.8230   44.4120 C.3   432  GDP432      0.2246
     20  N7         3.7520   45.8450   44.8840 N.2   432  GDP432     -0.2322
     21  C5         4.9220   46.4960   45.1570 C.2   432  GDP432      0.2182
     22  C6         6.1090   45.9590   45.6970 C.1   432  GDP432      0.2372
     23  O6         6.3400   44.7730   45.9670 O.2   432  GDP432     -0.2069
     24  N1         7.0930   46.9330   45.8570 N.2   432  GDP432     -0.2485
     25  C2         6.9410   48.2570   45.5170 C.1   432  GDP432      0.2531
     26  N2         7.9800   49.0390   45.7910 N.pl3 432  GDP432     -0.0226
     27  N3         5.8120   48.7810   44.9800 N.2   432  GDP432     -0.3074
     28  C4         4.8440   47.8460   44.8390 C.2   432  GDP432      0.2300
@<TRIPOS>BOND
     1    16    15    1
     2    15    13    1
     3    15    17    1
     4    14    13    1
     5    13    11    1
     6     8     6    2
     7    17    18    1
     8    17    12    1
     9     2     1    2
    10    18    19    1
    11    18    28    1
    12    19    20    1
    13    28    27    2
    14    28    21    1
    15    20    21    2
    16    11    12    1
    17    11    10    1
    18    27    25    2
    19    21    22    1
    20     6     7    1
    21     6     5    1
    22     6     9    1
    23     1     3    1
    24     1     5    1
    25     1     4    1
    26    25    26    1
    27    25    24    2
    28    10     9    1
    29    22    24    2
    30    22    23    2
