@<TRIPOS>MOLECULE
1cie_HEM_A_1.pdb
 43 50 0 0 0
SMALL
GASTEIGER

@<TRIPOS>ATOM
      1 FE          2.7720   20.8310   13.0540 Fe    104  HEM104      0.0000
      2  CHA        5.1590   18.5370   14.2040 C.2   104  HEM104      0.0000
      3  CHB        4.0310   20.5890    9.9520 C.2   104  HEM104      0.0000
      4  CHC        0.1310   22.6970   11.9170 C.2   104  HEM104      0.0000
      5  CHD        1.9520   21.5180   16.2180 C.2   104  HEM104      0.0000
      6  NA         4.2890   19.7990   12.2670 N.ar  104  HEM104      0.0000
      7  C1A        5.0950   18.8500   12.8320 C.ar  104  HEM104      0.0000
      8  C2A        5.8500   18.1470   11.7940 C.ar  104  HEM104      0.0000
      9  C3A        5.5970   18.7360   10.6460 C.ar  104  HEM104      0.0000
     10  C4A        4.5910   19.7490   10.8750 C.ar  104  HEM104      0.0000
     11  CMA        6.0940   18.3940    9.2160 C.3   104  HEM104      0.0000
     12  CAA        6.8530   17.0180   12.1100 C.3   104  HEM104      0.0000
     13  CBA        8.2170   17.6940   12.4330 C.3   104  HEM104      0.0000
     14  CGA        9.4170   16.8360   12.5620 C.2   104  HEM104      0.0000
     15  O1A       10.4300   17.4760   12.9350 O.co2 104  HEM104      0.0000
     16  O2A        9.3570   15.6050   12.3840 O.co2 104  HEM104      0.0000
     17  NB         2.1510   21.5150   11.2700 N.2   104  HEM104      0.0000
     18  C1B        2.9240   21.3630   10.1200 C.2   104  HEM104      0.0000
     19  C2B        2.2400   22.0970    9.0620 C.2   104  HEM104      0.0000
     20  C3B        1.1720   22.6950    9.6110 C.2   104  HEM104      0.0000
     21  C4B        1.1320   22.3340   11.0250 C.2   104  HEM104      0.0000
     22  CMB        2.8200   22.1690    7.6280 C.3   104  HEM104      0.0000
     23  CAB        0.1220   23.5430    8.9360 C.3   104  HEM104      0.0000
     24  CBB       -0.8440   22.7740    8.0000 C.3   104  HEM104      0.0000
     25  NC         1.3030   21.8560   13.9180 N.ar  104  HEM104      0.0000
     26  C1C        0.3450   22.6540   13.2930 C.ar  104  HEM104      0.0000
     27  C2C       -0.4090   23.4070   14.2960 C.ar  104  HEM104      0.0000
     28  C3C        0.1120   23.0540   15.4780 C.ar  104  HEM104      0.0000
     29  C4C        1.1700   22.1060   15.2670 C.ar  104  HEM104      0.0000
     30  CMC       -1.5480   24.3850   14.0120 C.3   104  HEM104      0.0000
     31  CAC       -0.2580   23.6200   16.8700 C.3   104  HEM104      0.0000
     32  CBC       -1.8140   23.7480   17.1280 C.3   104  HEM104      0.0000
     33  ND         3.4500   20.1450   14.8930 N.2   104  HEM104      0.0000
     34  C1D        2.8920   20.5450   16.0820 C.2   104  HEM104      0.0000
     35  C2D        3.4930   19.7550   17.1310 C.2   104  HEM104      0.0000
     36  C3D        4.3860   18.9470   16.5730 C.2   104  HEM104      0.0000
     37  C4D        4.3440   19.1710   15.1150 C.2   104  HEM104      0.0000
     38  CMD        3.1060   19.8870   18.6530 C.3   104  HEM104      0.0000
     39  CAD        5.2980   17.8790   17.2140 C.3   104  HEM104      0.0000
     40  CBD        4.4700   16.5790   17.3660 C.3   104  HEM104      0.0000
     41  CGD        4.9580   15.5310   18.3090 C.2   104  HEM104      0.0000
     42  O1D        5.9920   15.7300   18.9600 O.co2 104  HEM104      0.0000
     43  O2D        4.2380   14.4990   18.2600 O.co2 104  HEM104      0.0000
@<TRIPOS>BOND
     1    22    19    1
     2    24    23    1
     3    23    20    1
     4    19    20    2
     5    19    18    1
     6    11     9    1
     7    20    21    1
     8     3    18    1
     9     3    10    2
    10    18    17    2
    11     9    10   ar
    12     9     8   ar
    13    10     6   ar
    14    21    17    1
    15    21     4    2
    16    17     1    1
    17     8    12    1
    18     8     7   ar
    19     4    26    1
    20    12    13    1
    21     6     7   ar
    22     6     1    1
    23    16    14   ar
    24    13    14    1
    25    14    15   ar
    26     7     2    2
    27     1    25    1
    28     1    33    1
    29    26    25   ar
    30    26    27   ar
    31    25    29   ar
    32    30    27    1
    33     2    37    1
    34    27    28   ar
    35    33    37    2
    36    33    34    1
    37    37    36    1
    38    29    28   ar
    39    29     5    1
    40    28    31    1
    41    34     5    2
    42    34    35    1
    43    36    35    2
    44    36    39    1
    45    31    32    1
    46    35    38    1
    47    39    40    1
    48    40    41    1
    49    43    41   ar
    50    41    42   ar
