@<TRIPOS>MOLECULE
1cif_HEM_A_1.pdb
 43 50 0 0 0
SMALL
GASTEIGER

@<TRIPOS>ATOM
      1 FE          2.8040   21.0290   13.2080 Fe    104  HEM104      0.0000
      2  CHA        4.9130   18.6540   14.3220 C.2   104  HEM104      0.0000
      3  CHB        4.1210   20.8570   10.0850 C.2   104  HEM104      0.0000
      4  CHC        0.1300   22.7880   12.0100 C.2   104  HEM104      0.0000
      5  CHD        2.0500   21.9420   16.3750 C.2   104  HEM104      0.0000
      6  NA         4.3100   20.0350   12.3930 N.ar  104  HEM104      0.0000
      7  C1A        5.0040   18.9680   12.9780 C.ar  104  HEM104      0.0000
      8  C2A        5.6980   18.2470   11.9460 C.ar  104  HEM104      0.0000
      9  C3A        5.4820   18.8530   10.7640 C.ar  104  HEM104      0.0000
     10  C4A        4.5900   19.9520   11.0100 C.ar  104  HEM104      0.0000
     11  CMA        6.0290   18.4630    9.3800 C.3   104  HEM104      0.0000
     12  CAA        6.6370   17.0350   12.2110 C.3   104  HEM104      0.0000
     13  CBA        8.0410   17.6270   12.2830 C.3   104  HEM104      0.0000
     14  CGA        9.2940   16.8890   12.4280 C.2   104  HEM104      0.0000
     15  O1A       10.2670   17.7030   12.5080 O.co2 104  HEM104      0.0000
     16  O2A        9.3610   15.6220   12.4630 O.co2 104  HEM104      0.0000
     17  NB         2.2030   21.6640   11.3870 N.2   104  HEM104      0.0000
     18  C1B        2.9670   21.5770   10.2390 C.2   104  HEM104      0.0000
     19  C2B        2.2900   22.3170    9.1770 C.2   104  HEM104      0.0000
     20  C3B        1.1850   22.8800    9.7180 C.2   104  HEM104      0.0000
     21  C4B        1.1110   22.4450   11.1050 C.2   104  HEM104      0.0000
     22  CMB        2.8540   22.4250    7.7470 C.3   104  HEM104      0.0000
     23  CAB        0.1020   23.7030    9.0270 C.3   104  HEM104      0.0000
     24  CBB       -0.5690   22.8230    7.9160 C.3   104  HEM104      0.0000
     25  NC         1.3320   22.1260   14.0480 N.ar  104  HEM104      0.0000
     26  C1C        0.3360   22.8310   13.3750 C.ar  104  HEM104      0.0000
     27  C2C       -0.4300   23.6100   14.3250 C.ar  104  HEM104      0.0000
     28  C3C        0.0930   23.3680   15.5500 C.ar  104  HEM104      0.0000
     29  C4C        1.1940   22.4460   15.3770 C.ar  104  HEM104      0.0000
     30  CMC       -1.6020   24.5110   13.8640 C.3   104  HEM104      0.0000
     31  CAC       -0.3100   23.9690   16.8960 C.3   104  HEM104      0.0000
     32  CBC       -1.8690   24.1280   17.0780 C.3   104  HEM104      0.0000
     33  ND         3.3470   20.4100   15.0490 N.2   104  HEM104      0.0000
     34  C1D        2.9900   20.9350   16.2530 C.2   104  HEM104      0.0000
     35  C2D        3.6940   20.2170   17.2850 C.2   104  HEM104      0.0000
     36  C3D        4.5000   19.3230   16.7240 C.2   104  HEM104      0.0000
     37  C4D        4.2570   19.3860   15.2840 C.2   104  HEM104      0.0000
     38  CMD        3.5560   20.4980   18.8300 C.3   104  HEM104      0.0000
     39  CAD        5.4520   18.2610   17.2830 C.3   104  HEM104      0.0000
     40  CBD        4.7440   16.9110   17.5160 C.3   104  HEM104      0.0000
     41  CGD        5.2740   15.8240   18.3320 C.2   104  HEM104      0.0000
     42  O1D        6.4280   15.8000   18.8720 O.co2 104  HEM104      0.0000
     43  O2D        4.5040   14.7630   18.3990 O.co2 104  HEM104      0.0000
@<TRIPOS>BOND
     1    22    19    1
     2    24    23    1
     3    23    20    1
     4    19    20    2
     5    19    18    1
     6    11     9    1
     7    20    21    1
     8     3    18    1
     9     3    10    2
    10    18    17    2
    11     9    10   ar
    12     9     8   ar
    13    10     6   ar
    14    21    17    1
    15    21     4    2
    16    17     1    1
    17     8    12    1
    18     8     7   ar
    19     4    26    1
    20    12    13    1
    21    13    14    1
    22     6     7   ar
    23     6     1    1
    24    14    16   ar
    25    14    15   ar
    26     7     2    2
    27     1    25    1
    28     1    33    1
    29    26    25   ar
    30    26    27   ar
    31    30    27    1
    32    25    29   ar
    33     2    37    1
    34    27    28   ar
    35    33    37    2
    36    33    34    1
    37    37    36    1
    38    29    28   ar
    39    29     5    1
    40    28    31    1
    41    34     5    2
    42    34    35    1
    43    36    39    1
    44    36    35    2
    45    31    32    1
    46    39    40    1
    47    35    38    1
    48    40    41    1
    49    41    43   ar
    50    41    42   ar
