@<TRIPOS>MOLECULE
1cig_HEM_A_1.pdb
 43 50 0 0 0
SMALL
GASTEIGER

@<TRIPOS>ATOM
      1 FE          3.0270   21.0510   13.0520 Fe    104  HEM104      0.0000
      2  CHA        5.2210   18.6010   14.0930 C.2   104  HEM104      0.0000
      3  CHB        4.1860   20.8760    9.9640 C.2   104  HEM104      0.0000
      4  CHC        0.2890   22.8390   11.9920 C.2   104  HEM104      0.0000
      5  CHD        2.2920   21.7850   16.3170 C.2   104  HEM104      0.0000
      6  NA         4.4590   19.9810   12.1910 N.ar  104  HEM104      0.0000
      7  C1A        5.2470   18.9510   12.7340 C.ar  104  HEM104      0.0000
      8  C2A        5.9560   18.3060   11.6950 C.ar  104  HEM104      0.0000
      9  C3A        5.7230   18.9620   10.5410 C.ar  104  HEM104      0.0000
     10  C4A        4.7680   19.9900   10.8370 C.ar  104  HEM104      0.0000
     11  CMA        6.2750   18.6530    9.1220 C.3   104  HEM104      0.0000
     12  CAA        7.0190   17.1800   11.9010 C.3   104  HEM104      0.0000
     13  CBA        8.3710   17.9730   12.2150 C.3   104  HEM104      0.0000
     14  CGA        9.5870   17.1050   12.3460 C.2   104  HEM104      0.0000
     15  O1A       10.6200   17.7020   12.6880 O.co2 104  HEM104      0.0000
     16  O2A        9.5110   15.8670   12.1430 O.co2 104  HEM104      0.0000
     17  NB         2.3050   21.6860   11.2950 N.2   104  HEM104      0.0000
     18  C1B        3.0540   21.6180   10.1470 C.2   104  HEM104      0.0000
     19  C2B        2.3170   22.3190    9.0810 C.2   104  HEM104      0.0000
     20  C3B        1.2540   22.8900    9.6380 C.2   104  HEM104      0.0000
     21  C4B        1.2300   22.5050   11.0490 C.2   104  HEM104      0.0000
     22  CMB        2.9020   22.4000    7.6550 C.3   104  HEM104      0.0000
     23  CAB        0.1820   23.7400    9.0000 C.3   104  HEM104      0.0000
     24  CBB       -0.6630   23.0720    7.8560 C.3   104  HEM104      0.0000
     25  NC         1.5540   22.0420   13.9920 N.ar  104  HEM104      0.0000
     26  C1C        0.5710   22.7840   13.3680 C.ar  104  HEM104      0.0000
     27  C2C       -0.1830   23.5160   14.3550 C.ar  104  HEM104      0.0000
     28  C3C        0.3600   23.2250   15.5550 C.ar  104  HEM104      0.0000
     29  C4C        1.4680   22.3150   15.3330 C.ar  104  HEM104      0.0000
     30  CMC       -1.3750   24.4550   14.0840 C.3   104  HEM104      0.0000
     31  CAC       -0.0260   23.8320   16.9090 C.3   104  HEM104      0.0000
     32  CBC       -1.5300   23.8670   17.2390 C.3   104  HEM104      0.0000
     33  ND         3.6620   20.3340   14.8710 N.2   104  HEM104      0.0000
     34  C1D        3.2200   20.7640   16.1120 C.2   104  HEM104      0.0000
     35  C2D        3.9300   20.0330   17.1270 C.2   104  HEM104      0.0000
     36  C3D        4.7360   19.1640   16.4980 C.2   104  HEM104      0.0000
     37  C4D        4.5200   19.3010   15.0630 C.2   104  HEM104      0.0000
     38  CMD        3.7160   20.2170   18.6670 C.3   104  HEM104      0.0000
     39  CAD        5.6600   18.0860   17.1230 C.3   104  HEM104      0.0000
     40  CBD        4.7980   16.8460   17.4260 C.3   104  HEM104      0.0000
     41  CGD        5.3870   15.7410   18.2120 C.2   104  HEM104      0.0000
     42  O1D        6.5850   15.7930   18.6480 O.co2 104  HEM104      0.0000
     43  O2D        4.6340   14.7090   18.2770 O.co2 104  HEM104      0.0000
@<TRIPOS>BOND
     1    22    19    1
     2    24    23    1
     3    23    20    1
     4    19    20    2
     5    19    18    1
     6    11     9    1
     7    20    21    1
     8     3    18    1
     9     3    10    2
    10    18    17    2
    11     9    10   ar
    12     9     8   ar
    13    10     6   ar
    14    21    17    1
    15    21     4    2
    16    17     1    1
    17     8    12    1
    18     8     7   ar
    19    12    13    1
    20     4    26    1
    21    16    14   ar
    22     6     7   ar
    23     6     1    1
    24    13    14    1
    25    14    15   ar
    26     7     2    2
    27     1    25    1
    28     1    33    1
    29    26    25   ar
    30    26    27   ar
    31    25    29   ar
    32    30    27    1
    33     2    37    1
    34    27    28   ar
    35    33    37    2
    36    33    34    1
    37    37    36    1
    38    29    28   ar
    39    29     5    1
    40    28    31    1
    41    34     5    2
    42    34    35    1
    43    36    39    1
    44    36    35    2
    45    31    32    1
    46    39    40    1
    47    35    38    1
    48    40    41    1
    49    41    43   ar
    50    41    42   ar
