@<TRIPOS>MOLECULE
1cih_HEM_A_1.pdb
 43 50 0 0 0
SMALL
GASTEIGER

@<TRIPOS>ATOM
      1 FE          2.9820   21.0750   13.0490 Fe    104  HEM104      0.0000
      2  CHA        5.2650   18.8350   14.1640 C.2   104  HEM104      0.0000
      3  CHB        4.1570   20.7870    9.9000 C.2   104  HEM104      0.0000
      4  CHC        0.3720   22.9650   11.9230 C.2   104  HEM104      0.0000
      5  CHD        2.1310   21.8280   16.2700 C.2   104  HEM104      0.0000
      6  NA         4.4520   20.0380   12.1950 N.ar  104  HEM104      0.0000
      7  C1A        5.2970   19.1020   12.7700 C.ar  104  HEM104      0.0000
      8  C2A        6.0500   18.4220   11.7760 C.ar  104  HEM104      0.0000
      9  C3A        5.7790   18.9670   10.5950 C.ar  104  HEM104      0.0000
     10  C4A        4.7510   19.9660   10.8200 C.ar  104  HEM104      0.0000
     11  CMA        6.3270   18.6100    9.1980 C.3   104  HEM104      0.0000
     12  CAA        7.1080   17.2960   12.0670 C.3   104  HEM104      0.0000
     13  CBA        8.4450   18.0200   12.4760 C.3   104  HEM104      0.0000
     14  CGA        9.7120   17.1860   12.5370 C.2   104  HEM104      0.0000
     15  O1A       10.7080   17.8610   12.8830 O.co2 104  HEM104      0.0000
     16  O2A        9.6540   15.9780   12.2870 O.co2 104  HEM104      0.0000
     17  NB         2.3460   21.7830   11.2460 N.2   104  HEM104      0.0000
     18  C1B        3.0530   21.5790   10.0880 C.2   104  HEM104      0.0000
     19  C2B        2.3760   22.3450    9.0270 C.2   104  HEM104      0.0000
     20  C3B        1.3000   22.9390    9.5680 C.2   104  HEM104      0.0000
     21  C4B        1.2940   22.5930   11.0040 C.2   104  HEM104      0.0000
     22  CMB        2.8890   22.3470    7.5700 C.3   104  HEM104      0.0000
     23  CAB        0.2380   23.7870    8.9040 C.3   104  HEM104      0.0000
     24  CBB       -0.6030   23.0330    7.8440 C.3   104  HEM104      0.0000
     25  NC         1.5010   22.1490   13.9350 N.ar  104  HEM104      0.0000
     26  C1C        0.5450   22.9140   13.3300 C.ar  104  HEM104      0.0000
     27  C2C       -0.2620   23.6330   14.2910 C.ar  104  HEM104      0.0000
     28  C3C        0.2250   23.3000   15.5020 C.ar  104  HEM104      0.0000
     29  C4C        1.3530   22.3960   15.2930 C.ar  104  HEM104      0.0000
     30  CMC       -1.4140   24.6090   14.0360 C.3   104  HEM104      0.0000
     31  CAC       -0.1480   23.8820   16.8850 C.3   104  HEM104      0.0000
     32  CBC       -1.6740   24.0150   17.2130 C.3   104  HEM104      0.0000
     33  ND         3.6220   20.4940   14.8990 N.2   104  HEM104      0.0000
     34  C1D        3.0850   20.8770   16.0950 C.2   104  HEM104      0.0000
     35  C2D        3.6880   20.0520   17.1410 C.2   104  HEM104      0.0000
     36  C3D        4.5650   19.2330   16.5580 C.2   104  HEM104      0.0000
     37  C4D        4.4770   19.4460   15.1050 C.2   104  HEM104      0.0000
     38  CMD        3.3070   20.1560   18.6470 C.3   104  HEM104      0.0000
     39  CAD        5.4240   18.1240   17.1910 C.3   104  HEM104      0.0000
     40  CBD        4.7420   16.7520   17.1700 C.3   104  HEM104      0.0000
     41  CGD        5.2190   15.7030   18.1310 C.2   104  HEM104      0.0000
     42  O1D        6.2990   15.9050   18.7670 O.co2 104  HEM104      0.0000
     43  O2D        4.5370   14.6130   18.1590 O.co2 104  HEM104      0.0000
@<TRIPOS>BOND
     1    22    19    1
     2    24    23    1
     3    23    20    1
     4    19    20    2
     5    19    18    1
     6    11     9    1
     7    20    21    1
     8     3    18    1
     9     3    10    2
    10    18    17    2
    11     9    10   ar
    12     9     8   ar
    13    10     6   ar
    14    21    17    1
    15    21     4    2
    16    17     1    1
    17     8    12    1
    18     8     7   ar
    19     4    26    1
    20    12    13    1
    21     6     7   ar
    22     6     1    1
    23    16    14   ar
    24    13    14    1
    25    14    15   ar
    26     7     2    2
    27     1    25    1
    28     1    33    1
    29    26    25   ar
    30    26    27   ar
    31    25    29   ar
    32    30    27    1
    33     2    37    1
    34    27    28   ar
    35    33    37    2
    36    33    34    1
    37    37    36    1
    38    29    28   ar
    39    29     5    1
    40    28    31    1
    41    34     5    2
    42    34    35    1
    43    36    35    2
    44    36    39    1
    45    31    32    1
    46    35    38    1
    47    40    39    1
    48    40    41    1
    49    41    43   ar
    50    41    42   ar
