@<TRIPOS>MOLECULE
1cik_HEM_A_1.pdb
 43 50 0 0 0
SMALL
GASTEIGER

@<TRIPOS>ATOM
      1 FE         35.1420    4.1490   10.2890 Fe    154  HEM154      0.0000
      2  CHA       37.8160    2.3130   11.4540 C.2   154  HEM154      0.0000
      3  CHB       37.1350    5.4890    7.8260 C.2   154  HEM154      0.0000
      4  CHC       32.5050    6.0890    9.2170 C.2   154  HEM154      0.0000
      5  CHD       33.1880    2.9110   12.8440 C.2   154  HEM154      0.0000
      6  NA        37.0810    3.9320    9.7390 N.ar  154  HEM154      0.0000
      7  C1A       38.0230    3.1050   10.3410 C.ar  154  HEM154      0.0000
      8  C2A       39.2370    3.1560    9.5710 C.ar  154  HEM154      0.0000
      9  C3A       39.0390    4.0210    8.5330 C.ar  154  HEM154      0.0000
     10  C4A       37.6950    4.5380    8.6510 C.ar  154  HEM154      0.0000
     11  CMA       40.0370    4.3750    7.4270 C.3   154  HEM154      0.0000
     12  CAA       40.5030    2.3210    9.8330 C.3   154  HEM154      0.0000
     13  CBA       40.6570    1.0910    8.8740 C.3   154  HEM154      0.0000
     14  CGA       39.3960    0.2220    8.8480 C.2   154  HEM154      0.0000
     15  O1A       39.1230   -0.3980    9.9050 O.co2 154  HEM154      0.0000
     16  O2A       38.7540    0.2100    7.7810 O.co2 154  HEM154      0.0000
     17  NB        34.8620    5.4880    8.7980 N.2   154  HEM154      0.0000
     18  C1B       35.8130    5.8800    7.8670 C.2   154  HEM154      0.0000
     19  C2B       35.2040    6.8290    6.9650 C.2   154  HEM154      0.0000
     20  C3B       33.9290    7.0610    7.4010 C.2   154  HEM154      0.0000
     21  C4B       33.7020    6.1960    8.5400 C.2   154  HEM154      0.0000
     22  CMB       35.8810    7.4530    5.7370 C.3   154  HEM154      0.0000
     23  CAB       32.8790    7.9140    6.9350 C.3   154  HEM154      0.0000
     24  CBB       33.1480    9.1830    6.3250 C.3   154  HEM154      0.0000
     25  NC        33.2080    4.3780   10.8540 N.ar  154  HEM154      0.0000
     26  C1C       32.3160    5.2950   10.3340 C.ar  154  HEM154      0.0000
     27  C2C       31.1150    5.2810   11.1420 C.ar  154  HEM154      0.0000
     28  C3C       31.2590    4.3060   12.0810 C.ar  154  HEM154      0.0000
     29  C4C       32.6100    3.7900   11.9540 C.ar  154  HEM154      0.0000
     30  CMC       29.9390    6.2330   10.9410 C.3   154  HEM154      0.0000
     31  CAC       30.4300    3.7580   13.1240 C.3   154  HEM154      0.0000
     32  CBC       29.4840    4.6370   13.7920 C.3   154  HEM154      0.0000
     33  ND        35.4390    2.8620   11.8270 N.2   154  HEM154      0.0000
     34  C1D       34.5020    2.5020   12.7900 C.2   154  HEM154      0.0000
     35  C2D       35.1510    1.6820   13.7790 C.2   154  HEM154      0.0000
     36  C3D       36.4580    1.5800   13.4360 C.2   154  HEM154      0.0000
     37  C4D       36.6380    2.2690   12.1730 C.2   154  HEM154      0.0000
     38  CMD       34.4400    1.1080   15.0240 C.3   154  HEM154      0.0000
     39  CAD       37.5900    0.9820   14.2710 C.3   154  HEM154      0.0000
     40  CBD       38.1710    1.9780   15.3380 C.3   154  HEM154      0.0000
     41  CGD       39.2840    1.3060   16.1620 C.2   154  HEM154      0.0000
     42  O1D       38.9030    0.6590   17.1490 O.co2 154  HEM154      0.0000
     43  O2D       40.4330    1.4360   15.7110 O.co2 154  HEM154      0.0000
@<TRIPOS>BOND
     1    22    19    1
     2    24    23    1
     3    23    20    1
     4    19    20    2
     5    19    18    1
     6    20    21    1
     7    11     9    1
     8    16    14   ar
     9     3    18    1
    10     3    10    2
    11    18    17    2
    12     9    10   ar
    13     9     8   ar
    14    21    17    1
    15    21     4    2
    16    10     6   ar
    17    17     1    1
    18    14    13    1
    19    14    15   ar
    20    13    12    1
    21     4    26    1
    22     8    12    1
    23     8     7   ar
    24     6     1    1
    25     6     7   ar
    26     1    25    1
    27     1    33    1
    28    26    25   ar
    29    26    27   ar
    30     7     2    2
    31    25    29   ar
    32    30    27    1
    33    27    28   ar
    34     2    37    1
    35    33    37    2
    36    33    34    1
    37    29    28   ar
    38    29     5    1
    39    28    31    1
    40    37    36    1
    41    34     5    2
    42    34    35    1
    43    31    32    1
    44    36    35    2
    45    36    39    1
    46    35    38    1
    47    39    40    1
    48    40    41    1
    49    43    41   ar
    50    41    42   ar
