@<TRIPOS>MOLECULE
1cil_ETS_A_1.pdb
 19 20 0 0 0
SMALL
GASTEIGER

@<TRIPOS>ATOM
      1  S1        -6.1860    3.6410   15.7000 S.2   263  ETS263     -0.0492
      2  C2        -5.2590    2.2490   15.9490 C.ar  263  ETS263      0.1554
      3  C3        -3.9920    2.3040   15.3640 C.ar  263  ETS263      0.0256
      4  C4        -3.8200    3.5480   14.6840 C.ar  263  ETS263      0.0187
      5  C5        -2.6000    3.9180   13.9220 C.3   263  ETS263      0.0984
      6  C6        -2.5630    5.4380   13.6650 C.3   263  ETS263      0.0459
      7  C7        -3.8020    6.0150   13.0230 C.3   263  ETS263      0.1361
      8  S8        -5.0600    6.0120   14.2810 S.O2  263  ETS263      0.0124
      9  C9        -4.9690    4.3680   14.7880 C.ar  263  ETS263      0.1335
     10  S10       -5.8850    0.9410   16.8910 S.O2  263  ETS263      0.0992
     11  O11       -7.3100    0.9870   16.7290 O.2   263  ETS263     -0.1498
     12  O12       -5.3490    1.0410   18.2200 O.2   263  ETS263     -0.1498
     13  N13       -5.3270   -0.5200   16.1920 N.3   263  ETS263      0.0397
     14  N14       -2.6210    3.1750   12.6490 N.3   263  ETS263     -0.2149
     15  C15       -3.5160    7.4560   12.5630 C.3   263  ETS263      0.0258
     16  O16       -6.3310    6.2230   13.6410 O.2   263  ETS263     -0.1682
     17  O17       -4.6970    6.8100   15.4220 O.2   263  ETS263     -0.1682
     18  C18       -1.3550    3.2200   11.9060 C.3   263  ETS263      0.0891
     19  C19       -1.4350    2.1450   10.8200 C.3   263  ETS263      0.0203
@<TRIPOS>BOND
     1    19    18    1
     2    18    14    1
     3    15     7    1
     4    14     5    1
     5     7     6    1
     6     7     8    1
     7    16     8    2
     8     6     5    1
     9     5     4    1
    10     8     9    1
    11     8    17    2
    12     4     9   ar
    13     4     3   ar
    14     9     1   ar
    15     3     2   ar
    16     1     2   ar
    17     2    10    1
    18    13    10    1
    19    11    10    2
    20    10    12    2
