@<TRIPOS>MOLECULE
1cim_PTS_A_1.pdb
 17 18 0 0 0
SMALL
GASTEIGER

@<TRIPOS>ATOM
      1  S1        -6.1700    3.6520   15.4750 S.2   264  PTS264     -0.0492
      2  C2        -5.3260    2.2020   15.6860 C.ar  264  PTS264      0.1554
      3  C3        -3.9990    2.2880   15.2110 C.ar  264  PTS264      0.0256
      4  C4        -3.7300    3.5680   14.6270 C.ar  264  PTS264      0.0203
      5  C5        -2.4180    3.9510   13.9900 C.3   264  PTS264      0.1175
      6  C6        -2.3160    5.4870   13.7360 C.3   264  PTS264      0.0475
      7  C7        -3.5540    6.0630   13.0530 C.3   264  PTS264      0.1362
      8  S8        -4.8950    6.0150   14.2140 S.O2  264  PTS264      0.0124
      9  C9        -4.8820    4.3900   14.6570 C.ar  264  PTS264      0.1336
     10  S10       -5.8890    0.9210   16.7120 S.O2  264  PTS264      0.0992
     11  O11       -7.3130    0.7920   16.6570 O.2   264  PTS264     -0.1498
     12  O12       -5.3050    1.0540   18.0130 O.2   264  PTS264     -0.1498
     13  N13       -5.2850   -0.5820   16.0930 N.3   264  PTS264      0.0397
     14  N14       -2.2350    3.2710   12.6770 N.3   264  PTS264     -0.1280
     15  C15       -3.4120    7.5370   12.6810 C.3   264  PTS264      0.0258
     16  O16       -6.0970    6.3500   13.4880 O.2   264  PTS264     -0.1682
     17  O17       -4.5140    6.8310   15.3300 O.2   264  PTS264     -0.1682
@<TRIPOS>BOND
     1    14     5    1
     2    15     7    1
     3     7     6    1
     4     7     8    1
     5    16     8    2
     6     6     5    1
     7     5     4    1
     8     8     9    1
     9     8    17    2
    10     4     9   ar
    11     4     3   ar
    12     9     1   ar
    13     3     2   ar
    14     1     2   ar
    15     2    10    1
    16    13    10    1
    17    11    10    2
    18    10    12    2
