@<TRIPOS>MOLECULE
1cin_MTS_A_1.pdb
 18 19 0 0 0
SMALL
GASTEIGER

@<TRIPOS>ATOM
      1  S1        -6.1220    3.6020   15.5180 S.2   264  MTS264     -0.0492
      2  C2        -5.2970    2.1280   15.6510 C.ar  264  MTS264      0.1554
      3  C3        -4.0240    2.1630   15.0510 C.ar  264  MTS264      0.0256
      4  C4        -3.7950    3.4340   14.4350 C.ar  264  MTS264      0.0187
      5  C5        -2.5480    3.8070   13.7010 C.3   264  MTS264      0.0985
      6  C6        -2.4560    5.3470   13.4550 C.3   264  MTS264      0.0459
      7  C7        -3.7100    5.9440   12.8360 C.3   264  MTS264      0.1361
      8  S8        -4.9690    5.9070   14.0730 S.O2  264  MTS264      0.0124
      9  C9        -4.9220    4.2820   14.5570 C.ar  264  MTS264      0.1335
     10  S10       -5.8630    0.9030   16.7140 S.O2  264  MTS264      0.0992
     11  O11       -7.2960    0.8830   16.6510 O.2   264  MTS264     -0.1498
     12  O12       -5.2860    1.0350   18.0140 O.2   264  MTS264     -0.1498
     13  N13       -5.3260   -0.6530   16.1270 N.3   264  MTS264      0.0397
     14  N14       -2.5240    3.0910   12.4030 N.3   264  MTS264     -0.2134
     15  C15       -3.5370    7.4160   12.4500 C.3   264  MTS264      0.0258
     16  O16       -6.2160    6.2230   13.4320 O.2   264  MTS264     -0.1682
     17  O17       -4.5920    6.6940   15.2230 O.2   264  MTS264     -0.1682
     18  C18       -1.1720    3.2170   11.8390 C.3   264  MTS264      0.1078
@<TRIPOS>BOND
     1    18    14    1
     2    14     5    1
     3    15     7    1
     4     7     6    1
     5     7     8    1
     6    16     8    2
     7     6     5    1
     8     5     4    1
     9     8     9    1
    10     8    17    2
    11     4     9   ar
    12     4     3   ar
    13     9     1   ar
    14     3     2   ar
    15     1     2   ar
    16     2    10    1
    17    13    10    1
    18    11    10    2
    19    10    12    2
