@<TRIPOS>MOLECULE
1cio_HEM_A_1.pdb
 43 50 0 0 0
SMALL
GASTEIGER

@<TRIPOS>ATOM
      1 FE         35.3060    4.1740   10.2700 Fe    154  HEM154      0.0000
      2  CHA       37.9370    2.3320   11.4360 C.2   154  HEM154      0.0000
      3  CHB       37.2750    5.4470    7.7880 C.2   154  HEM154      0.0000
      4  CHC       32.7180    6.1740    9.2270 C.2   154  HEM154      0.0000
      5  CHD       33.3670    3.0570   12.8800 C.2   154  HEM154      0.0000
      6  NA        37.1940    3.9180    9.7110 N.ar  154  HEM154      0.0000
      7  C1A       38.1420    3.0910   10.2930 C.ar  154  HEM154      0.0000
      8  C2A       39.3610    3.1170    9.5230 C.ar  154  HEM154      0.0000
      9  C3A       39.1570    3.9490    8.4750 C.ar  154  HEM154      0.0000
     10  C4A       37.8280    4.5030    8.6280 C.ar  154  HEM154      0.0000
     11  CMA       40.0910    4.2570    7.3010 C.3   154  HEM154      0.0000
     12  CAA       40.6080    2.2570    9.7920 C.3   154  HEM154      0.0000
     13  CBA       40.7020    1.0150    8.8260 C.3   154  HEM154      0.0000
     14  CGA       39.4030    0.1970    8.8660 C.2   154  HEM154      0.0000
     15  O1A       39.1920   -0.4430    9.9050 O.co2 154  HEM154      0.0000
     16  O2A       38.6980    0.2960    7.8480 O.co2 154  HEM154      0.0000
     17  NB        35.0470    5.5430    8.8180 N.2   154  HEM154      0.0000
     18  C1B       35.9630    5.8900    7.8430 C.2   154  HEM154      0.0000
     19  C2B       35.3830    6.8330    6.9180 C.2   154  HEM154      0.0000
     20  C3B       34.1100    7.0760    7.3380 C.2   154  HEM154      0.0000
     21  C4B       33.8940    6.2410    8.5040 C.2   154  HEM154      0.0000
     22  CMB       36.1060    7.3940    5.6930 C.3   154  HEM154      0.0000
     23  CAB       33.0550    7.9090    6.8440 C.3   154  HEM154      0.0000
     24  CBB       33.3700    9.1500    6.1630 C.3   154  HEM154      0.0000
     25  NC        33.4160    4.5060   10.8910 N.ar  154  HEM154      0.0000
     26  C1C       32.5280    5.4320   10.3810 C.ar  154  HEM154      0.0000
     27  C2C       31.3550    5.5110   11.2240 C.ar  154  HEM154      0.0000
     28  C3C       31.5200    4.6150   12.2300 C.ar  154  HEM154      0.0000
     29  C4C       32.8210    4.0020   12.0280 C.ar  154  HEM154      0.0000
     30  CMC       30.1870    6.4700   11.0080 C.3   154  HEM154      0.0000
     31  CAC       30.7500    4.2000   13.3700 C.3   154  HEM154      0.0000
     32  CBC       29.6820    4.9750   13.8930 C.3   154  HEM154      0.0000
     33  ND        35.5860    2.9380   11.8240 N.2   154  HEM154      0.0000
     34  C1D       34.6740    2.5950   12.8070 C.2   154  HEM154      0.0000
     35  C2D       35.2860    1.7280   13.7770 C.2   154  HEM154      0.0000
     36  C3D       36.5860    1.5820   13.4090 C.2   154  HEM154      0.0000
     37  C4D       36.7610    2.3000   12.1680 C.2   154  HEM154      0.0000
     38  CMD       34.6020    1.1700   15.0210 C.3   154  HEM154      0.0000
     39  CAD       37.7150    0.9190   14.2110 C.3   154  HEM154      0.0000
     40  CBD       38.3300    1.8860   15.2770 C.3   154  HEM154      0.0000
     41  CGD       39.4320    1.2300   16.1110 C.2   154  HEM154      0.0000
     42  O1D       39.0700    0.7480   17.2020 O.co2 154  HEM154      0.0000
     43  O2D       40.5580    1.2300   15.5970 O.co2 154  HEM154      0.0000
@<TRIPOS>BOND
     1    22    19    1
     2    24    23    1
     3    23    20    1
     4    19    20    2
     5    19    18    1
     6    11     9    1
     7    20    21    1
     8     3    18    1
     9     3    10    2
    10    18    17    2
    11    16    14   ar
    12     9    10   ar
    13     9     8   ar
    14    21    17    1
    15    21     4    2
    16    10     6   ar
    17    17     1    1
    18    13    14    1
    19    13    12    1
    20    14    15   ar
    21     4    26    1
    22     8    12    1
    23     8     7   ar
    24     6     1    1
    25     6     7   ar
    26     1    25    1
    27     1    33    1
    28     7     2    2
    29    26    25   ar
    30    26    27   ar
    31    25    29   ar
    32    30    27    1
    33    27    28   ar
    34     2    37    1
    35    33    37    2
    36    33    34    1
    37    29    28   ar
    38    29     5    1
    39    37    36    1
    40    28    31    1
    41    34     5    2
    42    34    35    1
    43    31    32    1
    44    36    35    2
    45    36    39    1
    46    35    38    1
    47    39    40    1
    48    40    41    1
    49    43    41   ar
    50    41    42   ar
