@<TRIPOS>MOLECULE
1cip_GNP_A_1.pdb
 32 34 0 0 0
SMALL
GASTEIGER

@<TRIPOS>ATOM
      1  PG        36.8810  -32.3900   12.4390 P.3   355  GNP355      0.4884
      2  O1G       38.1440  -32.8270   13.1120 O.3   355  GNP355     -0.1240
      3  O2G       36.0140  -31.4800   13.1990 O.3   355  GNP355     -0.1240
      4  O3G       36.1900  -33.5620   11.8810 O.2   355  GNP355     -0.2331
      5  N3B       37.4320  -31.4970   11.1070 N.3   355  GNP355     -0.0163
      6  PB        36.4150  -30.6790   10.0490 P.3   355  GNP355      0.4669
      7  O1B       35.3920  -29.8840   10.7390 O.3   355  GNP355     -0.1253
      8  O2B       35.9190  -31.6360    9.0170 O.2   355  GNP355     -0.2351
      9  O3A       37.4040  -29.5910    9.3150 O.3   355  GNP355     -0.2360
     10  PA        37.3620  -28.0230    9.4560 P.3   355  GNP355      0.2220
     11  O1A       36.1100  -27.4400    8.9520 O.2   355  GNP355     -0.5170
     12  O2A       37.8300  -27.6780   10.8370 O.3   355  GNP355     -0.4370
     13  O5'       38.5380  -27.6370    8.4850 O.3   355  GNP355     -0.3111
     14  C5'       39.9390  -27.9170    8.7860 C.3   355  GNP355      0.1813
     15  C4'       40.8620  -26.8290    8.2300 C.3   355  GNP355      0.1799
     16  O4'       40.7610  -26.8390    6.7420 O.3   355  GNP355     -0.3326
     17  C3'       40.4620  -25.4260    8.7140 C.3   355  GNP355      0.2158
     18  O3'       41.6890  -24.6890    8.9130 O.3   355  GNP355     -0.2175
     19  C2'       39.6490  -24.8240    7.4950 C.3   355  GNP355      0.2310
     20  O2'       39.8130  -23.4070    7.4010 O.3   355  GNP355     -0.2158
     21  C1'       40.4040  -25.5140    6.3260 C.3   355  GNP355      0.2293
     22  N9        39.5180  -25.6450    5.1630 N.pl3 355  GNP355     -0.2354
     23  C8        38.2730  -26.2320    5.0450 C.3   355  GNP355      0.2246
     24  N7        37.7840  -26.3430    3.8340 N.2   355  GNP355     -0.2322
     25  C5        38.7790  -25.6980    3.0740 C.2   355  GNP355      0.2182
     26  C6        38.8660  -25.5160    1.6250 C.1   355  GNP355      0.2372
     27  O6        38.0330  -25.8660    0.7850 O.2   355  GNP355     -0.2069
     28  N1        40.0600  -24.8730    1.2620 N.2   355  GNP355     -0.2485
     29  C2        41.0780  -24.4580    2.1100 C.1   355  GNP355      0.2531
     30  N2        42.1510  -23.8680    1.5980 N.pl3 355  GNP355     -0.0226
     31  N3        41.0480  -24.7200    3.4410 N.2   355  GNP355     -0.3074
     32  C4        39.8730  -25.3200    3.8520 C.2   355  GNP355      0.2300
@<TRIPOS>BOND
     1    27    26    2
     2    28    26    2
     3    28    29    2
     4    30    29    1
     5    26    25    1
     6    29    31    2
     7    25    24    2
     8    25    32    1
     9    31    32    2
    10    24    23    1
    11    32    22    1
    12    23    22    1
    13    22    21    1
    14    21    16    1
    15    21    19    1
    16    16    15    1
    17    20    19    1
    18    19    17    1
    19    15    17    1
    20    15    14    1
    21    13    14    1
    22    13    10    1
    23    17    18    1
    24    11    10    2
    25     8     6    2
    26     9    10    1
    27     9     6    1
    28    10    12    1
    29     6     7    1
    30     6     5    1
    31     5     1    1
    32     4     1    2
    33     1     2    1
    34     1     3    1
