@<TRIPOS>MOLECULE
1civ_NAP_A_1.pdb
 48 52 0 0 0
SMALL
GASTEIGER

@<TRIPOS>ATOM
      1  PA         6.7060  118.2900   44.7940 P.3   386  NAP386      0.2189
      2  O1A        5.5440  119.2040   44.7210 O.2   386  NAP386     -0.5170
      3  O2A        8.0380  118.9550   44.8130 O.3   386  NAP386     -0.4371
      4  O5B        6.6090  117.3180   46.0890 O.3   386  NAP386     -0.3112
      5  C5B        7.5460  116.2260   46.2790 C.3   386  NAP386      0.1813
      6  C4B        7.3840  115.6210   47.6640 C.3   386  NAP386      0.1820
      7  O4B        8.0730  114.4120   48.0420 O.3   386  NAP386     -0.3136
      8  C3B        7.7790  116.6070   48.7220 C.3   386  NAP386      0.2157
      9  O3B        6.6640  117.4680   48.9150 O.3   386  NAP386     -0.2175
     10  C2B        8.0770  115.7140   49.9240 C.3   386  NAP386      0.2314
     11  O2B        7.4010  115.9180   51.1630 O.3   386  NAP386     -0.2630
     12  C1B        7.6700  114.3660   49.4160 C.3   386  NAP386      0.3158
     13  N9A        7.8870  113.2410   50.3620 N.pl3 386  NAP386     -0.1439
     14  C8A        8.9490  112.4220   50.4790 C.3   386  NAP386      0.3377
     15  N7A        8.6410  111.3510   51.2270 N.2   386  NAP386     -0.2095
     16  C5A        7.3660  111.5460   51.5690 C.2   386  NAP386      0.2526
     17  C6A        6.6210  110.7510   52.4410 C.2   386  NAP386      0.4393
     18  N6A        7.2430  109.9470   53.2910 N.pl3 386  NAP386      0.2180
     19  N1A        5.3600  111.1680   52.7040 N.2   386  NAP386      0.0021
     20  C2A        4.8810  112.3130   52.2280 C.3   386  NAP386      0.5254
     21  N3A        5.6210  113.0860   51.4390 N.2   386  NAP386     -0.0055
     22  C4A        6.8740  112.7280   51.0700 C.2   386  NAP386      0.3518
     23  O3         6.6420  117.2340   43.5800 O.3   386  NAP386     -0.2703
     24  PN         5.5310  116.8810   42.4760 P.3   386  NAP386      0.2189
     25  O1N        6.0870  117.0930   41.1080 O.2   386  NAP386     -0.5170
     26  O2N        4.3810  117.6970   42.9210 O.3   386  NAP386     -0.4371
     27  O5D        5.1510  115.3100   42.6610 O.3   386  NAP386     -0.3112
     28  C5D        6.1370  114.3010   42.9720 C.3   386  NAP386      0.1813
     29  C4D        5.8360  112.9240   42.3750 C.3   386  NAP386      0.1799
     30  O4D        4.5690  112.9280   41.6750 O.3   386  NAP386     -0.3327
     31  C3D        6.9000  112.5620   41.3540 C.3   386  NAP386      0.2158
     32  O3D        7.3120  111.1900   41.3740 O.3   386  NAP386     -0.2175
     33  C2D        6.2690  113.0360   40.0480 C.3   386  NAP386      0.2309
     34  O2D        6.8300  112.3850   38.9030 O.3   386  NAP386     -0.2158
     35  C1D        4.7930  112.7440   40.2640 C.3   386  NAP386      0.2263
     36  N1N        3.9030  113.5840   39.4340 N.pl3 386  NAP386     -0.2787
     37  C2N        2.8630  112.9610   38.7400 C.3   386  NAP386      0.1244
     38  C3N        2.0370  113.6970   37.8980 C.2   386  NAP386      0.0544
     39  C7N        0.8780  113.0070   37.1630 C.2   386  NAP386      0.2818
     40  O7N        0.4740  113.4320   36.0750 O.2   386  NAP386     -0.2670
     41  N7N        0.4930  111.8330   37.6560 N.am  386  NAP386     -0.0839
     42  C4N        2.2690  115.0640   37.7410 C.2   386  NAP386      0.0033
     43  C5N        3.3030  115.6960   38.4310 C.2   386  NAP386      0.0157
     44  C6N        4.1190  114.9620   39.2880 C.2   386  NAP386      0.0633
     45  P2B        6.9530  117.3410   51.7480 P.3   386  NAP386      0.5328
     46  O1X        7.8930  118.2990   51.1010 O.2   386  NAP386     -0.2224
     47  O2X        7.1300  117.1470   53.2060 O.3   386  NAP386     -0.1145
     48  O3X        5.5400  117.5350   51.3470 O.3   386  NAP386     -0.1145
@<TRIPOS>BOND
     1    40    39    2
     2    39    41   am
     3    39    38    1
     4    42    38    2
     5    42    43    1
     6    38    37    1
     7    43    44    2
     8    37    36    1
     9    34    33    1
    10    44    36    1
    11    36    35    1
    12    33    35    1
    13    33    31    1
    14    35    30    1
    15    25    24    2
    16    31    32    1
    17    31    29    1
    18    30    29    1
    19    29    28    1
    20    24    27    1
    21    24    26    1
    22    24    23    1
    23    27    28    1
    24    23     1    1
    25     2     1    2
    26     1     3    1
    27     1     4    1
    28     4     5    1
    29     5     6    1
    30     6     7    1
    31     6     8    1
    32     7    12    1
    33     8     9    1
    34     8    10    1
    35    12    10    1
    36    12    13    1
    37    10    11    1
    38    13    14    1
    39    13    22    1
    40    14    15    1
    41    22    21    2
    42    22    16    1
    43    46    45    2
    44    11    45    1
    45    15    16    2
    46    48    45    1
    47    21    20    1
    48    16    17    1
    49    45    47    1
    50    20    19    1
    51    17    19    2
    52    17    18    1
