@<TRIPOS>MOLECULE
1ciw_GAL_A_1.pdb
 11 11 0 0 0
SMALL
GASTEIGER

@<TRIPOS>ATOM
      1  C1        55.0370   26.5590   63.5650 C.3   401  GAL401      0.1777
      2  C2        53.6180   26.4020   63.1060 C.3   401  GAL401      0.2141
      3  C3        53.1970   24.9580   63.0290 C.3   401  GAL401      0.2173
      4  C4        54.1950   24.1760   62.1230 C.3   401  GAL401      0.2142
      5  C5        55.5650   24.3440   62.7680 C.3   401  GAL401      0.1810
      6  C6        56.6570   23.5850   62.1060 C.3   401  GAL401      0.2141
      7  O2        52.7690   27.0120   64.0350 O.3   401  GAL401     -0.2176
      8  O3        51.8800   24.8550   62.5870 O.3   401  GAL401     -0.2175
      9  O4        54.1940   24.5890   60.7680 O.3   401  GAL401     -0.2176
     10  O5        55.8580   25.7360   62.7410 O.3   401  GAL401     -0.3481
     11  O6        57.8860   23.7200   62.8380 O.3   401  GAL401     -0.2176
@<TRIPOS>BOND
     1     9     4    1
     2     6     5    1
     3     6    11    1
     4     4     5    1
     5     4     3    1
     6     8     3    1
     7    10     5    1
     8    10     1    1
     9     3     2    1
    10     2     1    1
    11     2     7    1
