@<TRIPOS>MOLECULE
1ciz_DPS_A_1.pdb
 36 40 0 0 0
SMALL
GASTEIGER

@<TRIPOS>ATOM
      1  N1        25.4560   51.1780   -2.3930 N.pl3 307  DPS307     -0.3075
      2  C2        27.6610   50.2570   -1.9370 C.ar  307  DPS307      0.0159
      3  C3        28.6140   49.7750   -1.0260 C.ar  307  DPS307      0.0212
      4  C4        28.2770   49.7360    0.3420 C.ar  307  DPS307      0.1236
      5  C5        26.9820   50.0630    0.7910 C.ar  307  DPS307      0.0212
      6  N7        32.5770   44.3250    0.6390 N.2   307  DPS307     -0.2482
      7  C8        29.0070   46.6580    2.0550 C.3   307  DPS307      0.2045
      8  C10       20.9740   54.5130   -6.9150 C.ar  307  DPS307     -0.0000
      9  C11       23.6950   52.6150   -4.2130 C.3   307  DPS307      0.0257
     10  C12       21.2610   55.1230   -5.6720 C.ar  307  DPS307     -0.0003
     11  O1        28.9740   49.5700    2.8350 O.2   307  DPS307     -0.1516
     12  O2        30.7430   49.9880    1.1760 O.2   307  DPS307     -0.1516
     13  C1        26.3820   50.6810   -1.4920 C.ar  307  DPS307      0.0479
     14  C6        26.0370   50.5360   -0.1270 C.ar  307  DPS307      0.0159
     15  S         29.5300   49.3390    1.5320 S.O2  307  DPS307      0.0773
     16  C7        25.0140   52.0770   -4.7440 C.3   307  DPS307      0.0258
     17  C13       23.4350   52.6960   -2.7220 C.3   307  DPS307      0.0258
     18  C15       24.1100   51.5760   -1.9360 C.3   307  DPS307      0.0911
     19  C18       25.7170   51.0580   -3.8440 C.3   307  DPS307      0.0911
     20  C14       22.1510   54.4840   -4.7830 C.ar  307  DPS307     -0.0043
     21  C16       22.7440   53.2500   -5.1440 C.ar  307  DPS307     -0.0224
     22  C17       22.4440   52.6430   -6.3870 C.ar  307  DPS307     -0.0043
     23  C19       21.5540   53.2750   -7.2800 C.ar  307  DPS307     -0.0003
     24  N         29.9310   47.6640    1.5190 N.3   307  DPS307     -0.0674
     25  C20       29.7920   45.5460    2.7920 C.3   307  DPS307      0.0589
     26  C9        28.1190   46.1410    0.9550 C.2   307  DPS307      0.3825
     27  O3        26.8490   45.7360    1.2070 O.co2 307  DPS307     -0.2440
     28  O4        28.5190   46.0620   -0.1600 O.co2 307  DPS307     -0.2440
     29  C21       30.4940   41.4500   -0.6950 C.2   307  DPS307     -0.0198
     30  C22       31.6400   42.2650   -0.5800 C.3   307  DPS307      0.0717
     31  C23       31.6280   43.3590    0.3160 C.2   307  DPS307      0.0631
     32  C24       30.4570   43.6210    1.0980 C.2   307  DPS307      0.0115
     33  C25       29.3150   42.7940    0.9730 C.2   307  DPS307      0.0006
     34  C26       29.3390   41.7040    0.0760 C.2   307  DPS307     -0.0042
     35  C27       32.0520   45.1740    1.5630 C.2   307  DPS307      0.0942
     36  C28       30.7380   44.8020    1.8830 C.2   307  DPS307      0.0001
@<TRIPOS>BOND
     1    23     8   ar
     2    23    22   ar
     3     8    10   ar
     4    22    21   ar
     5    10    20   ar
     6    21    20   ar
     7    21     9    1
     8    16     9    1
     9    16    19    1
    10     9    17    1
    11    19     1    1
    12    17    18    1
    13     1    18    1
    14     1    13    1
    15     2    13   ar
    16     2     3   ar
    17    13    14   ar
    18     3     4   ar
    19    29    30    1
    20    29    34    2
    21    30    31    1
    22    28    26   ar
    23    14     5   ar
    24    34    33    1
    25    31     6    2
    26    31    32    1
    27     4     5   ar
    28     4    15    1
    29     6    35    1
    30    26    27   ar
    31    26     7    1
    32    33    32    2
    33    32    36    1
    34    12    15    2
    35    24    15    1
    36    24     7    1
    37    15    11    2
    38    35    36    2
    39    36    25    1
    40     7    25    1
