@<TRIPOS>MOLECULE
1cj0_PLP_A_1.pdb
 15 15 0 0 0
SMALL
GASTEIGER

@<TRIPOS>ATOM
      1  N1        53.5250   81.0660   72.4040 N.ar  2291  PLP2291    -0.2452
      2  C2        53.9600   82.2950   72.6100 C.ar  2291  PLP2291     0.0978
      3  C2A       55.3810   82.5350   72.3630 C.3   2291  PLP2291     0.0555
      4  C3        53.0070   83.2510   73.0610 C.ar  2291  PLP2291     0.2049
      5  O3        53.4100   84.4650   73.2870 O.3   2291  PLP2291    -0.2857
      6  C4        51.6710   82.8460   73.2990 C.ar  2291  PLP2291     0.0182
      7  C4A       50.7300   83.8480   73.7550 C.3   2291  PLP2291     0.0342
      8  C5        51.2760   81.5440   73.1190 C.ar  2291  PLP2291     0.0261
      9  C6        52.2550   80.6510   72.6270 C.ar  2291  PLP2291     0.0965
     10  C5A       50.0280   80.8630   73.5220 C.3   2291  PLP2291     0.1815
     11  O4P       48.7810   81.1540   72.9570 O.3   2291  PLP2291    -0.2653
     12  P         47.4190   80.8640   73.6280 P.3   2291  PLP2291     0.5329
     13  O1P       47.5660   79.4510   74.0890 O.3   2291  PLP2291    -0.1145
     14  O2P       47.3850   81.9490   74.7400 O.3   2291  PLP2291    -0.1145
     15  O3P       46.2000   81.0400   72.7920 O.2   2291  PLP2291    -0.2224
@<TRIPOS>BOND
     1     3     2    1
     2     1     2   ar
     3     1     9   ar
     4     2     4   ar
     5     9     8   ar
     6    15    12    2
     7    11    10    1
     8    11    12    1
     9     4     5    1
    10     4     6   ar
    11     8     6   ar
    12     8    10    1
    13     6     7    1
    14    12    13    1
    15    12    14    1
