@<TRIPOS>MOLECULE
1cj1_C78_A_1.pdb
 46 49 0 0 0
SMALL
GASTEIGER

@<TRIPOS>ATOM
      1  N1        24.9600  -12.2550   30.5780 N.pl3 155  C78155     -0.1281
      2  C2        25.8700  -13.1800   30.2670 C.ar  155  C78155      0.0889
      3  C3        25.4590  -14.4040   29.8100 C.ar  155  C78155      0.0180
      4  C4        26.3660  -15.3050   29.4420 C.ar  155  C78155      0.0012
      5  C5        27.6910  -14.9920   29.5290 C.ar  155  C78155     -0.0006
      6  C7        28.1470  -13.7820   29.9860 C.ar  155  C78155      0.0227
      7  C6        27.2120  -12.8770   30.3570 C.ar  155  C78155      0.0174
      8  C8        29.5850  -13.6360   30.4370 C.3   155  C78155      0.2368
      9  O9        29.8520  -12.3140   30.9450 O.3   155  C78155     -0.4285
     10  C10       30.1630  -11.3550   29.9670 C.2   155  C78155      0.4219
     11  O11       30.1270  -11.6070   28.7500 O.2   155  C78155     -0.2245
     12  N12       30.4330  -10.1540   30.4600 N.am  155  C78155     -0.1607
     13  C13       30.8020   -9.0790   29.5820 C.3   155  C78155      0.1804
     14  C14       30.0270   -7.8460   29.9340 C.3   155  C78155      0.0575
     15  C15       28.5880   -8.1230   29.7910 C.ar  155  C78155     -0.0198
     16  C16       27.9760   -8.0820   28.5410 C.ar  155  C78155     -0.0011
     17  C17       26.6140   -8.5330   28.3580 C.ar  155  C78155      0.0371
     18  C18       27.8530   -8.5770   30.8510 C.ar  155  C78155     -0.0011
     19  C19       26.5360   -9.0100   30.6750 C.ar  155  C78155      0.0371
     20  C20       25.9180   -8.9880   29.4320 C.ar  155  C78155      0.1490
     21  C21       32.2860   -8.8510   29.8040 C.2   155  C78155      0.2620
     22  O22       32.7980   -8.9840   30.9500 O.2   155  C78155     -0.2715
     23  O23       24.5100   -9.4220   29.3640 O.3   155  C78155     -0.3998
     24  P24       23.8390   -9.8610   27.9260 P.3   155  C78155      0.5887
     25  O25       23.6440   -8.6090   27.0600 O.2   155  C78155     -0.2114
     26  O26       22.4820  -10.5270   28.1180 O.3   155  C78155     -0.1039
     27  O27       24.7900  -10.7800   27.2470 O.3   155  C78155     -0.1039
     28  N28       32.9790   -8.5400   28.7000 N.am  155  C78155     -0.1985
     29  C29       34.4200   -8.3100   28.7230 C.3   155  C78155      0.1483
     30  C30       35.0520   -7.7300   27.5120 C.3   155  C78155      0.0289
     31  C31       34.9590   -8.6520   26.3390 C.3   155  C78155      0.0022
     32  C32       35.3910  -10.0650   26.7470 C.3   155  C78155      0.0001
     33  C33       34.7290  -10.5290   28.0340 C.3   155  C78155      0.0022
     34  C34       34.9910   -9.5880   29.1330 C.3   155  C78155      0.0289
     35  C35       34.7150   -7.3260   29.7720 C.2   155  C78155      0.2594
     36  O36       35.6780   -7.6200   30.4430 O.2   155  C78155     -0.2716
     37  N37       33.9680   -6.2400   29.9580 N.am  155  C78155     -0.2008
     38  C38       34.2740   -5.3080   30.9960 C.3   155  C78155      0.1256
     39  C39       33.6070   -5.9380   32.1370 C.2   155  C78155     -0.0090
     40  C40       33.0070   -5.1580   33.0500 C.2   155  C78155     -0.0290
     41  C41       32.9520   -3.6430   32.9820 C.3   155  C78155      0.0263
     42  C42       33.8090   -3.0710   31.9380 C.3   155  C78155      0.0159
     43  C43       33.8330   -3.8760   30.6730 C.3   155  C78155      0.1042
     44  C44       32.4460   -3.7870   30.0560 C.2   155  C78155      0.2623
     45  N45       31.9450   -2.5670   29.9830 N.am  155  C78155     -0.0877
     46  O46       31.8390   -4.7880   29.6380 O.2   155  C78155     -0.2716
@<TRIPOS>BOND
     1    31    32    1
     2    31    30    1
     3    32    33    1
     4    25    24    2
     5    27    24    1
     6    30    29    1
     7    24    26    1
     8    24    23    1
     9    33    34    1
    10    17    16   ar
    11    17    20   ar
    12    16    15   ar
    13    28    29    1
    14    28    21   am
    15    29    34    1
    16    29    35    1
    17    11    10    2
    18    23    20    1
    19    20    19   ar
    20     4     5   ar
    21     4     3   ar
    22     5     6   ar
    23    13    21    1
    24    13    14    1
    25    13    12    1
    26    46    44    2
    27    35    37   am
    28    35    36    2
    29    15    14    1
    30    15    18   ar
    31    21    22    2
    32     3     2   ar
    33    37    38    1
    34    10    12   am
    35    10     9    1
    36    45    44   am
    37     6     7   ar
    38     6     8    1
    39    44    43    1
    40     2     7   ar
    41     2     1    1
    42     8     9    1
    43    43    38    1
    44    43    42    1
    45    19    18   ar
    46    38    39    1
    47    42    41    1
    48    39    40    2
    49    41    40    1
