@<TRIPOS>MOLECULE
1cja_AMP_A_1.pdb
 23 25 0 0 0
SMALL
GASTEIGER

@<TRIPOS>ATOM
      1  P          9.5500   79.8670   26.1400 P.3   425  AMP425      0.5327
      2  O1P       10.7110   79.0550   26.5400 O.3   425  AMP425     -0.1145
      3  O2P        9.7980   81.1710   25.5140 O.2   425  AMP425     -0.2224
      4  O3P        8.5020   80.3330   27.2570 O.3   425  AMP425     -0.1145
      5  O5'        8.6980   79.0040   25.2280 O.3   425  AMP425     -0.2675
      6  C5'        8.0860   77.6830   25.6980 C.3   425  AMP425      0.1860
      7  C4'        8.0290   76.6820   24.5620 C.3   425  AMP425      0.1823
      8  O4'        7.3230   77.3290   23.4690 O.3   425  AMP425     -0.3135
      9  C3'        9.4470   76.3380   23.9730 C.3   425  AMP425      0.2184
     10  O3'       10.1060   75.1800   24.4960 O.3   425  AMP425     -0.2174
     11  C2'        9.1520   76.1060   22.5530 C.3   425  AMP425      0.2570
     12  O2'        8.3540   74.9540   22.2720 O.3   425  AMP425     -0.2130
     13  C1'        8.2900   77.3210   22.4660 C.3   425  AMP425      0.3186
     14  N9         8.5000   78.3730   21.5310 N.pl3 425  AMP425     -0.1439
     15  C8         9.0880   79.5880   21.7450 C.3   425  AMP425      0.3377
     16  N7         9.1920   80.2650   20.6380 N.2   425  AMP425     -0.2095
     17  C5         8.6450   79.4700   19.6240 C.2   425  AMP425      0.2526
     18  C6         8.4580   79.6180   18.2430 C.2   425  AMP425      0.4393
     19  N6         8.8330   80.7170   17.5660 N.pl3 425  AMP425      0.2180
     20  N1         7.8740   78.5940   17.5950 N.2   425  AMP425      0.0021
     21  C2         7.5030   77.5160   18.2420 C.3   425  AMP425      0.5254
     22  N3         7.6190   77.2420   19.5420 N.2   425  AMP425     -0.0055
     23  C4         8.2090   78.2720   20.2110 C.2   425  AMP425      0.3518
@<TRIPOS>BOND
     1    19    18    1
     2    20    21    1
     3    20    18    2
     4    21    22    1
     5    18    17    1
     6    22    23    2
     7    17    23    1
     8    17    16    2
     9    23    14    1
    10    16    15    1
    11    14    15    1
    12    14    13    1
    13    12    11    1
    14    13    11    1
    15    13     8    1
    16    11     9    1
    17     8     7    1
    18     9    10    1
    19     9     7    1
    20     7     6    1
    21     5     6    1
    22     5     1    1
    23     3     1    2
    24     1     2    1
    25     1     4    1
