@<TRIPOS>MOLECULE
1cjb_IRP_A_1.pdb
 23 25 0 0 0
SMALL
GASTEIGER

@<TRIPOS>ATOM
      1  P         65.9620   35.5350   71.6380 P.3   300  IRP300      0.5326
      2  O1P       66.2470   36.9340   71.2560 O.3   300  IRP300     -0.1145
      3  O2P       65.5980   34.6820   70.5050 O.2   300  IRP300     -0.2224
      4  O3P       67.0960   35.0010   72.4210 O.3   300  IRP300     -0.1145
      5  O5'       64.8320   35.5520   72.7030 O.3   300  IRP300     -0.2687
      6  C5'       63.8970   36.5830   72.9700 C.3   300  IRP300      0.1737
      7  C4'       62.6900   35.9210   73.5160 C.3   300  IRP300      0.1362
      8  N4'       63.0200   35.1290   74.6580 N.3   300  IRP300     -0.2084
      9  C3'       61.6790   36.9520   73.9040 C.3   300  IRP300      0.2022
     10  O3'       60.4650   36.6030   73.2450 O.3   300  IRP300     -0.2188
     11  C2'       61.6180   36.8290   75.3950 C.3   300  IRP300      0.2036
     12  O2'       60.2770   36.6790   75.8540 O.3   300  IRP300     -0.2185
     13  C1'       62.4760   35.6280   75.8690 C.3   300  IRP300      0.1309
     14  C9        63.6440   36.1500   76.7100 C.2   300  IRP300      0.0348
     15  C8        64.9500   36.3640   76.2500 C.2   300  IRP300      0.0984
     16  N7        65.7800   36.8240   77.1320 N.2   300  IRP300     -0.2310
     17  C4        63.7010   36.5370   78.0650 C.2   300  IRP300      0.1059
     18  O6        66.5390   37.8130   79.9150 O.2   300  IRP300     -0.2206
     19  C6        65.4150   37.4180   79.5840 C.1   300  IRP300      0.1716
     20  N1        64.3620   37.4010   80.5190 N.2   300  IRP300     -0.1739
     21  C2        63.0520   36.9740   80.2400 C.3   300  IRP300      0.2626
     22  N3        62.6750   36.5290   79.0020 N.2   300  IRP300     -0.2415
     23  C5        65.0200   36.9480   78.2890 C.2   300  IRP300      0.1804
@<TRIPOS>BOND
     1     3     1    2
     2     2     1    1
     3     1     4    1
     4     1     5    1
     5     5     6    1
     6     6     7    1
     7    10     9    1
     8     7     9    1
     9     7     8    1
    10     9    11    1
    11     8    13    1
    12    11    12    1
    13    11    13    1
    14    13    14    1
    15    15    14    2
    16    15    16    1
    17    14    17    1
    18    16    23    2
    19    17    23    1
    20    17    22    2
    21    23    19    1
    22    22    21    1
    23    19    18    2
    24    19    20    2
    25    21    20    1
