@<TRIPOS>MOLECULE
1cjf_HOM_C_1.pdb
 16 17 0 0 0
SMALL
GASTEIGER

@<TRIPOS>ATOM
      1  CA        86.1940   -5.8500   65.2170 C.ar    1  HOM1        0.0578
      2  CA2       84.6540   -5.8330   65.3540 C.ar    1  HOM1        0.3418
      3  CA3       84.4280   -7.0280   63.1890 C.ar    1  HOM1        0.1515
      4  CA4       83.6060   -7.6100   62.1980 C.ar    1  HOM1        0.0796
      5  CA5       84.1670   -8.2080   61.0520 C.ar    1  HOM1        0.1988
      6  CA6       85.5770   -8.2320   60.8760 C.ar    1  HOM1        0.0422
      7  CA7       86.4210   -7.6540   61.8600 C.ar    1  HOM1        0.0060
      8  CA8       85.8540   -7.0480   63.0270 C.ar    1  HOM1        0.0308
      9  CA9       86.7660   -6.4190   64.1170 C.ar    1  HOM1       -0.0162
     10  CB        87.0540   -5.2170   66.3570 C.3     1  HOM1        0.1047
     11  CB7       87.1390   -3.6720   66.3110 C.2     1  HOM1        0.2123
     12  CB8       88.3120   -6.4540   63.9390 C.3     1  HOM1        0.0310
     13  OA2       84.1500   -5.3180   66.3350 O.2     1  HOM1       -0.2448
     14  OA3       83.7680   -6.4190   64.3540 O.2     1  HOM1       -0.4212
     15  OA4       83.2870   -8.7950   60.0600 O.3     1  HOM1       -0.2865
     16  OA1       86.7010   -3.0250   65.3520 O.2     1  HOM1       -0.2879
@<TRIPOS>BOND
     1    15     5    1
     2     6     5   ar
     3     6     7   ar
     4     5     4   ar
     5     7     8   ar
     6     4     3   ar
     7     8     3   ar
     8     8     9   ar
     9     3    14   ar
    10    12     9    1
    11     9     1   ar
    12    14     2   ar
    13     1     2   ar
    14     1    10    1
    15    16    11    2
    16     2    13    2
    17    11    10    1
