@<TRIPOS>MOLECULE
1cjk_FOK_A_1.pdb
 29 31 0 0 0
SMALL
GASTEIGER

@<TRIPOS>ATOM
      1  C1        42.7580  -12.6190   53.2970 C.3   701  FOK701      0.1547
      2  O2        42.4480  -13.7880   52.5010 O.3   701  FOK701     -0.2231
      3  C2        43.7830  -13.0580   54.3530 C.3   701  FOK701      0.0330
      4  C3        45.1190  -13.4530   53.7530 C.3   701  FOK701      0.0027
      5  C4        45.7730  -12.2810   52.9400 C.3   701  FOK701      0.0027
      6  C5        44.7340  -11.8340   51.8760 C.3   701  FOK701      0.0393
      7  C6        45.2920  -10.8430   50.8410 C.3   701  FOK701      0.1943
      8  O3        45.7090   -9.6150   51.4300 O.3   701  FOK701     -0.2192
      9  C7        44.3140  -10.6090   49.6960 C.3   701  FOK701      0.2260
     10  O4        44.8160   -9.5340   48.8300 O.3   701  FOK701     -0.4470
     11  C8        42.9010  -10.1770   50.0940 C.3   701  FOK701      0.1639
     12  O1        42.1490  -10.2810   48.8700 O.3   701  FOK701     -0.3524
     13  C9        42.4140  -11.2940   51.0900 C.3   701  FOK701      0.2051
     14  O6        42.4520  -12.5030   50.2890 O.3   701  FOK701     -0.2155
     15  C10       43.2950  -11.4690   52.3930 C.3   701  FOK701      0.0652
     16  C11       40.9040  -11.0780   51.2620 C.2   701  FOK701      0.1831
     17  O7        40.3690  -10.8620   52.3420 O.2   701  FOK701     -0.2933
     18  C12       40.1250  -11.1690   49.9610 C.3   701  FOK701      0.0985
     19  C13       40.7030  -10.2450   48.8700 C.3   701  FOK701      0.1183
     20  C14       40.3390  -10.8590   47.5540 C.2   701  FOK701      0.0006
     21  C15       40.8160  -11.8270   46.9710 C.2   701  FOK701     -0.0025
     22  C16       40.1060   -8.8720   48.9480 C.3   701  FOK701      0.0346
     23  C17       42.8600   -8.7300   50.6060 C.3   701  FOK701      0.0365
     24  C18       47.0060  -12.8580   52.2230 C.3   701  FOK701      0.0001
     25  C19       46.3010  -11.2380   53.9560 C.3   701  FOK701      0.0001
     26  C20       43.2390  -10.2170   53.3010 C.3   701  FOK701      0.0056
     27  C21       45.9780   -9.7300   48.1380 C.2   701  FOK701      0.3176
     28  O5        46.2660  -10.7880   47.6190 O.2   701  FOK701     -0.2501
     29  C22       46.8250   -8.4560   48.1070 C.3   701  FOK701      0.1212
@<TRIPOS>BOND
     1    21    20    2
     2    20    19    1
     3    28    27    2
     4    29    27    1
     5    27    10    1
     6    10     9    1
     7    12    19    1
     8    12    11    1
     9    19    22    1
    10    19    18    1
    11     9    11    1
    12     9     7    1
    13    18    16    1
    14    11    23    1
    15    11    13    1
    16    14    13    1
    17     7     8    1
    18     7     6    1
    19    13    16    1
    20    13    15    1
    21    16    17    2
    22     6    15    1
    23     6     5    1
    24    24     5    1
    25    15     1    1
    26    15    26    1
    27     2     1    1
    28     5     4    1
    29     5    25    1
    30     1     3    1
    31     4     3    1
