@<TRIPOS>MOLECULE
1cjk_GSP_C_1.pdb
 32 34 0 0 0
SMALL
GASTEIGER

@<TRIPOS>ATOM
      1  PG        23.6850    3.1020   29.3570 P.3   405  GSP405      0.4340
      2  O3B       22.5580    3.3760   28.3740 O.3   405  GSP405     -0.2405
      3  S1G       25.1110    4.3320   29.2110 S.3   405  GSP405      0.0416
      4  O2G       23.1950    3.3860   30.7370 O.3   405  GSP405     -0.1305
      5  O3G       24.2430    1.7590   29.0490 O.2   405  GSP405     -0.2423
      6  PB        21.2690    2.6610   28.0590 P.3   405  GSP405      0.2262
      7  O1B       21.5540    1.5450   27.1260 O.2   405  GSP405     -0.5168
      8  O2B       20.5740    2.3860   29.3280 O.3   405  GSP405     -0.4369
      9  PA        19.2770    4.4600   27.7420 P.3   405  GSP405      0.2189
     10  O1A       18.2850    3.4570   28.2030 O.2   405  GSP405     -0.5170
     11  O2A       19.6820    5.5780   28.6330 O.3   405  GSP405     -0.4371
     12  O3A       20.5100    3.7250   27.3250 O.3   405  GSP405     -0.2701
     13  O5'       18.7250    5.1060   26.3920 O.3   405  GSP405     -0.3112
     14  C5'       19.4370    6.1770   25.7470 C.3   405  GSP405      0.1813
     15  C4'       18.4820    7.1650   25.1140 C.3   405  GSP405      0.1799
     16  O4'       17.8390    6.6070   23.9440 O.3   405  GSP405     -0.3326
     17  C3'       17.3510    7.6330   26.0190 C.3   405  GSP405      0.2158
     18  O3'       17.1410    9.0330   25.8130 O.3   405  GSP405     -0.2175
     19  C2'       16.1680    6.8310   25.5120 C.3   405  GSP405      0.2310
     20  O2'       14.9330    7.4540   25.7300 O.3   405  GSP405     -0.2158
     21  C1'       16.4390    6.7630   24.0400 C.3   405  GSP405      0.2293
     22  N9        15.8050    5.6310   23.3710 N.pl3 405  GSP405     -0.2354
     23  C8        15.8690    4.3150   23.7410 C.3   405  GSP405      0.2246
     24  N7        15.1800    3.5320   22.9540 N.2   405  GSP405     -0.2322
     25  C5        14.6290    4.3840   22.0080 C.2   405  GSP405      0.2182
     26  C6        13.7830    4.1090   20.9130 C.1   405  GSP405      0.2372
     27  O6        13.3390    3.0300   20.5480 O.2   405  GSP405     -0.2069
     28  N1        13.4560    5.2520   20.2140 N.2   405  GSP405     -0.2485
     29  C2        13.8890    6.5060   20.5200 C.1   405  GSP405      0.2531
     30  N2        13.4650    7.5130   19.7080 N.pl3 405  GSP405     -0.0226
     31  N3        14.6860    6.7750   21.5490 N.2   405  GSP405     -0.3074
     32  C4        15.0100    5.6760   22.2430 C.2   405  GSP405      0.2300
@<TRIPOS>BOND
     1    30    29    1
     2    28    29    2
     3    28    26    2
     4    29    31    2
     5    27    26    2
     6    26    25    1
     7    31    32    2
     8    25    32    1
     9    25    24    2
    10    32    22    1
    11    24    23    1
    12    22    23    1
    13    22    21    1
    14    16    21    1
    15    16    15    1
    16    21    19    1
    17    15    14    1
    18    15    17    1
    19    19    20    1
    20    19    17    1
    21    14    13    1
    22    18    17    1
    23    13     9    1
    24     7     6    2
    25    12     9    1
    26    12     6    1
    27     9    10    2
    28     9    11    1
    29     6     2    1
    30     6     8    1
    31     2     1    1
    32     5     1    2
    33     3     1    1
    34     1     4    1
