@<TRIPOS>MOLECULE
1cjk_TAT_A_1.pdb
 31 33 0 0 0
SMALL
GASTEIGER

@<TRIPOS>ATOM
      1  N1        54.7870  -18.3610   52.0500 N.2   801  TAT801      0.0021
      2  C2        54.4210  -17.0900   51.9770 C.3   801  TAT801      0.5254
      3  N3        55.0840  -16.0090   52.3370 N.2   801  TAT801     -0.0055
      4  C4        56.2860  -16.3260   52.8490 C.2   801  TAT801      0.3518
      5  C5        56.7970  -17.5960   52.9910 C.2   801  TAT801      0.2526
      6  C6        56.0000  -18.6510   52.5520 C.2   801  TAT801      0.4393
      7  N6        56.3840  -19.9210   52.5960 N.pl3 801  TAT801      0.2180
      8  N7        58.0620  -17.5610   53.5580 N.2   801  TAT801     -0.2095
      9  C8        58.2930  -16.2870   53.7360 C.3   801  TAT801      0.3377
     10  N9        57.2780  -15.4710   53.2940 N.pl3 801  TAT801     -0.1439
     11  PA        57.1800   -9.1120   56.3360 P.3   801  TAT801      0.4081
     12  PB        58.8240   -8.3070   58.4130 P.3   801  TAT801      0.2302
     13  PG        57.1530   -6.6250   59.6700 P.3   801  TAT801      0.5373
     14  C1'       57.2860  -14.0000   53.2240 C.3   801  TAT801      0.3186
     15  O1A       55.8530   -7.3400   59.6040 O.3   801  TAT801     -0.1143
     16  O1B       60.2290   -7.8870   58.2340 O.2   801  TAT801     -0.5167
     17  S1G       55.5360   -8.9060   57.1720 S.3   801  TAT801      0.0395
     18  C2'       55.9730  -13.2930   53.4680 C.3   801  TAT801      0.2570
     19  O2'       55.1440  -13.4960   52.3420 O.3   801  TAT801     -0.2130
     20  O2A       57.4790   -8.5670   54.9950 O.2   801  TAT801     -0.2446
     21  O2B       58.4750   -9.1730   59.5760 O.3   801  TAT801     -0.4368
     22  O2G       56.9050   -5.1730   59.4620 O.2   801  TAT801     -0.2221
     23  C3'       56.4760  -11.8580   53.6420 C.3   801  TAT801      0.2184
     24  O3'       56.8760  -11.2720   52.4020 O.3   801  TAT801     -0.2174
     25  O3A       58.4130   -9.0340   57.1650 O.3   801  TAT801     -0.2418
     26  O3B       57.9860   -7.0740   58.5080 O.3   801  TAT801     -0.2257
     27  O3G       57.9740   -6.7480   60.8910 O.3   801  TAT801     -0.1143
     28  C4'       57.7480  -12.0450   54.4520 C.3   801  TAT801      0.1822
     29  O4'       58.1600  -13.4310   54.1900 O.3   801  TAT801     -0.3135
     30  C5'       57.6860  -11.7310   55.9460 C.3   801  TAT801      0.1844
     31  O5'       56.7640  -10.6480   56.2060 O.3   801  TAT801     -0.2834
@<TRIPOS>BOND
     1     2     1    1
     2     2     3    1
     3     1     6    2
     4     3     4    2
     5    19    18    1
     6    24    23    1
     7     6     7    1
     8     6     5    1
     9     4     5    1
    10     4    10    1
    11     5     8    2
    12    14    10    1
    13    14    18    1
    14    14    29    1
    15    10     9    1
    16    18    23    1
    17     8     9    1
    18    23    28    1
    19    29    28    1
    20    28    30    1
    21    20    11    2
    22    30    31    1
    23    31    11    1
    24    11    25    1
    25    11    17    1
    26    25    12    1
    27    16    12    2
    28    12    26    1
    29    12    21    1
    30    26    13    1
    31    22    13    2
    32    15    13    1
    33    13    27    1
