@<TRIPOS>MOLECULE
1cjp_MUG_A_1.pdb
 24 26 0 0 0
SMALL
GASTEIGER

@<TRIPOS>ATOM
      1  O1        20.1400   14.4740   59.1440 O.2   240  MUG240     -0.4209
      2  C2        20.1750   15.8150   59.5840 C.ar  240  MUG240      0.3456
      3  O2        19.1850   16.3940   59.8600 O.2   240  MUG240     -0.2445
      4  C3        21.3430   16.5220   59.7070 C.ar  240  MUG240      0.0781
      5  C4        22.5310   15.9200   59.3940 C.ar  240  MUG240     -0.0125
      6  CM4       23.7990   16.7300   59.5730 C.3   240  MUG240      0.0313
      7  C4A       22.5540   14.5870   58.9400 C.ar  240  MUG240      0.0311
      8  C5        23.7640   13.9920   58.6050 C.ar  240  MUG240      0.0058
      9  C6        23.7860   12.6840   58.1530 C.ar  240  MUG240      0.0372
     10  C7        22.6210   11.9370   58.0270 C.ar  240  MUG240      0.1444
     11  C8        21.4000   12.5200   58.3600 C.ar  240  MUG240      0.0745
     12  C8A       21.3550   13.8460   58.8180 C.ar  240  MUG240      0.1514
     13  C1'       21.7480    9.7170   57.3280 C.3   240  MUG240      0.3218
     14  O1'       22.8050   10.6030   57.5400 O.3   240  MUG240     -0.4504
     15  C2'       22.3450    8.3890   56.8980 C.3   240  MUG240      0.2542
     16  O2'       23.2060    7.8950   57.9120 O.3   240  MUG240     -0.2135
     17  C3'       23.1440    8.6050   55.6230 C.3   240  MUG240      0.2211
     18  O3'       23.6820    7.3720   55.1600 O.3   240  MUG240     -0.2173
     19  C4'       22.2740    9.2160   54.5400 C.3   240  MUG240      0.2145
     20  O4'       23.1190    9.5970   53.4720 O.3   240  MUG240     -0.2176
     21  C5'       21.5000   10.4470   55.0450 C.3   240  MUG240      0.1846
     22  O5'       20.8660   10.1720   56.3150 O.3   240  MUG240     -0.3157
     23  C6'       20.3870   10.8390   54.0900 C.3   240  MUG240      0.2142
     24  O6'       19.3670    9.8470   54.0710 O.3   240  MUG240     -0.2176
@<TRIPOS>BOND
     1    20    19    1
     2    24    23    1
     3    23    21    1
     4    19    21    1
     5    19    17    1
     6    21    22    1
     7    18    17    1
     8    17    15    1
     9    22    13    1
    10    15    13    1
    11    15    16    1
    12    13    14    1
    13    14    10    1
    14    10     9   ar
    15    10    11   ar
    16     9     8   ar
    17    11    12   ar
    18     8     7   ar
    19    12     7   ar
    20    12     1   ar
    21     7     5   ar
    22     1     2   ar
    23     5     6    1
    24     5     4   ar
    25     2     4   ar
    26     2     3    2
