@<TRIPOS>MOLECULE
1cjt_GSP_C_1.pdb
 32 34 0 0 0
SMALL
GASTEIGER

@<TRIPOS>ATOM
      1  PG        23.6050    3.0190   29.0300 P.3   405  GSP405      0.4340
      2  O3B       22.4830    3.2120   28.0370 O.3   405  GSP405     -0.2405
      3  S1G       24.8850    4.3940   28.8750 S.3   405  GSP405      0.0416
      4  O2G       23.0370    3.0890   30.4070 O.3   405  GSP405     -0.1305
      5  O3G       24.3780    1.8140   28.6320 O.2   405  GSP405     -0.2423
      6  PB        21.1490    2.5640   27.8000 P.3   405  GSP405      0.2262
      7  O1B       21.3350    1.4100   26.8870 O.2   405  GSP405     -0.5168
      8  O2B       20.5050    2.3360   29.1170 O.3   405  GSP405     -0.4369
      9  PA        19.1210    4.3740   27.4200 P.3   405  GSP405      0.2189
     10  O1A       18.0810    3.3870   27.8130 O.2   405  GSP405     -0.5170
     11  O2A       19.4840    5.4690   28.3560 O.3   405  GSP405     -0.4371
     12  O3A       20.3730    3.6220   27.0640 O.3   405  GSP405     -0.2701
     13  O5'       18.6540    5.0490   26.0530 O.3   405  GSP405     -0.3112
     14  C5'       19.3090    6.2120   25.5580 C.3   405  GSP405      0.1813
     15  C4'       18.3080    7.2220   25.0440 C.3   405  GSP405      0.1799
     16  O4'       17.6620    6.7420   23.8380 O.3   405  GSP405     -0.3326
     17  C3'       17.1840    7.6210   26.0000 C.3   405  GSP405      0.2158
     18  O3'       16.9790    9.0320   25.9080 O.3   405  GSP405     -0.2175
     19  C2'       15.9750    6.8900   25.4440 C.3   405  GSP405      0.2310
     20  O2'       14.7440    7.5350   25.6960 O.3   405  GSP405     -0.2158
     21  C1'       16.2530    6.8750   23.9530 C.3   405  GSP405      0.2293
     22  N9        15.6390    5.7470   23.2670 N.pl3 405  GSP405     -0.2354
     23  C8        15.6850    4.4310   23.6480 C.3   405  GSP405      0.2246
     24  N7        15.0480    3.6340   22.8370 N.2   405  GSP405     -0.2322
     25  C5        14.5550    4.4780   21.8550 C.2   405  GSP405      0.2182
     26  C6        13.7990    4.1790   20.6950 C.1   405  GSP405      0.2372
     27  O6        13.4280    3.0800   20.2810 O.2   405  GSP405     -0.2069
     28  N1        13.4900    5.3240   19.9820 N.2   405  GSP405     -0.2485
     29  C2        13.8590    6.5940   20.3330 C.1   405  GSP405      0.2531
     30  N2        13.4230    7.5720   19.5310 N.pl3 405  GSP405     -0.0226
     31  N3        14.5930    6.8870   21.3980 N.2   405  GSP405     -0.3074
     32  C4        14.8970    5.7830   22.1070 C.2   405  GSP405      0.2300
@<TRIPOS>BOND
     1    30    29    1
     2    28    29    2
     3    28    26    2
     4    27    26    2
     5    29    31    2
     6    26    25    1
     7    31    32    2
     8    25    32    1
     9    25    24    2
    10    32    22    1
    11    24    23    1
    12    22    23    1
    13    22    21    1
    14    16    21    1
    15    16    15    1
    16    21    19    1
    17    15    14    1
    18    15    17    1
    19    19    20    1
    20    19    17    1
    21    14    13    1
    22    18    17    1
    23    13     9    1
    24     7     6    2
    25    12     9    1
    26    12     6    1
    27     9    10    2
    28     9    11    1
    29     6     2    1
    30     6     8    1
    31     2     1    1
    32     5     1    2
    33     3     1    1
    34     1     4    1
