@<TRIPOS>MOLECULE
1cjt_FOK_A_1.pdb
 29 31 0 0 0
SMALL
GASTEIGER

@<TRIPOS>ATOM
      1  C1        42.2750  -12.7790   52.6670 C.3   101  FOK101      0.1547
      2  O2        42.0070  -13.9010   51.7920 O.3   101  FOK101     -0.2231
      3  C2        43.2290  -13.3000   53.7350 C.3   101  FOK101      0.0330
      4  C3        44.5930  -13.6880   53.1920 C.3   101  FOK101      0.0027
      5  C4        45.3170  -12.4720   52.4840 C.3   101  FOK101      0.0027
      6  C5        44.3450  -11.9460   51.3980 C.3   101  FOK101      0.0393
      7  C6        44.9810  -10.9000   50.4250 C.3   101  FOK101      0.1943
      8  O3        45.3780   -9.6930   51.1070 O.3   101  FOK101     -0.2192
      9  C7        44.0510  -10.6080   49.2390 C.3   101  FOK101      0.2260
     10  O4        44.5980   -9.5150   48.4280 O.3   101  FOK101     -0.4470
     11  C8        42.6270  -10.1800   49.6010 C.3   101  FOK101      0.1639
     12  O1        41.9340  -10.2280   48.3470 O.3   101  FOK101     -0.3524
     13  C9        42.0780  -11.3190   50.5300 C.3   101  FOK101      0.2051
     14  O6        42.1450  -12.4990   49.6710 O.3   101  FOK101     -0.2155
     15  C10       42.8850  -11.5930   51.8580 C.3   101  FOK101      0.0652
     16  C11       40.5660  -11.0730   50.6470 C.2   101  FOK101      0.1831
     17  O7        39.9980  -10.8830   51.7100 O.2   101  FOK101     -0.2933
     18  C12       39.8370  -11.0780   49.3260 C.3   101  FOK101      0.0985
     19  C13       40.5060  -10.1590   48.2640 C.3   101  FOK101      0.1183
     20  C14       40.2120  -10.7750   46.9310 C.2   101  FOK101      0.0006
     21  C15       40.4380  -11.9190   46.5600 C.2   101  FOK101     -0.0025
     22  C16       39.9740   -8.7460   48.3210 C.3   101  FOK101      0.0346
     23  C17       42.5850   -8.7460   50.1720 C.3   101  FOK101      0.0365
     24  C18       46.5760  -13.0320   51.8150 C.3   101  FOK101      0.0001
     25  C19       45.7890  -11.4570   53.5690 C.3   101  FOK101      0.0001
     26  C20       42.8030  -10.3880   52.8310 C.3   101  FOK101      0.0056
     27  C21       45.6560   -9.7800   47.6270 C.2   101  FOK101      0.3176
     28  O5        45.8290  -10.8460   47.1100 O.2   101  FOK101     -0.2501
     29  C22       46.5510   -8.5600   47.4810 C.3   101  FOK101      0.1212
@<TRIPOS>BOND
     1    21    20    2
     2    20    19    1
     3    28    27    2
     4    29    27    1
     5    27    10    1
     6    19    22    1
     7    19    12    1
     8    19    18    1
     9    12    11    1
    10    10     9    1
    11     9    11    1
    12     9     7    1
    13    18    16    1
    14    11    23    1
    15    11    13    1
    16    14    13    1
    17     7     8    1
    18     7     6    1
    19    13    16    1
    20    13    15    1
    21    16    17    2
    22     6    15    1
    23     6     5    1
    24     2     1    1
    25    24     5    1
    26    15     1    1
    27    15    26    1
    28     5     4    1
    29     5    25    1
    30     1     3    1
    31     4     3    1
