@<TRIPOS>MOLECULE
1cjt_DAD_A_1.pdb
 29 31 0 0 0
SMALL
GASTEIGER

@<TRIPOS>ATOM
      1  PG        56.8510   -6.5230   58.7520 P.3   102  DAD102      0.5373
      2  O1G       56.3240   -5.3740   57.9730 O.2   102  DAD102     -0.2221
      3  O2G       55.9910   -7.7180   58.9560 O.3   102  DAD102     -0.1143
      4  O3G       57.2820   -6.0170   60.0850 O.3   102  DAD102     -0.1143
      5  PB        58.5770   -8.2350   57.4390 P.3   102  DAD102      0.2277
      6  O1B       58.2710   -9.3890   58.3320 O.3   102  DAD102     -0.4368
      7  O2B       59.9520   -8.0640   56.8880 O.2   102  DAD102     -0.5168
      8  O3B       58.1620   -6.9650   58.1360 O.3   102  DAD102     -0.2258
      9  PA        56.7840   -9.1740   55.4990 P.3   102  DAD102      0.2189
     10  O1A       56.4060   -8.5100   54.2290 O.2   102  DAD102     -0.5170
     11  O2A       55.7300   -9.7520   56.3720 O.3   102  DAD102     -0.4371
     12  O3A       57.5990   -8.2210   56.3050 O.3   102  DAD102     -0.2700
     13  O5'       57.8480  -10.3070   55.1390 O.3   102  DAD102     -0.3113
     14  C5'       57.4500  -11.6660   54.9950 C.3   102  DAD102      0.1786
     15  C4'       56.9350  -11.9140   53.5950 C.3   102  DAD102      0.1493
     16  O4'       56.3070  -13.2150   53.5650 O.3   102  DAD102     -0.3183
     17  C3'       57.9820  -11.9170   52.4770 C.3   102  DAD102      0.0392
     18  C2'       57.4040  -12.8830   51.4430 C.3   102  DAD102      0.0823
     19  C1'       56.5610  -13.8070   52.3190 C.3   102  DAD102      0.2847
     20  N9        56.7160  -15.2520   52.4190 N.pl3 102  DAD102     -0.1461
     21  C8        57.8490  -15.9590   52.7140 C.3   102  DAD102      0.3377
     22  N7        57.7020  -17.2550   52.6190 N.2   102  DAD102     -0.2095
     23  C5        56.3740  -17.4090   52.2470 C.2   102  DAD102      0.2526
     24  C6        55.6010  -18.5480   51.9630 C.2   102  DAD102      0.4393
     25  N6        56.0600  -19.8000   52.0690 N.pl3 102  DAD102      0.2180
     26  N1        54.3010  -18.3540   51.6320 N.2   102  DAD102      0.0021
     27  C2        53.8480  -17.0990   51.5290 C.3   102  DAD102      0.5254
     28  N3        54.4860  -15.9540   51.7580 N.2   102  DAD102     -0.0055
     29  C4        55.7620  -16.1850   52.1040 C.2   102  DAD102      0.3518
@<TRIPOS>BOND
     1    18    19    1
     2    18    17    1
     3    27    26    1
     4    27    28    1
     5    26    24    2
     6    28    29    2
     7    24    25    1
     8    24    23    1
     9    29    23    1
    10    29    20    1
    11    23    22    2
    12    19    20    1
    13    19    16    1
    14    20    21    1
    15    17    15    1
    16    22    21    1
    17    16    15    1
    18    15    14    1
    19    10     9    2
    20    14    13    1
    21    13     9    1
    22     9    12    1
    23     9    11    1
    24    12     5    1
    25     7     5    2
    26     5     8    1
    27     5     6    1
    28     2     1    2
    29     8     1    1
    30     1     3    1
    31     1     4    1
