@<TRIPOS>MOLECULE
1cju_FOK_A_1.pdb
 29 31 0 0 0
SMALL
GASTEIGER

@<TRIPOS>ATOM
      1  C1        42.3990  -12.7510   52.7330 C.3   101  FOK101      0.1547
      2  O2        42.0950  -13.8410   51.8310 O.3   101  FOK101     -0.2231
      3  C2        43.3550  -13.2970   53.7890 C.3   101  FOK101      0.0330
      4  C3        44.7010  -13.6790   53.2190 C.3   101  FOK101      0.0027
      5  C4        45.4240  -12.4670   52.5350 C.3   101  FOK101      0.0027
      6  C5        44.4590  -11.9080   51.4700 C.3   101  FOK101      0.0393
      7  C6        45.0910  -10.8530   50.5330 C.3   101  FOK101      0.1943
      8  O3        45.4980   -9.6910   51.2500 O.3   101  FOK101     -0.2192
      9  C7        44.1580  -10.5060   49.3650 C.3   101  FOK101      0.2260
     10  O4        44.7060   -9.3800   48.5970 O.3   101  FOK101     -0.4470
     11  C8        42.7440  -10.0790   49.7540 C.3   101  FOK101      0.1639
     12  O1        42.0300  -10.0640   48.5050 O.3   101  FOK101     -0.3524
     13  C9        42.1830  -11.2450   50.6350 C.3   101  FOK101      0.2051
     14  O6        42.2270  -12.3850   49.7330 O.3   101  FOK101     -0.2155
     15  C10       43.0220  -11.5390   51.9460 C.3   101  FOK101      0.0652
     16  C11       40.6890  -10.9920   50.7730 C.2   101  FOK101      0.1831
     17  O7        40.1270  -10.8500   51.8460 O.2   101  FOK101     -0.2933
     18  C12       39.9440  -10.9620   49.4590 C.3   101  FOK101      0.0985
     19  C13       40.5820   -9.9810   48.4490 C.3   101  FOK101      0.1183
     20  C14       40.2430  -10.5000   47.0820 C.2   101  FOK101      0.0006
     21  C15       40.4450  -11.5890   46.6040 C.2   101  FOK101     -0.0025
     22  C16       40.0320   -8.5740   48.5990 C.3   101  FOK101      0.0346
     23  C17       42.7160   -8.6770   50.3970 C.3   101  FOK101      0.0365
     24  C18       46.6830  -13.0260   51.8310 C.3   101  FOK101      0.0001
     25  C19       45.9090  -11.5010   53.6540 C.3   101  FOK101      0.0001
     26  C20       42.9620  -10.3600   52.9530 C.3   101  FOK101      0.0056
     27  C21       45.7780   -9.5850   47.7740 C.2   101  FOK101      0.3176
     28  O5        45.9430  -10.6100   47.1580 O.2   101  FOK101     -0.2501
     29  C22       46.7080   -8.3420   47.7260 C.3   101  FOK101      0.1212
@<TRIPOS>BOND
     1    21    20    2
     2    20    19    1
     3    28    27    2
     4    29    27    1
     5    27    10    1
     6    19    12    1
     7    19    22    1
     8    19    18    1
     9    12    11    1
    10    10     9    1
    11     9    11    1
    12     9     7    1
    13    18    16    1
    14    14    13    1
    15    11    23    1
    16    11    13    1
    17     7     8    1
    18     7     6    1
    19    13    16    1
    20    13    15    1
    21    16    17    2
    22     6    15    1
    23     6     5    1
    24    24     5    1
    25     2     1    1
    26    15     1    1
    27    15    26    1
    28     5     4    1
    29     5    25    1
    30     1     3    1
    31     4     3    1
