@<TRIPOS>MOLECULE
1cju_GSP_C_1.pdb
 32 34 0 0 0
SMALL
GASTEIGER

@<TRIPOS>ATOM
      1  PG        23.4180    3.0130   29.1580 P.3   405  GSP405      0.4340
      2  O3B       22.4090    3.3260   28.0920 O.3   405  GSP405     -0.2405
      3  S1G       24.9850    4.0580   28.9990 S.3   405  GSP405      0.0416
      4  O2G       22.8030    3.3140   30.4760 O.3   405  GSP405     -0.1305
      5  O3G       23.9620    1.6500   28.9030 O.2   405  GSP405     -0.2423
      6  PB        21.0770    2.7480   27.7320 P.3   405  GSP405      0.2262
      7  O1B       21.2960    1.6560   26.7560 O.2   405  GSP405     -0.5168
      8  O2B       20.3340    2.4660   28.9840 O.3   405  GSP405     -0.4369
      9  PA        19.0690    4.4360   27.3750 P.3   405  GSP405      0.2189
     10  O1A       18.1330    3.2970   27.5600 O.2   405  GSP405     -0.5170
     11  O2A       19.2330    5.4410   28.4540 O.3   405  GSP405     -0.4371
     12  O3A       20.4090    3.8860   27.0340 O.3   405  GSP405     -0.2701
     13  O5'       18.6110    5.2100   26.0610 O.3   405  GSP405     -0.3112
     14  C5'       19.2580    6.4060   25.6560 C.3   405  GSP405      0.1813
     15  C4'       18.2600    7.3720   25.0710 C.3   405  GSP405      0.1799
     16  O4'       17.6840    6.8380   23.8480 O.3   405  GSP405     -0.3326
     17  C3'       17.0810    7.7150   25.9810 C.3   405  GSP405      0.2158
     18  O3'       16.8100    9.1170   25.8890 O.3   405  GSP405     -0.2175
     19  C2'       15.9320    6.9510   25.3600 C.3   405  GSP405      0.2310
     20  O2'       14.6810    7.5700   25.5520 O.3   405  GSP405     -0.2158
     21  C1'       16.2810    6.9630   23.8890 C.3   405  GSP405      0.2293
     22  N9        15.7100    5.8190   23.1980 N.pl3 405  GSP405     -0.2354
     23  C8        15.8150    4.5000   23.5650 C.3   405  GSP405      0.2246
     24  N7        15.1640    3.6940   22.7730 N.2   405  GSP405     -0.2322
     25  C5        14.6130    4.5280   21.8200 C.2   405  GSP405      0.2182
     26  C6        13.8140    4.2240   20.6940 C.1   405  GSP405      0.2372
     27  O6        13.4460    3.1120   20.2980 O.2   405  GSP405     -0.2069
     28  N1        13.4480    5.3660   19.9970 N.2   405  GSP405     -0.2485
     29  C2        13.8110    6.6440   20.3360 C.1   405  GSP405      0.2531
     30  N2        13.3310    7.6290   19.5520 N.pl3 405  GSP405     -0.0226
     31  N3        14.5850    6.9430   21.3730 N.2   405  GSP405     -0.3074
     32  C4        14.9360    5.8460   22.0610 C.2   405  GSP405      0.2300
@<TRIPOS>BOND
     1    30    29    1
     2    28    29    2
     3    28    26    2
     4    27    26    2
     5    29    31    2
     6    26    25    1
     7    31    32    2
     8    25    32    1
     9    25    24    2
    10    32    22    1
    11    24    23    1
    12    22    23    1
    13    22    21    1
    14    16    21    1
    15    16    15    1
    16    21    19    1
    17    15    14    1
    18    15    17    1
    19    19    20    1
    20    19    17    1
    21    14    13    1
    22    18    17    1
    23    13     9    1
    24     7     6    2
    25    12     9    1
    26    12     6    1
    27     9    10    2
    28     9    11    1
    29     6     2    1
    30     6     8    1
    31     2     1    1
    32     5     1    2
    33     3     1    1
    34     1     4    1
