@<TRIPOS>MOLECULE
1cju_DAD_A_1.pdb
 29 31 0 0 0
SMALL
GASTEIGER

@<TRIPOS>ATOM
      1  PG        56.8630   -6.5660   58.8350 P.3   102  DAD102      0.5373
      2  O1G       56.4270   -5.4380   57.9730 O.2   102  DAD102     -0.2221
      3  O2G       56.0010   -7.7710   58.9600 O.3   102  DAD102     -0.1143
      4  O3G       57.1450   -6.0400   60.1990 O.3   102  DAD102     -0.1143
      5  PB        58.7500   -8.2140   57.7130 P.3   102  DAD102      0.2277
      6  O1B       58.3710   -9.4070   58.5160 O.3   102  DAD102     -0.4368
      7  O2B       60.1690   -7.9920   57.3570 O.2   102  DAD102     -0.5168
      8  O3B       58.2390   -6.9940   58.4130 O.3   102  DAD102     -0.2258
      9  PA        56.9880   -9.1250   55.7650 P.3   102  DAD102      0.2189
     10  O1A       56.4610   -8.4440   54.5520 O.2   102  DAD102     -0.5170
     11  O2A       56.0410   -9.6610   56.7840 O.3   102  DAD102     -0.4371
     12  O3A       57.9430   -8.1990   56.4470 O.3   102  DAD102     -0.2700
     13  O5'       57.9790  -10.2730   55.2730 O.3   102  DAD102     -0.3113
     14  C5'       57.5540  -11.6290   55.1890 C.3   102  DAD102      0.1786
     15  C4'       56.9390  -11.8990   53.8360 C.3   102  DAD102      0.1493
     16  O4'       56.3740  -13.2320   53.8590 O.3   102  DAD102     -0.3183
     17  C3'       57.8800  -11.8630   52.6320 C.3   102  DAD102      0.0392
     18  C2'       57.2240  -12.8300   51.6420 C.3   102  DAD102      0.0823
     19  C1'       56.5320  -13.8020   52.5840 C.3   102  DAD102      0.2847
     20  N9        56.7970  -15.2340   52.6670 N.pl3 102  DAD102     -0.1461
     21  C8        57.9330  -15.8530   53.1000 C.3   102  DAD102      0.3377
     22  N7        57.8580  -17.1580   53.0780 N.2   102  DAD102     -0.2095
     23  C5        56.5890  -17.4110   52.5920 C.2   102  DAD102      0.2526
     24  C6        55.8910  -18.6040   52.3410 C.2   102  DAD102      0.4393
     25  N6        56.4210  -19.8210   52.5190 N.pl3 102  DAD102      0.2180
     26  N1        54.6310  -18.5110   51.8560 N.2   102  DAD102      0.0021
     27  C2        54.1140  -17.2920   51.6700 C.3   102  DAD102      0.5254
     28  N3        54.6660  -16.0990   51.8700 N.2   102  DAD102     -0.0055
     29  C4        55.9170  -16.2370   52.3480 C.2   102  DAD102      0.3518
@<TRIPOS>BOND
     1    18    19    1
     2    18    17    1
     3    27    26    1
     4    27    28    1
     5    26    24    2
     6    28    29    2
     7    24    25    1
     8    24    23    1
     9    29    23    1
    10    29    20    1
    11    19    20    1
    12    19    16    1
    13    23    22    2
    14    17    15    1
    15    20    21    1
    16    22    21    1
    17    15    16    1
    18    15    14    1
    19    10     9    2
    20    14    13    1
    21    13     9    1
    22     9    12    1
    23     9    11    1
    24    12     5    1
    25     7     5    2
    26     5     8    1
    27     5     6    1
    28     2     1    2
    29     8     1    1
    30     1     3    1
    31     1     4    1
