@<TRIPOS>MOLECULE
1cjv_FOK_A_1.pdb
 29 31 0 0 0
SMALL
GASTEIGER

@<TRIPOS>ATOM
      1  C1        42.5300  -12.8780   52.8300 C.3   101  FOK101      0.1547
      2  O2        42.2770  -13.9700   51.9140 O.3   101  FOK101     -0.2231
      3  C2        43.5140  -13.3970   53.8720 C.3   101  FOK101      0.0330
      4  C3        44.8770  -13.7050   53.2870 C.3   101  FOK101      0.0027
      5  C4        45.5370  -12.4400   52.6120 C.3   101  FOK101      0.0027
      6  C5        44.5360  -11.9110   51.5590 C.3   101  FOK101      0.0393
      7  C6        45.1230  -10.8040   50.6310 C.3   101  FOK101      0.1943
      8  O3        45.5100   -9.6250   51.3360 O.3   101  FOK101     -0.2192
      9  C7        44.1720  -10.4880   49.4750 C.3   101  FOK101      0.2260
     10  O4        44.6940   -9.3410   48.7140 O.3   101  FOK101     -0.4470
     11  C8        42.7240  -10.1190   49.8860 C.3   101  FOK101      0.1639
     12  O1        42.0030  -10.1240   48.6390 O.3   101  FOK101     -0.3524
     13  C9        42.2370  -11.3280   50.7500 C.3   101  FOK101      0.2051
     14  O6        42.3280  -12.4460   49.8360 O.3   101  FOK101     -0.2155
     15  C10       43.0800  -11.6240   52.0610 C.3   101  FOK101      0.0652
     16  C11       40.7180  -11.1460   50.8950 C.2   101  FOK101      0.1831
     17  O7        40.1420  -11.0420   51.9680 O.2   101  FOK101     -0.2933
     18  C12       39.9720  -11.1220   49.5810 C.3   101  FOK101      0.0985
     19  C13       40.5570  -10.1160   48.5780 C.3   101  FOK101      0.1183
     20  C14       40.2550  -10.6730   47.2200 C.2   101  FOK101      0.0006
     21  C15       40.5640  -11.7590   46.7490 C.2   101  FOK101     -0.0025
     22  C16       39.9270   -8.7490   48.7320 C.3   101  FOK101      0.0346
     23  C17       42.6370   -8.7310   50.5430 C.3   101  FOK101      0.0365
     24  C18       46.8160  -12.9200   51.8820 C.3   101  FOK101      0.0001
     25  C19       45.9810  -11.4560   53.7310 C.3   101  FOK101      0.0001
     26  C20       42.9800  -10.4770   53.0870 C.3   101  FOK101      0.0056
     27  C21       45.6830   -9.5630   47.7970 C.2   101  FOK101      0.3176
     28  O5        45.8550  -10.6350   47.2560 O.2   101  FOK101     -0.2501
     29  C22       46.5070   -8.2910   47.5500 C.3   101  FOK101      0.1212
@<TRIPOS>BOND
     1    21    20    2
     2    20    19    1
     3    28    27    2
     4    29    27    1
     5    27    10    1
     6    19    12    1
     7    19    22    1
     8    19    18    1
     9    12    11    1
    10    10     9    1
    11     9    11    1
    12     9     7    1
    13    18    16    1
    14    14    13    1
    15    11    23    1
    16    11    13    1
    17     7     8    1
    18     7     6    1
    19    13    16    1
    20    13    15    1
    21    16    17    2
    22     6    15    1
    23     6     5    1
    24    24     5    1
    25     2     1    1
    26    15     1    1
    27    15    26    1
    28     5     4    1
    29     5    25    1
    30     1     3    1
    31     4     3    1
