@<TRIPOS>MOLECULE
1cjv_GSP_C_1.pdb
 32 34 0 0 0
SMALL
GASTEIGER

@<TRIPOS>ATOM
      1  PG        23.5170    3.1400   28.9590 P.3   406  GSP406      0.4340
      2  O3B       22.3570    3.3670   28.0160 O.3   406  GSP406     -0.2405
      3  S1G       24.9440    4.3790   28.7930 S.3   406  GSP406      0.0416
      4  O2G       23.0300    3.3590   30.3470 O.3   406  GSP406     -0.1305
      5  O3G       24.1510    1.8410   28.6070 O.2   406  GSP406     -0.2423
      6  PB        21.0460    2.6980   27.7250 P.3   406  GSP406      0.2262
      7  O1B       21.2900    1.5640   26.8090 O.2   406  GSP406     -0.5168
      8  O2B       20.3600    2.4510   29.0100 O.3   406  GSP406     -0.4369
      9  PA        19.0450    4.4860   27.3700 P.3   406  GSP406      0.2189
     10  O1A       18.0180    3.4940   27.7720 O.2   406  GSP406     -0.5170
     11  O2A       19.4190    5.5770   28.2960 O.3   406  GSP406     -0.4371
     12  O3A       20.2890    3.7490   26.9840 O.3   406  GSP406     -0.2701
     13  O5'       18.5590    5.1680   26.0170 O.3   406  GSP406     -0.3112
     14  C5'       19.2850    6.2630   25.4680 C.3   406  GSP406      0.1813
     15  C4'       18.3420    7.2970   24.9020 C.3   406  GSP406      0.1799
     16  O4'       17.6900    6.8140   23.7020 O.3   406  GSP406     -0.3326
     17  C3'       17.2220    7.7260   25.8410 C.3   406  GSP406      0.2158
     18  O3'       16.9920    9.1140   25.6400 O.3   406  GSP406     -0.2175
     19  C2'       16.0330    6.9400   25.3280 C.3   406  GSP406      0.2310
     20  O2'       14.7930    7.5460   25.6070 O.3   406  GSP406     -0.2158
     21  C1'       16.2860    6.9310   23.8370 C.3   406  GSP406      0.2293
     22  N9        15.6760    5.7860   23.1690 N.pl3 406  GSP406     -0.2354
     23  C8        15.7190    4.4840   23.5800 C.3   406  GSP406      0.2246
     24  N7        15.0580    3.6800   22.7970 N.2   406  GSP406     -0.2322
     25  C5        14.5510    4.5040   21.8050 C.2   406  GSP406      0.2182
     26  C6        13.7440    4.1960   20.6870 C.1   406  GSP406      0.2372
     27  O6        13.3010    3.1020   20.3390 O.2   406  GSP406     -0.2069
     28  N1        13.4590    5.3240   19.9380 N.2   406  GSP406     -0.2485
     29  C2        13.8930    6.5850   20.2230 C.1   406  GSP406      0.2531
     30  N2        13.5220    7.5490   19.3610 N.pl3 406  GSP406     -0.0226
     31  N3        14.6410    6.8870   21.2720 N.2   406  GSP406     -0.3074
     32  C4        14.9310    5.8040   22.0140 C.2   406  GSP406      0.2300
@<TRIPOS>BOND
     1    30    29    1
     2    28    29    2
     3    28    26    2
     4    29    31    2
     5    27    26    2
     6    26    25    1
     7    31    32    2
     8    25    32    1
     9    25    24    2
    10    32    22    1
    11    24    23    1
    12    22    23    1
    13    22    21    1
    14    16    21    1
    15    16    15    1
    16    21    19    1
    17    15    14    1
    18    15    17    1
    19    19    20    1
    20    19    17    1
    21    14    13    1
    22    18    17    1
    23    13     9    1
    24     7     6    2
    25    12     9    1
    26    12     6    1
    27     9    10    2
    28     9    11    1
    29     6     2    1
    30     6     8    1
    31     2     1    1
    32     5     1    2
    33     3     1    1
    34     1     4    1
