@<TRIPOS>MOLECULE
1cjv_DAD_A_1.pdb
 29 31 0 0 0
SMALL
GASTEIGER

@<TRIPOS>ATOM
      1  PG        56.8020   -6.4330   58.9060 P.3   102  DAD102      0.5373
      2  O1G       56.3980   -5.1810   58.2240 O.2   102  DAD102     -0.2221
      3  O2G       55.8660   -7.5900   58.9340 O.3   102  DAD102     -0.1143
      4  O3G       57.1850   -6.0960   60.3020 O.3   102  DAD102     -0.1143
      5  PB        58.5320   -8.1130   57.5890 P.3   102  DAD102      0.2277
      6  O1B       58.1760   -9.3050   58.4070 O.3   102  DAD102     -0.4368
      7  O2B       59.9250   -7.9310   57.1160 O.2   102  DAD102     -0.5168
      8  O3B       58.1120   -6.8850   58.3360 O.3   102  DAD102     -0.2258
      9  PA        56.7010   -9.0360   55.8050 P.3   102  DAD102      0.2189
     10  O1A       55.9430   -8.3560   54.7280 O.2   102  DAD102     -0.5170
     11  O2A       55.9720   -9.7070   56.9070 O.3   102  DAD102     -0.4371
     12  O3A       57.6340   -8.0530   56.4060 O.3   102  DAD102     -0.2700
     13  O5'       57.7070  -10.0560   55.1040 O.3   102  DAD102     -0.3113
     14  C5'       57.4330  -11.4530   55.0540 C.3   102  DAD102      0.1786
     15  C4'       56.8900  -11.8320   53.6930 C.3   102  DAD102      0.1493
     16  O4'       56.3680  -13.1870   53.7400 O.3   102  DAD102     -0.3183
     17  C3'       57.8760  -11.8400   52.5290 C.3   102  DAD102      0.0392
     18  C2'       57.1980  -12.7750   51.5230 C.3   102  DAD102      0.0823
     19  C1'       56.4860  -13.7490   52.4500 C.3   102  DAD102      0.2847
     20  N9        56.7590  -15.1810   52.5090 N.pl3 102  DAD102     -0.1461
     21  C8        57.9140  -15.8010   52.8990 C.3   102  DAD102      0.3377
     22  N7        57.8360  -17.1080   52.9130 N.2   102  DAD102     -0.2095
     23  C5        56.5310  -17.3590   52.5090 C.2   102  DAD102      0.2526
     24  C6        55.8280  -18.5570   52.3110 C.2   102  DAD102      0.4393
     25  N6        56.3380  -19.7630   52.5430 N.pl3 102  DAD102      0.2180
     26  N1        54.5430  -18.4620   51.8970 N.2   102  DAD102      0.0021
     27  C2        54.0270  -17.2490   51.6820 C.3   102  DAD102      0.5254
     28  N3        54.5910  -16.0550   51.8330 N.2   102  DAD102     -0.0055
     29  C4        55.8640  -16.1880   52.2470 C.2   102  DAD102      0.3518
@<TRIPOS>BOND
     1    18    19    1
     2    18    17    1
     3    27    28    1
     4    27    26    1
     5    28    29    2
     6    26    24    2
     7    29    23    1
     8    29    20    1
     9    24    23    1
    10    24    25    1
    11    19    20    1
    12    19    16    1
    13    23    22    2
    14    20    21    1
    15    17    15    1
    16    21    22    1
    17    15    16    1
    18    15    14    1
    19    10     9    2
    20    14    13    1
    21    13     9    1
    22     9    12    1
    23     9    11    1
    24    12     5    1
    25     7     5    2
    26     5     8    1
    27     5     6    1
    28     2     1    2
    29     8     1    1
    30     1     3    1
    31     1     4    1
