@<TRIPOS>MOLECULE
1ck6_BMA_A_1.pdb
 11 11 0 0 0
SMALL
GASTEIGER

@<TRIPOS>ATOM
      1  C1        23.5860    8.9980   13.1130 C.3   350  BMA350      0.1777
      2  C2        22.0900    8.8490   13.2840 C.3   350  BMA350      0.2141
      3  C3        21.7980    8.6770   14.7460 C.3   350  BMA350      0.2173
      4  C4        22.6280    7.4750   15.2600 C.3   350  BMA350      0.2142
      5  C5        24.1030    7.5780   14.8750 C.3   350  BMA350      0.1810
      6  C6        24.9960    6.4160   15.2320 C.3   350  BMA350      0.2141
      7  O2        21.5770    7.7380   12.5740 O.3   350  BMA350     -0.2176
      8  O3        20.4070    8.4730   14.9190 O.3   350  BMA350     -0.2175
      9  O4        22.5640    7.4430   16.6670 O.3   350  BMA350     -0.2176
     10  O5        24.2190    7.7740   13.4510 O.3   350  BMA350     -0.3481
     11  O6        26.2810    6.7140   14.6850 O.3   350  BMA350     -0.2176
@<TRIPOS>BOND
     1     7     2    1
     2     1     2    1
     3     1    10    1
     4     2     3    1
     5    10     5    1
     6    11     6    1
     7     3     8    1
     8     3     4    1
     9     5     6    1
    10     5     4    1
    11     4     9    1
