@<TRIPOS>MOLECULE
1ck6_SHA_A_1.pdb
 11 11 0 0 0
SMALL
GASTEIGER

@<TRIPOS>ATOM
      1  C1        12.0730   21.8900   31.1140 C.ar  900  SHA900      0.0616
      2  C2        11.0020   22.8220   31.2010 C.ar  900  SHA900      0.0051
      3  C3         9.7020   22.4720   30.8680 C.ar  900  SHA900      0.0003
      4  C4         9.4110   21.1590   30.4210 C.ar  900  SHA900      0.0033
      5  C5        10.4310   20.2100   30.3210 C.ar  900  SHA900      0.0421
      6  C6        11.7560   20.5560   30.6650 C.ar  900  SHA900      0.1975
      7  O6        12.7330   19.6040   30.5930 O.3   900  SHA900     -0.2865
      8  C7        13.4430   22.3780   31.4940 C.2   900  SHA900      0.1132
      9  O7        14.3960   21.5660   31.6900 O.2   900  SHA900     -0.5359
     10  N8        13.7020   23.6680   31.6290 N.am  900  SHA900     -0.1983
     11  O9        14.9860   24.0650   31.9900 O.3   900  SHA900     -0.4024
@<TRIPOS>BOND
     1     5     4   ar
     2     5     6   ar
     3     4     3   ar
     4     7     6    1
     5     6     1   ar
     6     3     2   ar
     7     1     2   ar
     8     1     8    1
     9     8    10   am
    10     8     9    2
    11    10    11    1
