@<TRIPOS>MOLECULE
1ck6_HEM_A_1.pdb
 43 50 0 0 0
SMALL
GASTEIGER

@<TRIPOS>ATOM
      1  CHA       18.6730   20.1570   28.9710 C.2   345  HEM345      0.0000
      2  CHB       15.3570   23.6570   28.6240 C.2   345  HEM345      0.0000
      3  CHC       18.5430   26.8510   30.2700 C.2   345  HEM345      0.0000
      4  CHD       21.5440   23.2350   31.3120 C.2   345  HEM345      0.0000
      5  C1A       17.4800   20.8390   28.7210 C.ar  345  HEM345      0.0000
      6  C2A       16.2410   20.2120   28.3230 C.ar  345  HEM345      0.0000
      7  C3A       15.3080   21.2030   28.2380 C.ar  345  HEM345      0.0000
      8  C4A       15.9690   22.4220   28.6060 C.ar  345  HEM345      0.0000
      9  CMA       13.8630   21.0900   27.7960 C.3   345  HEM345      0.0000
     10  CAA       16.0640   18.7260   28.0410 C.3   345  HEM345      0.0000
     11  CBA       15.9080   17.8830   29.2930 C.3   345  HEM345      0.0000
     12  CGA       15.5730   16.4520   28.9460 C.2   345  HEM345      0.0000
     13  O1A       16.3620   15.5560   29.2140 O.co2 345  HEM345      0.0000
     14  O2A       14.5130   16.2080   28.3840 O.co2 345  HEM345      0.0000
     15  C1B       15.9850   24.8550   28.9130 C.2   345  HEM345      0.0000
     16  C2B       15.3450   26.1530   28.8340 C.2   345  HEM345      0.0000
     17  C3B       16.2300   27.0650   29.2750 C.2   345  HEM345      0.0000
     18  C4B       17.4480   26.3150   29.5940 C.2   345  HEM345      0.0000
     19  CMB       13.9480   26.4680   28.3190 C.3   345  HEM345      0.0000
     20  CAB       15.9380   28.4150   29.5140 C.3   345  HEM345      0.0000
     21  CBB       16.3490   29.5370   28.6920 C.3   345  HEM345      0.0000
     22  C1C       19.6090   26.1320   30.7870 C.ar  345  HEM345      0.0000
     23  C2C       20.6120   26.6900   31.6770 C.ar  345  HEM345      0.0000
     24  C3C       21.4240   25.6560   32.0450 C.ar  345  HEM345      0.0000
     25  C4C       20.9180   24.4800   31.3350 C.ar  345  HEM345      0.0000
     26  CMC       20.6850   28.1610   32.1020 C.3   345  HEM345      0.0000
     27  CAC       22.4760   25.6150   32.9750 C.3   345  HEM345      0.0000
     28  CBC       23.3910   26.6690   33.3360 C.3   345  HEM345      0.0000
     29  C1D       21.0860   22.0950   30.6410 C.2   345  HEM345      0.0000
     30  C2D       21.8430   20.8750   30.4700 C.2   345  HEM345      0.0000
     31  C3D       21.0280   20.0300   29.8360 C.2   345  HEM345      0.0000
     32  C4D       19.8040   20.7190   29.5570 C.2   345  HEM345      0.0000
     33  CMD       23.3080   20.6570   30.8270 C.3   345  HEM345      0.0000
     34  CAD       21.3470   18.6060   29.4580 C.3   345  HEM345      0.0000
     35  CBD       20.8310   17.5520   30.4280 C.3   345  HEM345      0.0000
     36  CGD       21.1510   16.1320   29.9780 C.2   345  HEM345      0.0000
     37  O1D       20.6870   15.1800   30.6040 O.co2 345  HEM345      0.0000
     38  O2D       21.8690   15.9520   29.0010 O.co2 345  HEM345      0.0000
     39  NA        17.3010   22.1990   28.9160 N.ar  345  HEM345      0.0000
     40  NB        17.2910   24.9600   29.3370 N.2   345  HEM345      0.0000
     41  NC        19.7880   24.7710   30.6070 N.ar  345  HEM345      0.0000
     42  ND        19.8690   22.0190   29.9970 N.2   345  HEM345      0.0000
     43 FE         18.6260   23.4970   29.5900 Fe    345  HEM345      0.0000
@<TRIPOS>BOND
     1     9     7    1
     2    10     6    1
     3    10    11    1
     4     7     6   ar
     5     7     8   ar
     6    19    16    1
     7     6     5   ar
     8    14    12   ar
     9     8     2    2
    10     8    39   ar
    11     2    15    1
    12    21    20    1
    13     5    39   ar
    14     5     1    2
    15    16    15    1
    16    16    17    2
    17    15    40    2
    18    39    43    1
    19    12    13   ar
    20    12    11    1
    21     1    32    1
    22    38    36   ar
    23    17    20    1
    24    17    18    1
    25    40    43    1
    26    40    18    1
    27    34    31    1
    28    34    35    1
    29    32    31    1
    30    32    42    2
    31    43    42    1
    32    43    41    1
    33    18     3    2
    34    31    30    2
    35    36    35    1
    36    36    37   ar
    37    42    29    1
    38     3    22    1
    39    30    29    1
    40    30    33    1
    41    41    22   ar
    42    41    25   ar
    43    29     4    2
    44    22    23   ar
    45     4    25    1
    46    25    24   ar
    47    23    24   ar
    48    23    26    1
    49    24    27    1
    50    27    28    1
