@<TRIPOS>MOLECULE
1ckm_GTP_A_1.pdb
 32 34 0 0 0
SMALL
GASTEIGER

@<TRIPOS>ATOM
      1  PG        32.0350   43.4580   30.3090 P.3   899  GTP899      0.5373
      2  O1G       31.9860   44.7050   31.1120 O.3   899  GTP899     -0.1143
      3  O2G       33.3010   42.7250   30.3980 O.2   899  GTP899     -0.2221
      4  O3G       30.8310   42.6010   30.4560 O.3   899  GTP899     -0.1143
      5  O3B       31.9890   43.9750   28.7250 O.3   899  GTP899     -0.2258
      6  PB        30.8630   44.8360   27.8590 P.3   899  GTP899      0.2277
      7  O1B       31.3430   44.9310   26.4490 O.2   899  GTP899     -0.5168
      8  O2B       29.5270   44.2380   28.1220 O.3   899  GTP899     -0.4368
      9  O3A       30.8830   46.3340   28.5240 O.3   899  GTP899     -0.2700
     10  PA        31.9370   47.5790   28.3690 P.3   899  GTP899      0.2189
     11  O1A       33.2790   47.0570   28.2240 O.2   899  GTP899     -0.5170
     12  O2A       31.6160   48.5410   29.4420 O.3   899  GTP899     -0.4371
     13  O5'       31.4740   48.2630   26.9650 O.3   899  GTP899     -0.3112
     14  C5'       30.2230   48.9090   26.8510 C.3   899  GTP899      0.1813
     15  C4'       29.2230   48.1840   26.0240 C.3   899  GTP899      0.1799
     16  O4'       27.9310   48.5830   26.4200 O.3   899  GTP899     -0.3326
     17  C3'       29.2420   48.4770   24.5640 C.3   899  GTP899      0.2158
     18  O3'       30.3310   47.8870   23.8500 O.3   899  GTP899     -0.2175
     19  C2'       27.8950   48.0020   24.1260 C.3   899  GTP899      0.2310
     20  O2'       27.9280   46.6430   23.8110 O.3   899  GTP899     -0.2158
     21  C1'       27.0280   48.1830   25.3790 C.3   899  GTP899      0.2293
     22  N9        26.0320   49.2270   25.1900 N.pl3 899  GTP899     -0.2354
     23  C8        24.7290   49.2660   25.5970 C.3   899  GTP899      0.2246
     24  N7        24.0690   50.3290   25.2320 N.2   899  GTP899     -0.2322
     25  C5        25.0480   51.0670   24.5480 C.2   899  GTP899      0.2182
     26  C6        24.9420   52.3100   23.8910 C.1   899  GTP899      0.2372
     27  O6        23.9570   53.0360   23.8040 O.2   899  GTP899     -0.2069
     28  N1        26.1450   52.6940   23.2750 N.2   899  GTP899     -0.2485
     29  C2        27.3140   51.9810   23.3070 C.1   899  GTP899      0.2531
     30  N2        28.4010   52.4730   22.6680 N.pl3 899  GTP899     -0.0226
     31  N3        27.3880   50.7890   23.9070 N.2   899  GTP899     -0.3074
     32  C4        26.2320   50.4030   24.5140 C.2   899  GTP899      0.2300
@<TRIPOS>BOND
     1    30    29    1
     2    28    29    2
     3    28    26    2
     4    29    31    2
     5    27    26    2
     6    20    19    1
     7    18    17    1
     8    26    25    1
     9    31    32    2
    10    19    17    1
    11    19    21    1
    12    32    25    1
    13    32    22    1
    14    25    24    2
    15    17    15    1
    16    22    21    1
    17    22    23    1
    18    24    23    1
    19    21    16    1
    20    15    16    1
    21    15    14    1
    22     7     6    2
    23    14    13    1
    24    13    10    1
    25     6     8    1
    26     6     9    1
    27     6     5    1
    28    11    10    2
    29    10     9    1
    30    10    12    1
    31     5     1    1
    32     1     3    2
    33     1     4    1
    34     1     2    1
