@<TRIPOS>MOLECULE
1ckn_GTP_A_1.pdb
 32 34 0 0 0
SMALL
GASTEIGER

@<TRIPOS>ATOM
      1  PG        33.3920   43.5570   29.9630 P.3   899  GTP899      0.5373
      2  O1G       33.2240   44.9210   30.5740 O.3   899  GTP899     -0.1143
      3  O2G       34.7660   42.9930   30.1240 O.2   899  GTP899     -0.2221
      4  O3G       32.2940   42.6300   30.2440 O.3   899  GTP899     -0.1143
      5  O3B       33.2760   43.8370   28.3860 O.3   899  GTP899     -0.2258
      6  PB        32.1130   44.4970   27.4290 P.3   899  GTP899      0.2277
      7  O1B       32.6120   44.6060   26.0820 O.2   899  GTP899     -0.5168
      8  O2B       30.8090   43.6980   27.6430 O.3   899  GTP899     -0.4368
      9  O3A       31.8600   45.9850   28.0890 O.3   899  GTP899     -0.2700
     10  PA        32.7760   47.3330   28.1700 P.3   899  GTP899      0.2189
     11  O1A       34.2220   46.9200   28.0820 O.2   899  GTP899     -0.5170
     12  O2A       32.3300   48.1400   29.2560 O.3   899  GTP899     -0.4371
     13  O5'       32.4440   48.0780   26.7640 O.3   899  GTP899     -0.3112
     14  C5'       31.1310   48.6270   26.5980 C.3   899  GTP899      0.1813
     15  C4'       30.1340   47.8080   25.8110 C.3   899  GTP899      0.1799
     16  O4'       28.8240   48.1790   26.1740 O.3   899  GTP899     -0.3326
     17  C3'       30.1500   48.0080   24.3200 C.3   899  GTP899      0.2158
     18  O3'       31.2480   47.3690   23.6650 O.3   899  GTP899     -0.2175
     19  C2'       28.8380   47.4600   23.8970 C.3   899  GTP899      0.2310
     20  O2'       28.9960   46.0940   23.6520 O.3   899  GTP899     -0.2158
     21  C1'       27.9390   47.6620   25.1350 C.3   899  GTP899      0.2293
     22  N9        26.9160   48.6650   24.9370 N.pl3 899  GTP899     -0.2354
     23  C8        25.6110   48.6850   25.3370 C.3   899  GTP899      0.2246
     24  N7        24.9270   49.7340   24.9780 N.2   899  GTP899     -0.2322
     25  C5        25.8810   50.4810   24.2660 C.2   899  GTP899      0.2182
     26  C6        25.7530   51.7430   23.6180 C.1   899  GTP899      0.2372
     27  O6        24.7630   52.4530   23.5330 O.2   899  GTP899     -0.2069
     28  N1        26.9550   52.1360   23.0060 N.2   899  GTP899     -0.2485
     29  C2        28.1300   51.4290   22.9930 C.1   899  GTP899      0.2531
     30  N2        29.1820   51.9580   22.3550 N.pl3 899  GTP899     -0.0226
     31  N3        28.2470   50.2380   23.6060 N.2   899  GTP899     -0.3074
     32  C4        27.0780   49.8360   24.2170 C.2   899  GTP899      0.2300
@<TRIPOS>BOND
     1    30    29    1
     2    29    28    2
     3    29    31    2
     4    28    26    2
     5    27    26    2
     6    31    32    2
     7    26    25    1
     8    20    19    1
     9    18    17    1
    10    19    17    1
    11    19    21    1
    12    32    25    1
    13    32    22    1
    14    25    24    2
    15    17    15    1
    16    22    21    1
    17    22    23    1
    18    24    23    1
    19    21    16    1
    20    15    16    1
    21    15    14    1
    22     7     6    2
    23    14    13    1
    24    13    10    1
    25     6     8    1
    26     6     9    1
    27     6     5    1
    28    11    10    2
    29     9    10    1
    30    10    12    1
    31     5     1    1
    32     1     3    2
    33     1     4    1
    34     1     2    1
