@<TRIPOS>MOLECULE
1ckp_PVB_A_1.pdb
 18 20 0 0 0
SMALL
GASTEIGER

@<TRIPOS>ATOM
      1  N1        24.7810   27.7440   28.1860 N.2   299  PVB299     -0.0016
      2  C9        28.4790   31.4500   27.6600 C.3   299  PVB299      0.2552
      3  N9        27.1430   31.0470   28.2300 N.pl3 299  PVB299     -0.1635
      4  C4        26.4690   29.8110   28.1300 C.2   299  PVB299      0.3500
      5  N3        26.8930   28.6810   27.4880 N.2   299  PVB299     -0.0055
      6  C2        26.0150   27.6920   27.5540 C.3   299  PVB299      0.5253
      7  C6        24.3340   28.8830   28.8410 C.2   299  PVB299      0.3904
      8  C5        25.2540   30.0170   28.8170 C.2   299  PVB299      0.2482
      9  N7        25.1600   31.2710   29.3340 N.2   299  PVB299     -0.2097
     10  C8        26.2870   31.8800   28.9750 C.3   299  PVB299      0.3360
     11  N6        23.0780   28.9110   29.4620 N.pl3 299  PVB299     -0.0044
     12  C1A       22.3530   27.6590   29.6380 C.ar  299  PVB299      0.1843
     13  C2A       22.1060   27.1870   30.9280 C.ar  299  PVB299      0.0445
     14  C3A       21.4060   25.9960   31.1250 C.ar  299  PVB299      0.0045
     15  C4A       20.9450   25.2620   30.0290 C.ar  299  PVB299      0.0116
     16  C5A       21.1870   25.7260   28.7310 C.ar  299  PVB299      0.0612
     17 CL1        20.6210   24.8320   27.3770 Cl    299  PVB299     -0.0821
     18  C6A       21.8890   26.9230   28.5360 C.ar  299  PVB299      0.0558
@<TRIPOS>BOND
     1    17    16    1
     2     5     6    1
     3     5     4    2
     4     6     1    1
     5     2     3    1
     6     4     3    1
     7     4     8    1
     8     1     7    2
     9     3    10    1
    10    18    16   ar
    11    18    12   ar
    12    16    15   ar
    13     8     7    1
    14     8     9    2
    15     7    11    1
    16    10     9    1
    17    11    12    1
    18    12    13   ar
    19    15    14   ar
    20    13    14   ar
