@<TRIPOS>MOLECULE
1cl2_PPG_A_1.pdb
 30 30 0 0 0
SMALL
GASTEIGER

@<TRIPOS>ATOM
      1  N1        -3.6540    7.8160   52.8630 N.pl3 500  PPG500     -0.3273
      2  C2        -4.4910    8.3260   53.8430 C.3   500  PPG500      0.1316
      3  C2A       -4.0940    8.0330   55.2570 C.3   500  PPG500      0.0296
      4  C3        -5.5990    9.0860   53.4290 C.2   500  PPG500      0.1883
      5  O3        -6.4410    9.5330   54.3340 O.2   500  PPG500     -0.2899
      6  C4        -5.7970    9.2930   52.0050 C.2   500  PPG500      0.0358
      7  C4A       -6.9140   10.2810   51.5130 C.3   500  PPG500      0.1277
      8  C5        -4.8620    8.6900   51.0680 C.2   500  PPG500      0.0228
      9  C6        -3.8170    7.9580   51.5250 C.2   500  PPG500      0.0561
     10  C5A       -5.0560    9.0060   49.5730 C.3   500  PPG500      0.1813
     11  OP4       -4.5450   10.2970   49.2410 O.3   500  PPG500     -0.2653
     12  P         -5.0750   11.0900   47.8920 P.3   500  PPG500      0.5329
     13  OP1       -4.1000   12.2300   47.7650 O.3   500  PPG500     -0.1145
     14  OP2       -6.4140   11.6060   48.1240 O.3   500  PPG500     -0.1145
     15  OP3       -5.0720   10.1290   46.7730 O.2   500  PPG500     -0.2224
     16  N4A       -8.0600   10.1400   52.3670 N.2   500  PPG500     -0.3646
     17  CAI       -9.2590   10.7200   52.2100 C.2   500  PPG500      0.1283
     18  CBC      -10.0350   10.8470   53.3680 C.2   500  PPG500      0.4022
     19  O2B       -9.6380   10.2670   54.4530 O.co2 500  PPG500     -0.2390
     20  O3B      -11.1570   11.5410   53.3530 O.co2 500  PPG500     -0.2390
     21  CBI       -9.7650   11.0280   50.9470 C.2   500  PPG500      0.0028
     22  CGI      -11.0090   10.4870   50.5640 C.2   500  PPG500      0.0879
     23  OET      -11.6200   10.9610   49.3800 O.2   500  PPG500     -0.4825
     24  CEI      -12.9030   10.3160   49.2100 C.3   500  PPG500      0.2249
     25  CFI      -12.8530    9.2040   48.1430 C.3   500  PPG500      0.1564
     26  NI       -11.9580    8.1280   48.5750 N.3   500  PPG500     -0.1273
     27  HBI       -9.2800   11.5930   50.3210 H     500  PPG500      0.0671
     28  HGI      -11.4580    9.8010   51.1360 H     500  PPG500      0.1024
     29  HN4       -7.9870    9.5210   53.1140 H     500  PPG500      0.1609
     30  HN1       -2.8790    7.3210   53.1720 H     500  PPG500      0.1472
@<TRIPOS>BOND
     1    15    12    2
     2    13    12    1
     3    12    14    1
     4    12    11    1
     5    25    26    1
     6    25    24    1
     7    24    23    1
     8    11    10    1
     9    23    22    1
    10    10     8    1
    11    27    21    1
    12    22    21    2
    13    22    28    1
    14    21    17    1
    15     8     9    2
    16     8     6    1
    17     7     6    1
    18     7    16    1
    19     9     1    1
    20     6     4    2
    21    17    16    2
    22    17    18    1
    23    16    29    1
    24     1    30    1
    25     1     2    1
    26    20    18   ar
    27    18    19   ar
    28     4     2    1
    29     4     5    1
    30     2     3    1
