@<TRIPOS>MOLECULE
1cl6_HEM_A_1.pdb
 43 50 0 0 0
SMALL
GASTEIGER

@<TRIPOS>ATOM
      1 FE         51.6340   11.4160   20.6080 Fe    501  HEM501      0.0000
      2  CHA       49.0610   11.2340   22.9090 C.2   501  HEM501      0.0000
      3  CHB       49.5290   10.0980   18.1510 C.2   501  HEM501      0.0000
      4  CHC       54.1200   11.7940   18.2710 C.2   501  HEM501      0.0000
      5  CHD       53.7130   12.7360   23.0300 C.2   501  HEM501      0.0000
      6  NA        49.7390   10.7940   20.5460 N.ar  501  HEM501      0.0000
      7  C1A       48.8210   10.7770   21.6010 C.ar  501  HEM501      0.0000
      8  C2A       47.5590   10.1760   21.1770 C.ar  501  HEM501      0.0000
      9  C3A       47.7040    9.8190   19.8550 C.ar  501  HEM501      0.0000
     10  C4A       49.0360   10.2520   19.4480 C.ar  501  HEM501      0.0000
     11  CMA       46.7000    9.0470   19.0030 C.3   501  HEM501      0.0000
     12  CAA       46.3060   10.0260   22.0310 C.3   501  HEM501      0.0000
     13  CBA       45.6020   11.3590   22.1660 C.3   501  HEM501      0.0000
     14  CGA       44.2930   11.2490   22.9210 C.2   501  HEM501      0.0000
     15  O1A       43.2400   11.5990   22.3420 O.co2 501  HEM501      0.0000
     16  O2A       44.3210   10.8130   24.0930 O.co2 501  HEM501      0.0000
     17  NB        51.7970   11.0190   18.6690 N.2   501  HEM501      0.0000
     18  C1B       50.8450   10.4250   17.8150 C.2   501  HEM501      0.0000
     19  C2B       51.3960   10.2400   16.4790 C.2   501  HEM501      0.0000
     20  C3B       52.6930   10.7080   16.5170 C.2   501  HEM501      0.0000
     21  C4B       52.9160   11.2120   17.8690 C.2   501  HEM501      0.0000
     22  CMB       50.6530    9.7170   15.2360 C.3   501  HEM501      0.0000
     23  CAB       53.6590   10.6770   15.4910 C.3   501  HEM501      0.0000
     24  CBB       53.4150   10.9100   14.1320 C.3   501  HEM501      0.0000
     25  NC        53.5040   12.1140   20.6410 N.ar  501  HEM501      0.0000
     26  C1C       54.3930   12.2030   19.5760 C.ar  501  HEM501      0.0000
     27  C2C       55.6830   12.7110   20.0090 C.ar  501  HEM501      0.0000
     28  C3C       55.5940   12.9330   21.3540 C.ar  501  HEM501      0.0000
     29  C4C       54.2310   12.5880   21.7390 C.ar  501  HEM501      0.0000
     30  CMC       56.8640   13.0300   19.1020 C.3   501  HEM501      0.0000
     31  CAC       56.5940   13.4020   22.2040 C.3   501  HEM501      0.0000
     32  CBC       57.3200   14.5860   22.0130 C.3   501  HEM501      0.0000
     33  ND        51.4510   11.8460   22.5350 N.2   501  HEM501      0.0000
     34  C1D       52.4140   12.3640   23.3970 C.2   501  HEM501      0.0000
     35  C2D       51.8730   12.5190   24.7410 C.2   501  HEM501      0.0000
     36  C3D       50.5660   12.1490   24.6950 C.2   501  HEM501      0.0000
     37  C4D       50.3020   11.7220   23.3320 C.2   501  HEM501      0.0000
     38  CMD       52.6370   12.9540   25.9810 C.3   501  HEM501      0.0000
     39  CAD       49.5440   12.2420   25.8280 C.3   501  HEM501      0.0000
     40  CBD       48.7970   13.5610   25.7910 C.3   501  HEM501      0.0000
     41  CGD       47.7630   13.6650   26.8900 C.2   501  HEM501      0.0000
     42  O1D       47.4830   14.7920   27.3410 O.co2 501  HEM501      0.0000
     43  O2D       47.2310   12.6180   27.3010 O.co2 501  HEM501      0.0000
@<TRIPOS>BOND
     1    24    23    1
     2    22    19    1
     3    23    20    1
     4    19    20    2
     5    19    18    1
     6    20    21    1
     7    18     3    1
     8    18    17    2
     9    21     4    2
    10    21    17    1
    11     3    10    2
    12     4    26    1
    13    17     1    1
    14    11     9    1
    15    30    27    1
    16    10     9   ar
    17    10     6   ar
    18    26    27   ar
    19    26    25   ar
    20     9     8   ar
    21    27    28   ar
    22     6     1    1
    23     6     7   ar
    24     1    25    1
    25     1    33    1
    26    25    29   ar
    27     8     7   ar
    28     8    12    1
    29    28    29   ar
    30    28    31    1
    31     7     2    2
    32    29     5    1
    33    32    31    1
    34    12    13    1
    35    13    14    1
    36    15    14   ar
    37    33    37    2
    38    33    34    1
    39     2    37    1
    40    14    16   ar
    41     5    34    2
    42    37    36    1
    43    34    35    1
    44    36    35    2
    45    36    39    1
    46    35    38    1
    47    40    39    1
    48    40    41    1
    49    41    43   ar
    50    41    42   ar
