@<TRIPOS>MOLECULE
1cla_CLM_A_1.pdb
 20 20 0 0 0
SMALL
GASTEIGER

@<TRIPOS>ATOM
      1  C1         1.0430   17.1520   14.1910 C.3   221  CLM221      0.2356
      2 CL1         1.9980   16.7630   12.8310 Cl    221  CLM221     -0.0870
      3 CL2         0.0930   18.6140   13.9140 Cl    221  CLM221     -0.0870
      4  C2         0.0050   16.0320   14.4510 C.2   221  CLM221      0.2720
      5  O2        -0.6570   15.5130   13.5680 O.2   221  CLM221     -0.2706
      6  N2        -0.0760   15.6890   15.7250 N.am  221  CLM221     -0.1994
      7  C3        -0.9750   14.6590   16.2370 C.3   221  CLM221      0.1626
      8  C4        -1.8070   15.2530   17.3290 C.3   221  CLM221      0.2065
      9  O4        -2.7700   14.3950   17.8800 O.3   221  CLM221     -0.2184
     10  C5        -0.2460   13.3760   16.5450 C.3   221  CLM221      0.1966
     11  O5         0.5730   13.7080   17.6660 O.3   221  CLM221     -0.2163
     12  C6         0.5640   12.9390   15.3330 C.ar  221  CLM221      0.0096
     13  C7        -0.0360   12.1260   14.3620 C.ar  221  CLM221     -0.0001
     14  C8         0.6760   11.6520   13.3230 C.ar  221  CLM221      0.0238
     15  C9         1.9710   11.9880   13.2100 C.ar  221  CLM221      0.1429
     16  N9         2.8000   11.5050   12.0930 N.pl3 221  CLM221      0.0577
     17  O9A        3.8810   12.0060   11.8810 O.2   221  CLM221     -0.1261
     18  O9B        2.3000   10.5850   11.4300 O.2   221  CLM221     -0.1261
     19  C10        2.6360   12.8120   14.1440 C.ar  221  CLM221      0.0238
     20  C11        1.8990   13.2710   15.2000 C.ar  221  CLM221     -0.0001
@<TRIPOS>BOND
     1    18    16    2
     2    17    16    2
     3    16    15    1
     4     2     1    1
     5    15    14   ar
     6    15    19   ar
     7    14    13   ar
     8     5     4    2
     9     3     1    1
    10    19    20   ar
    11     1     4    1
    12    13    12   ar
    13     4     6   am
    14    20    12   ar
    15    12    10    1
    16     6     7    1
    17     7    10    1
    18     7     8    1
    19    10    11    1
    20     8     9    1
