@<TRIPOS>MOLECULE
1cle_CLL_A_1.pdb
 47 50 0 0 0
SMALL
GASTEIGER

@<TRIPOS>ATOM
      1  C1         2.1580  -15.4310   -3.0010 C.3   801  CLL801      0.0074
      2  C2         2.6370  -15.5540   -4.3760 C.3   801  CLL801      0.0443
      3  C3         3.2580  -14.3670   -4.9020 C.3   801  CLL801      0.1728
      4  C4         4.4840  -13.8700   -4.0780 C.3   801  CLL801      0.0653
      5  C5         4.2340  -13.6750   -2.5330 C.2   801  CLL801     -0.0455
      6  C6         4.7990  -12.8000   -1.9110 C.2   801  CLL801     -0.0345
      7  C7         4.5640  -12.5870   -0.4620 C.3   801  CLL801      0.0254
      8  C8         3.3630  -13.3130    0.1540 C.3   801  CLL801      0.0046
      9  C9         2.4230  -13.9300   -0.9760 C.3   801  CLL801      0.0038
     10  C10        3.1860  -14.7120   -1.9100 C.3   801  CLL801      0.0151
     11  C11        1.1210  -14.5600   -0.2840 C.3   801  CLL801      0.0003
     12  C12        0.4680  -13.5540    0.7400 C.3   801  CLL801      0.0000
     13  C13        1.4000  -13.1120    1.8480 C.3   801  CLL801      0.0000
     14  C14        2.6080  -12.4100    1.2350 C.3   801  CLL801      0.0003
     15  C15        3.3380  -11.7100    2.3710 C.3   801  CLL801      0.0000
     16  C16        2.1270  -11.3580    3.1330 C.3   801  CLL801      0.0000
     17  C17        0.7920  -11.9480    2.6810 C.3   801  CLL801      0.0003
     18  C18        1.8650  -14.2870    2.7900 C.3   801  CLL801      0.0000
     19  C19        4.0320  -15.8780   -1.2150 C.3   801  CLL801      0.0040
     20  C20       -0.2890  -12.2200    3.7160 C.3   801  CLL801      0.0043
     21  C21       -1.5310  -12.8190    3.1770 C.3   801  CLL801      0.0003
     22  C22       -0.5080  -10.9980    4.5740 C.3   801  CLL801      0.0257
     23  C23       -1.4810  -10.9800    5.6900 C.2   801  CLL801     -0.0307
     24  C24       -2.7000  -10.1760    5.4530 C.2   801  CLL801     -0.0310
     25  C25       -3.6390   -9.7460    6.5560 C.3   801  CLL801      0.0217
     26  C26       -3.8050  -10.7060    7.6650 C.3   801  CLL801      0.0047
     27  C27       -4.8140   -8.9530    6.1180 C.3   801  CLL801      0.0047
     28  C28        4.0200  -14.1900   -7.0150 C.2   801  CLL801      0.3172
     29  C29        4.8100  -14.7290   -8.2830 C.3   801  CLL801      0.1142
     30  C30        4.3170  -15.8400   -9.1320 C.3   801  CLL801      0.0373
     31  C31        4.8760  -17.1760   -8.8250 C.2   801  CLL801     -0.0301
     32  C32        5.2940  -17.9910   -9.9840 C.2   801  CLL801     -0.0307
     33  C33        4.9480  -17.4320  -11.3040 C.3   801  CLL801      0.0260
     34  C34        5.4880  -18.4320  -12.3400 C.3   801  CLL801      0.0093
     35  C35        5.1460  -18.0900  -13.8040 C.3   801  CLL801      0.0260
     36  C36        6.2160  -18.6790  -14.6310 C.2   801  CLL801     -0.0307
     37  C37        6.1870  -18.5790  -16.0900 C.2   801  CLL801     -0.0304
     38  C38        5.1430  -17.8680  -16.8450 C.3   801  CLL801      0.0303
     39  C39        5.2100  -18.1580  -18.2870 C.3   801  CLL801      0.0303
     40  C40        4.6550  -17.1100  -19.1470 C.2   801  CLL801     -0.0304
     41  C41        4.1190  -15.8460  -18.6710 C.2   801  CLL801     -0.0307
     42  C42        3.7540  -14.7640  -19.6050 C.3   801  CLL801      0.0257
     43  C43        5.0720  -14.2880  -20.2320 C.3   801  CLL801      0.0047
     44  C44        5.2530  -12.7610  -19.9710 C.3   801  CLL801      0.0003
     45  C45        4.2220  -11.9530  -20.4890 C.3   801  CLL801      0.0000
     46  O1         3.7900  -13.0220   -7.1160 O.2   801  CLL801     -0.2501
     47  O2         3.7110  -14.5550   -6.2060 O.3   801  CLL801     -0.4519
@<TRIPOS>BOND
     1    45    44    1
     2    43    44    1
     3    43    42    1
     4    42    41    1
     5    40    41    2
     6    40    39    1
     7    39    38    1
     8    38    37    1
     9    37    36    2
    10    36    35    1
    11    35    34    1
    12    34    33    1
    13    33    32    1
    14    32    31    2
    15    30    31    1
    16    30    29    1
    17    29    28    1
    18    46    28    2
    19    28    47    1
    20    47     3    1
    21     3     2    1
    22     3     4    1
    23     2     1    1
    24     4     5    1
    25     1    10    1
    26     5     6    2
    27     5    10    1
    28     6     7    1
    29    10    19    1
    30    10     9    1
    31     9    11    1
    32     9     8    1
    33     7     8    1
    34    11    12    1
    35     8    14    1
    36    12    13    1
    37    14    13    1
    38    14    15    1
    39    13    17    1
    40    13    18    1
    41    15    16    1
    42    17    16    1
    43    17    20    1
    44    21    20    1
    45    20    22    1
    46    22    23    1
    47    24    23    2
    48    24    25    1
    49    27    25    1
    50    25    26    1
