@<TRIPOS>MOLECULE
1clq_GDP_A_1.pdb
 28 30 0 0 0
SMALL
GASTEIGER

@<TRIPOS>ATOM
      1  PB        56.3770   -6.1580   36.9280 P.3   999  GDP999      0.5373
      2  O1B       56.5990   -5.3170   35.6900 O.2   999  GDP999     -0.2221
      3  O2B       57.5650   -6.6760   37.4930 O.3   999  GDP999     -0.1143
      4  O3B       55.4040   -5.3500   37.9860 O.3   999  GDP999     -0.1143
      5  O3A       55.5770   -7.4550   36.4650 O.3   999  GDP999     -0.2261
      6  PA        56.0370   -9.0630   36.5760 P.3   999  GDP999      0.2231
      7  O1A       57.2450   -9.3170   35.6750 O.2   999  GDP999     -0.5169
      8  O2A       56.2600   -9.3200   38.0530 O.3   999  GDP999     -0.4370
      9  O5'       54.8350   -9.7440   35.9400 O.3   999  GDP999     -0.3111
     10  C5'       54.7980  -11.1830   35.9600 C.3   999  GDP999      0.1813
     11  C4'       53.5690  -11.7850   36.4080 C.3   999  GDP999      0.1799
     12  O4'       52.8590  -12.2960   35.1760 O.3   999  GDP999     -0.3326
     13  C3'       53.7770  -13.1030   37.2330 C.3   999  GDP999      0.2158
     14  O3'       52.5830  -13.2230   38.1260 O.3   999  GDP999     -0.2175
     15  C2'       53.7900  -14.2460   36.1590 C.3   999  GDP999      0.2310
     16  O2'       53.6280  -15.6150   36.5490 O.3   999  GDP999     -0.2158
     17  C1'       52.6300  -13.7750   35.2710 C.3   999  GDP999      0.2293
     18  N9        52.5150  -14.3740   33.9150 N.pl3 999  GDP999     -0.2354
     19  C8        51.6540  -15.5880   33.7800 C.3   999  GDP999      0.2246
     20  N7        51.8630  -15.7360   32.4120 N.2   999  GDP999     -0.2322
     21  C5        52.6280  -14.8760   31.7430 C.2   999  GDP999      0.2182
     22  C6        53.1800  -14.5370   30.4660 C.1   999  GDP999      0.2372
     23  O6        52.8240  -15.3020   29.4110 O.2   999  GDP999     -0.2069
     24  N1        53.9890  -13.4820   30.2570 N.2   999  GDP999     -0.2485
     25  C2        54.3740  -12.6390   31.4290 C.1   999  GDP999      0.2531
     26  N2        55.1600  -11.6670   31.0230 N.pl3 999  GDP999     -0.0226
     27  N3        53.9210  -12.8950   32.5950 N.2   999  GDP999     -0.3074
     28  C4        53.1260  -13.9620   32.7800 C.2   999  GDP999      0.2300
@<TRIPOS>BOND
     1    23    22    2
     2    24    22    2
     3    24    25    2
     4    22    21    1
     5    26    25    1
     6    25    27    2
     7    21    20    2
     8    21    28    1
     9    20    19    1
    10    27    28    2
    11    28    18    1
    12    19    18    1
    13    18    17    1
    14    12    17    1
    15    12    11    1
    16    17    15    1
    17     7     6    2
    18     2     1    2
    19     9    10    1
    20     9     6    1
    21    10    11    1
    22    15    16    1
    23    15    13    1
    24    11    13    1
    25     5     6    1
    26     5     1    1
    27     6     8    1
    28     1     3    1
    29     1     4    1
    30    13    14    1
