@<TRIPOS>MOLECULE
1cls_HEM_A_1.pdb
 43 50 0 0 0
SMALL
GASTEIGER

@<TRIPOS>ATOM
      1 FE         18.4810   18.3860   23.5710 Fe    142  HEM142      0.0000
      2  CHA       18.5500   18.6680   20.2660 C.2   142  HEM142      0.0000
      3  CHB       21.1430   20.5510   23.9000 C.2   142  HEM142      0.0000
      4  CHC       18.3860   18.0010   26.9680 C.2   142  HEM142      0.0000
      5  CHD       16.4630   15.5570   23.2830 C.2   142  HEM142      0.0000
      6  NA        19.6540   19.3600   22.3000 N.2   142  HEM142      0.0000
      7  C1A       19.4730   19.4230   20.9330 C.2   142  HEM142      0.0000
      8  C2A       20.3770   20.4120   20.4030 C.2   142  HEM142      0.0000
      9  C3A       21.1230   20.9020   21.3890 C.2   142  HEM142      0.0000
     10  C4A       20.6800   20.2530   22.6030 C.2   142  HEM142      0.0000
     11  CMA       22.2670   21.9370   21.3650 C.3   142  HEM142      0.0000
     12  CAA       20.4440   20.8420   18.8930 C.3   142  HEM142      0.0000
     13  CBA       20.9840   19.7800   17.9790 C.3   142  HEM142      0.0000
     14  CGA       21.3380   20.2830   16.5560 C.2   142  HEM142      0.0000
     15  O1A       21.7830   19.3260   15.8510 O.co2 142  HEM142      0.0000
     16  O2A       21.1610   21.5320   16.3730 O.co2 142  HEM142      0.0000
     17  NB        19.6140   19.1160   25.1390 N.ar  142  HEM142      0.0000
     18  C1B       20.6480   20.0120   25.0820 C.ar  142  HEM142      0.0000
     19  C2B       21.0110   20.4070   26.4070 C.ar  142  HEM142      0.0000
     20  C3B       20.2600   19.6840   27.2550 C.ar  142  HEM142      0.0000
     21  C4B       19.3610   18.8560   26.4790 C.ar  142  HEM142      0.0000
     22  CMB       22.1210   21.4320   26.7150 C.3   142  HEM142      0.0000
     23  CAB       20.2870   19.6280   28.8120 C.2   142  HEM142      0.0000
     24  CBB       21.5210   19.5950   29.3930 C.2   142  HEM142      0.0000
     25  NC        17.5970   17.0610   24.8830 N.2   142  HEM142      0.0000
     26  C1C       17.6710   17.0530   26.2600 C.2   142  HEM142      0.0000
     27  C2C       17.0920   15.8410   26.7650 C.2   142  HEM142      0.0000
     28  C3C       16.6040   15.1310   25.7280 C.2   142  HEM142      0.0000
     29  C4C       16.7730   15.9770   24.5470 C.2   142  HEM142      0.0000
     30  CMC       16.9820   15.4280   28.2510 C.3   142  HEM142      0.0000
     31  CAC       15.8710   13.7790   25.6760 C.2   142  HEM142      0.0000
     32  CBC       16.1930   12.7340   26.4530 C.2   142  HEM142      0.0000
     33  ND        17.6270   17.2870   22.0860 N.ar  142  HEM142      0.0000
     34  C1D       16.8390   16.1910   22.1210 C.ar  142  HEM142      0.0000
     35  C2D       16.5590   15.7230   20.7820 C.ar  142  HEM142      0.0000
     36  C3D       17.2110   16.5350   19.9660 C.ar  142  HEM142      0.0000
     37  C4D       17.8620   17.5720   20.7240 C.ar  142  HEM142      0.0000
     38  CMD       15.7510   14.4600   20.4430 C.3   142  HEM142      0.0000
     39  CAD       17.2230   16.5130   18.3990 C.3   142  HEM142      0.0000
     40  CBD       18.3120   15.6210   17.8200 C.3   142  HEM142      0.0000
     41  CGD       18.2970   15.6290   16.2630 C.2   142  HEM142      0.0000
     42  O1D       19.3140   16.1460   15.7710 O.co2 142  HEM142      0.0000
     43  O2D       17.3040   15.0300   15.8300 O.co2 142  HEM142      0.0000
@<TRIPOS>BOND
     1    42    41   ar
     2    43    41   ar
     3    15    14   ar
     4    41    40    1
     5    16    14   ar
     6    14    13    1
     7    40    39    1
     8    13    12    1
     9    39    36    1
    10    12     8    1
    11    36    37   ar
    12    36    35   ar
    13     2    37    2
    14     2     7    1
    15     8     7    1
    16     8     9    2
    17    38    35    1
    18    37    33   ar
    19    35    34   ar
    20     7     6    2
    21    11     9    1
    22     9    10    1
    23    33    34   ar
    24    33     1    1
    25    34     5    2
    26     6    10    1
    27     6     1    1
    28    10     3    2
    29     5    29    1
    30     1    25    1
    31     1    17    1
    32     3    18    1
    33    29    25    2
    34    29    28    1
    35    25    26    1
    36    18    17   ar
    37    18    19   ar
    38    17    21   ar
    39    31    28    1
    40    31    32    2
    41    28    27    2
    42    26    27    1
    43    26     4    2
    44    19    22    1
    45    19    20   ar
    46    21     4    1
    47    21    20   ar
    48    27    30    1
    49    20    23    1
    50    23    24    2
