@<TRIPOS>MOLECULE
1cls_DEC_D_1.pdb
 12 11 0 0 0
SMALL
GASTEIGER

@<TRIPOS>ATOM
      1  C1         8.1600   -3.4400   44.7550 C.2   149  DEC149      0.2074
      2  O1         8.1010   -2.1770   44.6690 O.2   149  DEC149     -0.2883
      3  C2         7.1210   -4.2010   43.9640 C.3   149  DEC149      0.0722
      4  C3         6.9150   -5.6920   44.0720 C.3   149  DEC149      0.0082
      5  C4         6.6640   -6.4200   42.7550 C.3   149  DEC149      0.0005
      6  C5         6.7170   -5.5220   41.4990 C.3   149  DEC149      0.0000
      7  C6         8.1780   -5.4180   41.0200 C.3   149  DEC149      0.0003
      8  C7         8.3760   -4.5170   39.7910 C.3   149  DEC149      0.0048
      9  C8         7.3530   -4.8030   38.6670 C.3   149  DEC149      0.0295
     10  C9         6.2750   -3.7630   38.6080 C.2   149  DEC149      0.0192
     11  C10        5.2820   -3.5410   37.4970 C.2   149  DEC149      0.2297
     12  O3         4.6540   -2.4120   37.5160 O.2   149  DEC149     -0.2835
@<TRIPOS>BOND
     1    11    12    1
     2    11    10    2
     3    10     9    1
     4     9     8    1
     5     8     7    1
     6     7     6    1
     7     6     5    1
     8     5     4    1
     9     3     4    1
    10     3     1    1
    11     2     1    2
