@<TRIPOS>MOLECULE
1clu_DBG_A_1.pdb
 33 35 0 0 0
SMALL
GASTEIGER

@<TRIPOS>ATOM
      1  C10        5.6850   33.3690   24.7920 C.3   167  DBG167      0.1189
      2  N3G        5.4530   33.3920   23.4430 N.3   167  DBG167     -0.1283
      3  PG         5.6370   32.6640   22.1030 P.3   167  DBG167      0.4131
      4  O1G        5.4220   31.2260   22.3480 O.3   167  DBG167     -0.1348
      5  O2G        4.6450   33.1780   21.1760 O.2   167  DBG167     -0.2487
      6  N3B        7.1290   32.9080   21.5480 N.3   167  DBG167     -0.0283
      7  PB         7.5520   32.3960   20.0850 P.3   167  DBG167      0.4661
      8  O1B        7.6270   30.9150   20.0000 O.3   167  DBG167     -0.1253
      9  O2B        6.7110   32.9950   19.0510 O.2   167  DBG167     -0.2352
     10  O3A        9.0390   32.9840   19.9020 O.3   167  DBG167     -0.2360
     11  PA         9.5350   34.4850   19.5530 P.3   167  DBG167      0.2220
     12  O1A        9.5520   34.7300   18.0710 O.2   167  DBG167     -0.5170
     13  O2A        8.7410   35.4670   20.3200 O.3   167  DBG167     -0.4370
     14  O5'       11.0240   34.4410   20.0970 O.3   167  DBG167     -0.3111
     15  C5'       11.3590   34.1760   21.4430 C.3   167  DBG167      0.1813
     16  C4'       12.7400   34.6550   21.7240 C.3   167  DBG167      0.1799
     17  O4'       13.7150   33.9180   20.9460 O.3   167  DBG167     -0.3326
     18  C2'       13.5560   36.0260   19.9230 C.3   167  DBG167      0.2310
     19  O2'       14.3140   37.1610   19.5760 O.3   167  DBG167     -0.2158
     20  C3'       12.9730   36.1350   21.3500 C.3   167  DBG167      0.2158
     21  O3'       13.8980   36.7400   22.2500 O.3   167  DBG167     -0.2175
     22  C1'       14.4370   34.8000   20.0490 C.3   167  DBG167      0.2293
     23  N9        14.6250   34.0700   18.7920 N.pl3 167  DBG167     -0.2354
     24  C4        15.7880   33.5970   18.3170 C.2   167  DBG167      0.2300
     25  N3        16.9900   33.7790   18.8720 N.2   167  DBG167     -0.3074
     26  C2        18.0140   33.2770   18.1650 C.1   167  DBG167      0.2531
     27  N2        19.2830   33.5280   18.5300 N.pl3 167  DBG167     -0.0226
     28  N1        17.7890   32.4900   17.0170 N.2   167  DBG167     -0.2485
     29  C6        16.5770   32.4560   16.3380 C.1   167  DBG167      0.2372
     30  O6        16.5080   31.8990   15.2410 O.2   167  DBG167     -0.2069
     31  C5        15.5050   32.9840   17.1350 C.2   167  DBG167      0.2182
     32  N7        14.1160   32.9560   16.9170 N.2   167  DBG167     -0.2322
     33  C8        13.6690   33.5400   17.9640 C.3   167  DBG167      0.2246
@<TRIPOS>BOND
     1    30    29    2
     2    29    28    2
     3    29    31    1
     4    32    31    2
     5    32    33    1
     6    28    26    2
     7    31    24    1
     8    33    23    1
     9    12    11    2
    10    26    27    1
    11    26    25    2
    12    24    23    1
    13    24    25    2
    14    23    22    1
    15     9     7    2
    16    11    10    1
    17    11    14    1
    18    11    13    1
    19    19    18    1
    20    10     7    1
    21    18    22    1
    22    18    20    1
    23     8     7    1
    24    22    17    1
    25     7     6    1
    26    14    15    1
    27    17    16    1
    28     5     3    2
    29    20    16    1
    30    20    21    1
    31    15    16    1
    32     6     3    1
    33     3     4    1
    34     3     2    1
    35     2     1    1
