@<TRIPOS>MOLECULE
1cly_GAL_H_1.pdb
 11 11 0 0 0
SMALL
GASTEIGER

@<TRIPOS>ATOM
      1  C1       -19.3540   -9.5200  144.7450 C.3   229  GAL229      0.1777
      2  C2       -19.1400   -9.9250  143.3000 C.3   229  GAL229      0.2141
      3  C3       -17.6710  -10.2900  143.0950 C.3   229  GAL229      0.2173
      4  C4       -16.8050   -9.0870  143.4830 C.3   229  GAL229      0.2142
      5  C5       -17.1230   -8.6850  144.9240 C.3   229  GAL229      0.1810
      6  C6       -16.3370   -7.4780  145.4080 C.3   229  GAL229      0.2141
      7  O2       -19.9820  -11.0470  142.9680 O.3   229  GAL229     -0.2176
      8  O3       -17.4450  -10.6440  141.7350 O.3   229  GAL229     -0.2175
      9  O4       -17.0930   -8.0020  142.6070 O.3   229  GAL229     -0.2176
     10  O5       -18.5300   -8.3760  145.0440 O.3   229  GAL229     -0.3481
     11  O6       -16.2710   -6.4680  144.4160 O.3   229  GAL229     -0.2176
@<TRIPOS>BOND
     1     8     3    1
     2     9     4    1
     3     7     2    1
     4     3     2    1
     5     3     4    1
     6     2     1    1
     7     4     5    1
     8    11     6    1
     9     1    10    1
    10     5    10    1
    11     5     6    1
