@<TRIPOS>MOLECULE
1cly_NON_H_1.pdb
 12 11 0 0 0
SMALL
GASTEIGER

@<TRIPOS>ATOM
      1  C1       -28.0330   -3.2910  152.1660 C.2   232  NON232      0.3171
      2  C2       -27.7420   -4.4710  153.0700 C.3   232  NON232      0.1096
      3  C3       -26.6180   -5.3490  152.5370 C.3   232  NON232      0.0116
      4  C4       -27.1560   -6.2810  151.5160 C.3   232  NON232      0.0006
      5  C5       -27.8010   -7.4290  152.2120 C.3   232  NON232      0.0000
      6  C6       -26.8650   -8.5840  152.2360 C.3   232  NON232      0.0000
      7  C7       -26.4230   -8.8760  150.8300 C.3   232  NON232      0.0000
      8  C8       -25.8530  -10.2550  150.7550 C.3   232  NON232      0.0000
      9  C9       -25.1560  -10.4770  149.4460 C.3   232  NON232      0.0000
     10  O1       -27.3010   -2.8820  151.3000 O.2   232  NON232     -0.2501
     11  O2       -29.2030   -2.6880  152.4230 O.3   232  NON232     -0.4444
     12  CM       -29.6140   -1.6500  151.4900 C.3   232  NON232      0.2556
@<TRIPOS>BOND
     1     9     8    1
     2     8     7    1
     3     7     6    1
     4    10     1    2
     5    12    11    1
     6     4     5    1
     7     4     3    1
     8     1    11    1
     9     1     2    1
    10     5     6    1
    11     3     2    1
