@<TRIPOS>MOLECULE
1cly_FUC_H_1.pdb
 10 10 0 0 0
SMALL
GASTEIGER

@<TRIPOS>ATOM
      1  C1       -21.8500   -5.7350  145.8530 C.3   231  FUC231      0.1776
      2  C2       -21.0540   -4.4750  146.2030 C.3   231  FUC231      0.2141
      3  C3       -19.6350   -4.6220  145.6760 C.3   231  FUC231      0.2172
      4  C4       -19.7120   -4.8050  144.1710 C.3   231  FUC231      0.2116
      5  C5       -20.5850   -6.0030  143.8050 C.3   231  FUC231      0.1483
      6  C6       -20.8120   -6.0650  142.3010 C.3   231  FUC231      0.0349
      7  O2       -21.0170   -4.2920  147.6120 O.3   231  FUC231     -0.2176
      8  O3       -18.9000   -3.4450  145.9830 O.3   231  FUC231     -0.2175
      9  O4       -20.2790   -3.6370  143.6030 O.3   231  FUC231     -0.2177
     10  O5       -21.8860   -5.9000  144.4350 O.3   231  FUC231     -0.3508
@<TRIPOS>BOND
     1     6     5    1
     2     9     4    1
     3     5     4    1
     4     5    10    1
     5     4     3    1
     6    10     1    1
     7     3     8    1
     8     3     2    1
     9     1     2    1
    10     2     7    1
