@<TRIPOS>MOLECULE
1clz_NON_H_1.pdb
 12 11 0 0 0
SMALL
GASTEIGER

@<TRIPOS>ATOM
      1  C1        42.2860   74.6350  -28.0850 C.2   236  NON236      0.3171
      2  C2        43.3220   75.6670  -27.6700 C.3   236  NON236      0.1096
      3  C3        42.7010   76.9130  -27.0700 C.3   236  NON236      0.0116
      4  C4        41.7870   77.5930  -28.0640 C.3   236  NON236      0.0006
      5  C5        40.9280   78.6310  -27.3830 C.3   236  NON236      0.0000
      6  C6        40.0000   79.3110  -28.3620 C.3   236  NON236      0.0000
      7  C7        38.9620   80.1180  -27.6240 C.3   236  NON236      0.0000
      8  C8        39.6030   81.1820  -26.7560 C.3   236  NON236      0.0000
      9  C9        38.6070   81.7670  -25.7690 C.3   236  NON236      0.0000
     10  O1        41.0940   74.7550  -27.9330 O.2   236  NON236     -0.2501
     11  O2        42.8480   73.5420  -28.6480 O.3   236  NON236     -0.4444
     12  CM        42.2530   73.0130  -29.8650 C.3   236  NON236      0.2556
@<TRIPOS>BOND
     1    12    11    1
     2    11     1    1
     3     6     7    1
     4     6     5    1
     5     1    10    2
     6     1     2    1
     7     4     5    1
     8     4     3    1
     9     2     3    1
    10     7     8    1
    11     8     9    1
