@<TRIPOS>MOLECULE
1clz_FUC_H_1.pdb
 10 10 0 0 0
SMALL
GASTEIGER

@<TRIPOS>ATOM
      1  C1        34.1860   76.5780  -24.0060 C.3   235  FUC235      0.1776
      2  C2        34.3870   75.3960  -23.0540 C.3   235  FUC235      0.2141
      3  C3        33.4230   75.5010  -21.8920 C.3   235  FUC235      0.2172
      4  C4        31.9950   75.5470  -22.4260 C.3   235  FUC235      0.2116
      5  C5        31.8330   76.7110  -23.4070 C.3   235  FUC235      0.1483
      6  C6        30.4720   76.7210  -24.0810 C.3   235  FUC235      0.0349
      7  O2        35.7180   75.3580  -22.5670 O.3   235  FUC235     -0.2176
      8  O3        33.5920   74.3760  -21.0470 O.3   235  FUC235     -0.2175
      9  O4        31.6940   74.3260  -23.0860 O.3   235  FUC235     -0.2177
     10  O5        32.8260   76.6330  -24.4550 O.3   235  FUC235     -0.3508
@<TRIPOS>BOND
     1    10     1    1
     2    10     5    1
     3     6     5    1
     4     1     2    1
     5     5     4    1
     6     9     4    1
     7     2     7    1
     8     2     3    1
     9     4     3    1
    10     3     8    1
