@<TRIPOS>MOLECULE
1clz_GAL_H_1.pdb
 11 11 0 0 0
SMALL
GASTEIGER

@<TRIPOS>ATOM
      1  C1        32.1670   80.4940  -22.6640 C.3   233  GAL233      0.1777
      2  C2        30.6890   80.4820  -22.9320 C.3   233  GAL233      0.2141
      3  C3        29.9160   80.8390  -21.6830 C.3   233  GAL233      0.2173
      4  C4        30.3270   79.9400  -20.5350 C.3   233  GAL233      0.2142
      5  C5        31.8410   79.9940  -20.3620 C.3   233  GAL233      0.1810
      6  C6        32.3950   79.0970  -19.2690 C.3   233  GAL233      0.2141
      7  O2        30.3940   81.4430  -23.9540 O.3   233  GAL233     -0.2176
      8  O3        28.5430   80.6400  -21.9480 O.3   233  GAL233     -0.2175
      9  O4        29.9060   78.6200  -20.8340 O.3   233  GAL233     -0.2176
     10  O5        32.4850   79.6180  -21.5860 O.3   233  GAL233     -0.3481
     11  O6        31.6540   77.9000  -19.1400 O.3   233  GAL233     -0.2176
@<TRIPOS>BOND
     1     7     2    1
     2     2     1    1
     3     2     3    1
     4     1    10    1
     5     8     3    1
     6     3     4    1
     7    10     5    1
     8     9     4    1
     9     4     5    1
    10     5     6    1
    11     6    11    1
