@<TRIPOS>MOLECULE
1cm0_COA_A_1.pdb
 48 50 0 0 0
SMALL
GASTEIGER

@<TRIPOS>ATOM
      1  N1A       51.3750   20.4560   14.1170 N.2   701  COA701      0.0021
      2  C2A       50.5370   19.3440   14.0310 C.3   701  COA701      0.5254
      3  N3A       49.4080   19.2560   13.2970 N.2   701  COA701     -0.0055
      4  C4A       49.1240   20.3870   12.6190 C.2   701  COA701      0.3518
      5  C5A       49.8760   21.6030   12.5750 C.2   701  COA701      0.2526
      6  C6A       51.1310   21.6020   13.3720 C.2   701  COA701      0.4393
      7  N6A       51.8980   22.6360   13.4540 N.pl3 701  COA701      0.2180
      8  N7A       49.3210   22.5170   11.7410 N.2   701  COA701     -0.2095
      9  C8A       48.2790   21.8630   11.1770 C.3   701  COA701      0.3377
     10  N9A       48.0450   20.6180   11.7600 N.pl3 701  COA701     -0.1439
     11  C1B       46.8920   19.6730   11.5410 C.3   701  COA701      0.3185
     12  C2B       45.5670   20.3320   11.6320 C.3   701  COA701      0.2543
     13  O2B       45.2600   20.6720   12.9780 O.3   701  COA701     -0.2131
     14  C3B       44.6350   19.2300   11.0920 C.3   701  COA701      0.1928
     15  O3B       44.2840   18.2640   12.0170 O.3   701  COA701     -0.2673
     16  P3B       42.8790   17.4730   11.5750 P.3   701  COA701      0.5327
     17  O7A       41.7360   18.5840   11.5590 O.3   701  COA701     -0.1145
     18  O8A       42.4620   16.3810   12.6690 O.3   701  COA701     -0.1145
     19  O9A       43.0960   16.8510   10.1230 O.2   701  COA701     -0.2224
     20  C4B       45.4470   18.7630    9.8390 C.3   701  COA701      0.1795
     21  O4B       46.8810   19.1260   10.1780 O.3   701  COA701     -0.3136
     22  C5B       44.9920   19.2750    8.4710 C.3   701  COA701      0.1812
     23  O5B       45.6460   20.5570    8.2260 O.3   701  COA701     -0.3112
     24  P1A       45.1500   21.4980    6.9820 P.3   701  COA701      0.2189
     25  O1A       43.7760   22.0360    7.2550 O.3   701  COA701     -0.4371
     26  O2A       45.3430   20.8810    5.6260 O.2   701  COA701     -0.5170
     27  O3A       46.1040   22.6470    7.1490 O.3   701  COA701     -0.2703
     28  P2A       45.9490   24.2510    7.1560 P.3   701  COA701      0.2188
     29  O4A       45.6250   24.7810    5.7950 O.2   701  COA701     -0.5170
     30  O5A       44.9620   24.7890    8.1640 O.3   701  COA701     -0.4371
     31  O6A       47.4400   24.6250    7.7080 O.3   701  COA701     -0.3138
     32  CBP       49.7880   25.1600    7.6500 C.3   701  COA701      0.0645
     33  CCP       48.6290   24.2900    7.0720 C.3   701  COA701      0.1519
     34  CDP       50.7860   24.3320    8.5430 C.3   701  COA701      0.0056
     35  CEP       50.4450   25.5880    6.3190 C.3   701  COA701      0.0056
     36  CAP       49.2040   26.3810    8.5340 C.3   701  COA701      0.2312
     37  OAP       48.8170   25.9380    9.8810 O.3   701  COA701     -0.2131
     38  C9P       50.2190   27.5060    8.6870 C.2   701  COA701      0.2719
     39  O9P       50.3170   28.4810    7.7520 O.2   701  COA701     -0.2706
     40  N8P       50.9760   27.4280    9.7580 N.am  701  COA701     -0.2028
     41  C7P       51.8730   28.4850   10.2090 C.3   701  COA701      0.1248
     42  C6P       53.2060   28.3040    9.4910 C.3   701  COA701      0.1102
     43  C5P       53.7600   26.9300    9.7350 C.2   701  COA701      0.2432
     44  O5P       53.8720   26.4360   10.9230 O.2   701  COA701     -0.2733
     45  N4P       54.1090   26.2890    8.6350 N.am  701  COA701     -0.2044
     46  C3P       54.6940   24.8730    8.6040 C.3   701  COA701      0.1276
     47  C2P       54.9630   24.5230    7.1490 C.3   701  COA701      0.0920
     48  S1P       53.4800   23.8660    6.2560 S.3   701  COA701     -0.0802
@<TRIPOS>BOND
     1    26    24    2
     2    29    28    2
     3    48    47    1
     4    35    32    1
     5    24    27    1
     6    24    25    1
     7    24    23    1
     8    33    32    1
     9    33    31    1
    10    47    46    1
    11    27    28    1
    12    28    31    1
    13    28    30    1
    14    32    36    1
    15    32    34    1
    16    39    38    2
    17    23    22    1
    18    22    20    1
    19    36    38    1
    20    36    37    1
    21    46    45    1
    22    45    43   am
    23    38    40   am
    24    42    43    1
    25    42    41    1
    26    43    44    2
    27    40    41    1
    28    20    21    1
    29    20    14    1
    30    19    16    2
    31    21    11    1
    32    14    12    1
    33    14    15    1
    34     9     8    1
    35     9    10    1
    36    11    12    1
    37    11    10    1
    38    17    16    1
    39    16    15    1
    40    16    18    1
    41    12    13    1
    42     8     5    2
    43    10     4    1
    44     5     4    1
    45     5     6    1
    46     4     3    2
    47     3     2    1
    48     6     7    1
    49     6     1    2
    50     2     1    1
