@<TRIPOS>MOLECULE
1cm8_ANP_A_1.pdb
 31 33 0 0 0
SMALL
GASTEIGER

@<TRIPOS>ATOM
      1  PG        44.0370   79.0540    8.8610 P.3   400  ANP400      0.4884
      2  O1G       43.8710   80.6030    8.7970 O.2   400  ANP400     -0.2331
      3  O2G       42.8040   78.4460    9.6880 O.3   400  ANP400     -0.1240
      4  O3G       45.4150   78.7940    9.6220 O.3   400  ANP400     -0.1240
      5  PB        45.2070   78.2850    6.4710 P.3   400  ANP400      0.4669
      6  O1B       45.3570   79.5200    5.5230 O.2   400  ANP400     -0.2351
      7  O2B       46.4440   77.8450    7.2740 O.3   400  ANP400     -0.1253
      8  N3B       44.0260   78.5470    7.4170 N.3   400  ANP400     -0.0163
      9  PA        43.6360   76.1220    5.3590 P.3   400  ANP400      0.2220
     10  O1A       44.2180   74.7200    4.9570 O.2   400  ANP400     -0.5170
     11  O2A       42.9820   76.0370    6.7070 O.3   400  ANP400     -0.4370
     12  O3A       44.8790   77.2260    5.3330 O.3   400  ANP400     -0.2360
     13  O5'       42.5200   76.5560    4.3020 O.3   400  ANP400     -0.3111
     14  C5'       41.8300   77.8580    4.3670 C.3   400  ANP400      0.1813
     15  C4'       40.6420   77.7200    3.4270 C.3   400  ANP400      0.1821
     16  O4'       41.0360   76.9440    2.2980 O.3   400  ANP400     -0.3135
     17  C3'       39.5600   76.8220    4.0490 C.3   400  ANP400      0.2184
     18  O3'       38.6090   77.6300    4.7450 O.3   400  ANP400     -0.2174
     19  C2'       38.8620   76.0980    2.8900 C.3   400  ANP400      0.2570
     20  O2'       37.9970   76.9210    2.1710 O.3   400  ANP400     -0.2130
     21  C1'       40.0710   75.9510    1.9950 C.3   400  ANP400      0.3186
     22  N9        40.4750   74.6510    1.7730 N.pl3 400  ANP400     -0.1439
     23  C8        41.6460   74.0920    2.2670 C.3   400  ANP400      0.3377
     24  N7        41.8380   72.8230    1.8290 N.2   400  ANP400     -0.2095
     25  C5        40.7470   72.5940    1.0260 C.2   400  ANP400      0.2526
     26  C6        40.3430   71.5340    0.2490 C.2   400  ANP400      0.4393
     27  N6        41.1300   70.3700    0.2150 N.pl3 400  ANP400      0.2180
     28  N1        39.2050   71.6890   -0.4350 N.2   400  ANP400      0.0021
     29  C2        38.4260   72.7750   -0.4240 C.3   400  ANP400      0.5254
     30  N3        38.6990   73.8760    0.2830 N.2   400  ANP400     -0.0055
     31  C4        39.8520   73.7740    0.9920 C.2   400  ANP400      0.3518
@<TRIPOS>BOND
     1    28    29    1
     2    28    26    2
     3    29    30    1
     4    27    26    1
     5    26    25    1
     6    30    31    2
     7    31    25    1
     8    31    22    1
     9    25    24    2
    10    22    21    1
    11    22    23    1
    12    24    23    1
    13    21    16    1
    14    21    19    1
    15    20    19    1
    16    16    15    1
    17    19    17    1
    18    15    17    1
    19    15    14    1
    20    17    18    1
    21    13    14    1
    22    13     9    1
    23    10     9    2
    24    12     9    1
    25    12     5    1
    26     9    11    1
    27     6     5    2
    28     5     7    1
    29     5     8    1
    30     8     1    1
    31     2     1    2
    32     1     4    1
    33     1     3    1
