@<TRIPOS>MOLECULE
1cmj_HEM_A_1.pdb
 43 50 0 0 0
SMALL
GASTEIGER

@<TRIPOS>ATOM
      1 FE         51.8050   10.9710   20.4910 Fe    501  HEM501      0.0000
      2  CHA       49.2220   10.9270   22.7880 C.2   501  HEM501      0.0000
      3  CHB       49.6570    9.8100   18.0120 C.2   501  HEM501      0.0000
      4  CHC       54.2610   11.3600   18.1410 C.2   501  HEM501      0.0000
      5  CHD       53.9350   12.2080   22.9210 C.2   501  HEM501      0.0000
      6  NA        49.9050   10.4680   20.4310 N.ar  501  HEM501      0.0000
      7  C1A       48.9990   10.4480   21.4850 C.ar  501  HEM501      0.0000
      8  C2A       47.7400    9.8800   21.0470 C.ar  501  HEM501      0.0000
      9  C3A       47.8420    9.5980   19.7280 C.ar  501  HEM501      0.0000
     10  C4A       49.1800    9.9790   19.3250 C.ar  501  HEM501      0.0000
     11  CMA       46.7370    9.0070   18.8620 C.3   501  HEM501      0.0000
     12  CAA       46.5050    9.6900   21.8910 C.3   501  HEM501      0.0000
     13  CBA       45.7890   11.0190   21.9670 C.3   501  HEM501      0.0000
     14  CGA       44.4620   10.9270   22.6990 C.2   501  HEM501      0.0000
     15  O1A       43.4240   11.2800   22.0990 O.co2 501  HEM501      0.0000
     16  O2A       44.4590   10.5050   23.8740 O.co2 501  HEM501      0.0000
     17  NB        51.9490   10.6090   18.5410 N.2   501  HEM501      0.0000
     18  C1B       50.9750   10.0700   17.6610 C.2   501  HEM501      0.0000
     19  C2B       51.5150    9.8560   16.3150 C.2   501  HEM501      0.0000
     20  C3B       52.8240   10.2830   16.3910 C.2   501  HEM501      0.0000
     21  C4B       53.0620   10.7870   17.7380 C.2   501  HEM501      0.0000
     22  CMB       50.8220    9.3220   15.0450 C.3   501  HEM501      0.0000
     23  CAB       53.7990   10.1520   15.4000 C.3   501  HEM501      0.0000
     24  CBB       53.7090   10.7100   14.1220 C.3   501  HEM501      0.0000
     25  NC        53.6540   11.6780   20.5120 N.ar  501  HEM501      0.0000
     26  C1C       54.5360   11.7700   19.4320 C.ar  501  HEM501      0.0000
     27  C2C       55.8510   12.2320   19.8530 C.ar  501  HEM501      0.0000
     28  C3C       55.7800   12.4130   21.2130 C.ar  501  HEM501      0.0000
     29  C4C       54.4090   12.1000   21.6100 C.ar  501  HEM501      0.0000
     30  CMC       56.9970   12.5840   18.9160 C.3   501  HEM501      0.0000
     31  CAC       56.7810   12.8490   22.0840 C.3   501  HEM501      0.0000
     32  CBC       57.6490   13.9080   21.8310 C.3   501  HEM501      0.0000
     33  ND        51.6350   11.4300   22.4210 N.2   501  HEM501      0.0000
     34  C1D       52.6290   11.8850   23.2980 C.2   501  HEM501      0.0000
     35  C2D       52.0870   12.0700   24.6530 C.2   501  HEM501      0.0000
     36  C3D       50.7600   11.7720   24.5960 C.2   501  HEM501      0.0000
     37  C4D       50.4760   11.3720   23.2250 C.2   501  HEM501      0.0000
     38  CMD       52.8490   12.4980   25.9040 C.3   501  HEM501      0.0000
     39  CAD       49.7510   11.8920   25.7260 C.3   501  HEM501      0.0000
     40  CBD       49.0160   13.2260   25.7110 C.3   501  HEM501      0.0000
     41  CGD       47.9640   13.3270   26.8030 C.2   501  HEM501      0.0000
     42  O1D       47.6540   14.4570   27.2410 O.co2 501  HEM501      0.0000
     43  O2D       47.4430   12.2740   27.2240 O.co2 501  HEM501      0.0000
@<TRIPOS>BOND
     1    24    23    1
     2    22    19    1
     3    23    20    1
     4    19    20    2
     5    19    18    1
     6    20    21    1
     7    18     3    1
     8    18    17    2
     9    21     4    2
    10    21    17    1
    11     3    10    2
    12     4    26    1
    13    17     1    1
    14    11     9    1
    15    30    27    1
    16    10     9   ar
    17    10     6   ar
    18    26    27   ar
    19    26    25   ar
    20     9     8   ar
    21    27    28   ar
    22     6     1    1
    23     6     7   ar
    24     1    25    1
    25     1    33    1
    26    25    29   ar
    27     8     7   ar
    28     8    12    1
    29    28    29   ar
    30    28    31    1
    31     7     2    2
    32    29     5    1
    33    32    31    1
    34    12    13    1
    35    13    14    1
    36    15    14   ar
    37    33    37    2
    38    33    34    1
    39    14    16   ar
    40     2    37    1
    41     5    34    2
    42    37    36    1
    43    34    35    1
    44    36    35    2
    45    36    39    1
    46    35    38    1
    47    40    39    1
    48    40    41    1
    49    41    43   ar
    50    41    42   ar
