@<TRIPOS>MOLECULE
1cmk_MYR_E_1.pdb
 15 14 0 0 0
SMALL
GASTEIGER

@<TRIPOS>ATOM
      1  C1        48.6970   34.6470   40.9030 C.3     0  MYR0        0.1821
      2  O1        48.3540   35.5920   41.1760 O.3     0  MYR0       -0.2204
      3  C2        48.8220   34.9660   39.4440 C.3     0  MYR0        0.0355
      4  C3        49.9780   34.2400   38.8090 C.3     0  MYR0        0.0027
      5  C4        50.7960   35.2610   37.9540 C.3     0  MYR0        0.0001
      6  C5        52.2140   35.1890   38.5600 C.3     0  MYR0        0.0000
      7  C6        53.3350   35.3060   37.5290 C.3     0  MYR0        0.0000
      8  C7        54.2800   34.1360   37.7200 C.3     0  MYR0        0.0000
      9  C8        55.5910   34.6230   38.2320 C.3     0  MYR0        0.0000
     10  C9        56.1870   33.4640   39.0020 C.3     0  MYR0        0.0000
     11  C10       57.6720   33.6780   39.1530 C.3     0  MYR0        0.0000
     12  C11       58.0110   33.3970   40.5670 C.3     0  MYR0        0.0000
     13  C12       59.4910   33.5980   40.8200 C.3     0  MYR0        0.0000
     14  C13       59.9930   33.0030   42.1280 C.3     0  MYR0        0.0000
     15  C14       61.2890   32.1730   42.0440 C.3     0  MYR0        0.0000
@<TRIPOS>BOND
     1     7     8    1
     2     7     6    1
     3     8     9    1
     4     5     6    1
     5     5     4    1
     6     9    10    1
     7     4     3    1
     8    10    11    1
     9    11    12    1
    10     3     1    1
    11    12    13    1
    12    13    14    1
    13     1     2    1
    14    15    14    1
