@<TRIPOS>MOLECULE
1cml_PIN_A_1.pdb
 18 18 0 0 0
SMALL
GASTEIGER

@<TRIPOS>ATOM
      1  C1         8.4550   55.1480   50.8860 C.3   391  PIN391      0.1225
      2  C2         9.7210   54.8090   50.1140 C.3   391  PIN391      0.0939
      3  N1        10.9550   55.2500   50.7570 N.3   391  PIN391     -0.2689
      4  C3        10.8190   55.3960   52.2040 C.3   391  PIN391      0.0897
      5  C4        12.0610   54.3860   50.3850 C.3   391  PIN391      0.0897
      6  C1'       15.7010   54.7900   52.6000 C.3   391  PIN391      0.1225
      7  C2'       14.4010   55.0200   53.3300 C.3   391  PIN391      0.0939
      8  N1'       13.2060   54.7950   52.5460 N.3   391  PIN391     -0.2689
      9  C3'       13.3800   54.7560   51.0960 C.3   391  PIN391      0.0897
     10  C4'       12.1450   55.7210   52.9190 C.3   391  PIN391      0.0897
     11  S1         7.2360   55.8170   49.9330 S.3   391  PIN391     -0.1946
     12  S1'       17.0780   55.3400   53.4340 S.3   391  PIN391     -0.1946
     13  O1         5.9950   55.4890   50.4390 O.3   391  PIN391     -0.3074
     14  O2         7.4730   55.7590   48.5660 O.3   391  PIN391     -0.3074
     15  O3         7.4490   57.4180   50.2730 O.3   391  PIN391     -0.3074
     16  O1'       17.2950   54.7370   54.6590 O.3   391  PIN391     -0.3074
     17  O2'       17.0620   56.7410   53.3660 O.3   391  PIN391     -0.3074
     18  O3'       18.2190   54.8500   52.4260 O.3   391  PIN391     -0.3074
@<TRIPOS>BOND
     1    14    11    1
     2    11    15    1
     3    11    13    1
     4    11     1    1
     5     2     3    1
     6     2     1    1
     7     5     3    1
     8     5     9    1
     9     3     4    1
    10     9     8    1
    11     4    10    1
    12    18    12    1
    13     8    10    1
    14     8     7    1
    15     6     7    1
    16     6    12    1
    17    17    12    1
    18    12    16    1
