@<TRIPOS>MOLECULE
1cmn_HEM_A_1.pdb
 43 50 0 0 0
SMALL
GASTEIGER

@<TRIPOS>ATOM
      1 FE         51.8880   11.2350   20.5450 Fe    501  HEM501      0.0000
      2  CHA       49.3270   11.0610   22.8630 C.2   501  HEM501      0.0000
      3  CHB       49.7790    9.9800   18.0880 C.2   501  HEM501      0.0000
      4  CHC       54.4110   11.5800   18.2110 C.2   501  HEM501      0.0000
      5  CHD       54.0240   12.4820   22.9850 C.2   501  HEM501      0.0000
      6  NA        49.9980   10.6390   20.4970 N.ar  501  HEM501      0.0000
      7  C1A       49.0820   10.6110   21.5510 C.ar  501  HEM501      0.0000
      8  C2A       47.8090   10.0400   21.1070 C.ar  501  HEM501      0.0000
      9  C3A       47.9440    9.7360   19.7830 C.ar  501  HEM501      0.0000
     10  C4A       49.2850   10.1260   19.3910 C.ar  501  HEM501      0.0000
     11  CMA       46.8930    9.0840   18.8990 C.3   501  HEM501      0.0000
     12  CAA       46.5300    9.9040   21.9200 C.3   501  HEM501      0.0000
     13  CBA       45.8320   11.2490   22.0400 C.3   501  HEM501      0.0000
     14  CGA       44.5040   11.1590   22.7750 C.2   501  HEM501      0.0000
     15  O1A       43.4670   11.5630   22.1980 O.co2 501  HEM501      0.0000
     16  O2A       44.4940   10.6900   23.9320 O.co2 501  HEM501      0.0000
     17  NB        52.0760   10.8250   18.6120 N.2   501  HEM501      0.0000
     18  C1B       51.1030   10.2830   17.7400 C.2   501  HEM501      0.0000
     19  C2B       51.6550   10.0530   16.4030 C.2   501  HEM501      0.0000
     20  C3B       52.9540   10.4870   16.4580 C.2   501  HEM501      0.0000
     21  C4B       53.1990   10.9950   17.8180 C.2   501  HEM501      0.0000
     22  CMB       50.9440    9.4340   15.1910 C.3   501  HEM501      0.0000
     23  CAB       53.9230   10.4300   15.4470 C.3   501  HEM501      0.0000
     24  CBB       53.7130   10.9020   14.1490 C.3   501  HEM501      0.0000
     25  NC        53.8000   11.8550   20.5900 N.ar  501  HEM501      0.0000
     26  C1C       54.6850   11.9690   19.5130 C.ar  501  HEM501      0.0000
     27  C2C       55.9630   12.5140   19.9400 C.ar  501  HEM501      0.0000
     28  C3C       55.8820   12.6910   21.3060 C.ar  501  HEM501      0.0000
     29  C4C       54.5350   12.3190   21.6920 C.ar  501  HEM501      0.0000
     30  CMC       57.0920   12.9270   19.0050 C.3   501  HEM501      0.0000
     31  CAC       56.8540   13.1530   22.1860 C.3   501  HEM501      0.0000
     32  CBC       57.6880   14.2360   21.9310 C.3   501  HEM501      0.0000
     33  ND        51.7230   11.6430   22.4900 N.2   501  HEM501      0.0000
     34  C1D       52.7120   12.1430   23.3490 C.2   501  HEM501      0.0000
     35  C2D       52.1920   12.3130   24.7080 C.2   501  HEM501      0.0000
     36  C3D       50.8770   11.9260   24.6720 C.2   501  HEM501      0.0000
     37  C4D       50.5850   11.5200   23.2970 C.2   501  HEM501      0.0000
     38  CMD       52.9760   12.8530   25.9110 C.3   501  HEM501      0.0000
     39  CAD       49.8760   12.0110   25.8180 C.3   501  HEM501      0.0000
     40  CBD       49.1430   13.3450   25.7680 C.3   501  HEM501      0.0000
     41  CGD       48.0650   13.4660   26.8300 C.2   501  HEM501      0.0000
     42  O1D       47.7630   14.6030   27.2520 O.co2 501  HEM501      0.0000
     43  O2D       47.5180   12.4240   27.2430 O.co2 501  HEM501      0.0000
@<TRIPOS>BOND
     1    24    23    1
     2    22    19    1
     3    23    20    1
     4    19    20    2
     5    19    18    1
     6    20    21    1
     7    18     3    1
     8    18    17    2
     9    21     4    2
    10    21    17    1
    11     3    10    2
    12     4    26    1
    13    17     1    1
    14    11     9    1
    15    30    27    1
    16    10     9   ar
    17    10     6   ar
    18    26    27   ar
    19    26    25   ar
    20     9     8   ar
    21    27    28   ar
    22     6     1    1
    23     6     7   ar
    24     1    25    1
    25     1    33    1
    26    25    29   ar
    27     8     7   ar
    28     8    12    1
    29    28    29   ar
    30    28    31    1
    31     7     2    2
    32    29     5    1
    33    12    13    1
    34    32    31    1
    35    13    14    1
    36    15    14   ar
    37    33    37    2
    38    33    34    1
    39    14    16   ar
    40     2    37    1
    41     5    34    2
    42    37    36    1
    43    34    35    1
    44    36    35    2
    45    36    39    1
    46    35    38    1
    47    40    39    1
    48    40    41    1
    49    41    43   ar
    50    41    42   ar
