@<TRIPOS>MOLECULE
1cmp_HEM_A_1.pdb
 43 50 0 0 0
SMALL
GASTEIGER

@<TRIPOS>ATOM
      1 FE         -5.5310   57.1330  111.8190 Fe    296  HEM296      0.0000
      2  CHA       -5.4700   53.9960  113.0250 C.2   296  HEM296      0.0000
      3  CHB       -7.4140   58.1310  114.5120 C.2   296  HEM296      0.0000
      4  CHC       -5.8370   60.2280  110.4850 C.2   296  HEM296      0.0000
      5  CHD       -3.4630   56.2470  109.3480 C.2   296  HEM296      0.0000
      6  NA        -6.4200   56.2050  113.4520 N.2   296  HEM296      0.0000
      7  C1A       -6.1770   54.9350  113.8090 C.2   296  HEM296      0.0000
      8  C2A       -6.6820   54.6810  115.0690 C.2   296  HEM296      0.0000
      9  C3A       -7.3110   55.8500  115.4910 C.2   296  HEM296      0.0000
     10  C4A       -7.0540   56.7740  114.4980 C.2   296  HEM296      0.0000
     11  CMA       -8.1350   56.0170  116.7610 C.3   296  HEM296      0.0000
     12  CAA       -6.5670   53.3510  115.8040 C.3   296  HEM296      0.0000
     13  CBA       -5.3300   53.1780  116.6440 C.3   296  HEM296      0.0000
     14  CGA       -5.2700   51.8220  117.3330 C.2   296  HEM296      0.0000
     15  O1A       -6.1370   51.4440  118.1170 O.co2 296  HEM296      0.0000
     16  O2A       -4.3360   51.0730  117.1010 O.co2 296  HEM296      0.0000
     17  NB        -6.5550   58.8780  112.3530 N.ar  296  HEM296      0.0000
     18  C1B       -7.2260   59.1040  113.5020 C.ar  296  HEM296      0.0000
     19  C2B       -7.7790   60.4020  113.5150 C.ar  296  HEM296      0.0000
     20  C3B       -7.3780   60.9770  112.3120 C.ar  296  HEM296      0.0000
     21  C4B       -6.5670   60.0250  111.6680 C.ar  296  HEM296      0.0000
     22  CMB       -8.6980   60.9130  114.6120 C.3   296  HEM296      0.0000
     23  CAB       -7.6730   62.2080  111.7360 C.3   296  HEM296      0.0000
     24  CBB       -8.6340   63.1890  112.1720 C.3   296  HEM296      0.0000
     25  NC        -4.7650   58.0890  110.1690 N.2   296  HEM296      0.0000
     26  C1C       -4.9780   59.3540  109.7870 C.2   296  HEM296      0.0000
     27  C2C       -4.2360   59.6880  108.6660 C.2   296  HEM296      0.0000
     28  C3C       -3.4740   58.5590  108.3990 C.2   296  HEM296      0.0000
     29  C4C       -3.8790   57.5960  109.3210 C.2   296  HEM296      0.0000
     30  CMC       -4.1650   61.0760  108.0290 C.3   296  HEM296      0.0000
     31  CAC       -2.5200   58.2920  107.4050 C.3   296  HEM296      0.0000
     32  CBC       -2.2640   59.0260  106.2050 C.3   296  HEM296      0.0000
     33  ND        -4.5490   55.3940  111.2930 N.ar  296  HEM296      0.0000
     34  C1D       -3.8300   55.2170  110.2010 C.ar  296  HEM296      0.0000
     35  C2D       -3.5680   53.8770  109.9830 C.ar  296  HEM296      0.0000
     36  C3D       -4.1330   53.2070  111.0620 C.ar  296  HEM296      0.0000
     37  C4D       -4.7460   54.1940  111.8350 C.ar  296  HEM296      0.0000
     38  CMD       -2.9730   53.2780  108.7230 C.3   296  HEM296      0.0000
     39  CAD       -4.1180   51.6890  111.3090 C.3   296  HEM296      0.0000
     40  CBD       -2.9170   51.2570  112.1440 C.3   296  HEM296      0.0000
     41  CGD       -2.9110   49.8260  112.6540 C.2   296  HEM296      0.0000
     42  O1D       -2.2880   49.5730  113.6790 O.co2 296  HEM296      0.0000
     43  O2D       -3.5220   48.9630  112.0370 O.co2 296  HEM296      0.0000
@<TRIPOS>BOND
     1    32    31    1
     2    31    28    1
     3    30    27    1
     4    28    27    2
     5    28    29    1
     6    27    26    1
     7    38    35    1
     8    29     5    1
     9    29    25    2
    10     5    34    2
    11    26    25    1
    12    26     4    2
    13    35    34   ar
    14    35    36   ar
    15    25     1    1
    16    34    33   ar
    17     4    21    1
    18    36    39    1
    19    36    37   ar
    20    33     1    1
    21    33    37   ar
    22    39    40    1
    23    21    20   ar
    24    21    17   ar
    25    23    24    1
    26    23    20    1
    27     1    17    1
    28     1     6    1
    29    37     2    2
    30    43    41   ar
    31    40    41    1
    32    20    19   ar
    33    17    18   ar
    34    41    42   ar
    35     2     7    1
    36     6     7    2
    37     6    10    1
    38    18    19   ar
    39    18     3    1
    40    19    22    1
    41     7     8    1
    42    10     3    2
    43    10     9    1
    44     8     9    2
    45     8    12    1
    46     9    11    1
    47    12    13    1
    48    13    14    1
    49    16    14   ar
    50    14    15   ar
