@<TRIPOS>MOLECULE
1cmq_HEM_A_1.pdb
 43 50 0 0 0
SMALL
GASTEIGER

@<TRIPOS>ATOM
      1 FE         -5.6830   57.1400  111.7860 Fe    295  HEM295      0.0000
      2  CHA       -5.5860   53.9540  112.9930 C.2   295  HEM295      0.0000
      3  CHB       -7.4500   58.1360  114.4180 C.2   295  HEM295      0.0000
      4  CHC       -5.8570   60.3270  110.4990 C.2   295  HEM295      0.0000
      5  CHD       -3.5740   56.2960  109.3630 C.2   295  HEM295      0.0000
      6  NA        -6.5700   56.1570  113.3580 N.2   295  HEM295      0.0000
      7  C1A       -6.3120   54.8910  113.7420 C.2   295  HEM295      0.0000
      8  C2A       -6.8040   54.6590  115.0130 C.2   295  HEM295      0.0000
      9  C3A       -7.3650   55.8680  115.4360 C.2   295  HEM295      0.0000
     10  C4A       -7.1310   56.7640  114.4040 C.2   295  HEM295      0.0000
     11  CMA       -8.1090   56.1490  116.7370 C.3   295  HEM295      0.0000
     12  CAA       -6.6930   53.3450  115.7770 C.3   295  HEM295      0.0000
     13  CBA       -5.4710   53.1910  116.6590 C.3   295  HEM295      0.0000
     14  CGA       -5.3850   51.8240  117.3320 C.2   295  HEM295      0.0000
     15  O1A       -6.2210   51.4840  118.1790 O.co2 295  HEM295      0.0000
     16  O2A       -4.4720   51.0560  117.0250 O.co2 295  HEM295      0.0000
     17  NB        -6.6730   58.8890  112.2540 N.ar  295  HEM295      0.0000
     18  C1B       -7.3100   59.1080  113.4170 C.ar  295  HEM295      0.0000
     19  C2B       -7.8600   60.3980  113.4670 C.ar  295  HEM295      0.0000
     20  C3B       -7.4320   61.0040  112.2760 C.ar  295  HEM295      0.0000
     21  C4B       -6.6230   60.0750  111.6360 C.ar  295  HEM295      0.0000
     22  CMB       -8.7330   60.9090  114.6180 C.3   295  HEM295      0.0000
     23  CAB       -7.7320   62.2420  111.7090 C.3   295  HEM295      0.0000
     24  CBB       -8.7080   63.1850  112.1840 C.3   295  HEM295      0.0000
     25  NC        -4.8340   58.1560  110.2170 N.2   295  HEM295      0.0000
     26  C1C       -5.0150   59.4300  109.8260 C.2   295  HEM295      0.0000
     27  C2C       -4.2600   59.7490  108.6980 C.2   295  HEM295      0.0000
     28  C3C       -3.5660   58.5620  108.4110 C.2   295  HEM295      0.0000
     29  C4C       -3.9840   57.6240  109.3500 C.2   295  HEM295      0.0000
     30  CMC       -4.1580   61.1460  108.0610 C.3   295  HEM295      0.0000
     31  CAC       -2.6190   58.2450  107.4260 C.3   295  HEM295      0.0000
     32  CBC       -2.1550   59.0750  106.3560 C.3   295  HEM295      0.0000
     33  ND        -4.6590   55.4200  111.3030 N.ar  295  HEM295      0.0000
     34  C1D       -3.9100   55.2730  110.2150 C.ar  295  HEM295      0.0000
     35  C2D       -3.5770   53.9490  110.0030 C.ar  295  HEM295      0.0000
     36  C3D       -4.1930   53.2220  111.0230 C.ar  295  HEM295      0.0000
     37  C4D       -4.8370   54.1860  111.8190 C.ar  295  HEM295      0.0000
     38  CMD       -2.7730   53.3930  108.8390 C.3   295  HEM295      0.0000
     39  CAD       -4.1360   51.7000  111.1880 C.3   295  HEM295      0.0000
     40  CBD       -3.0800   51.2610  112.2240 C.3   295  HEM295      0.0000
     41  CGD       -2.9790   49.7840  112.6120 C.2   295  HEM295      0.0000
     42  O1D       -2.3940   49.4760  113.6510 O.co2 295  HEM295      0.0000
     43  O2D       -3.4920   48.9240  111.9010 O.co2 295  HEM295      0.0000
@<TRIPOS>BOND
     1    32    31    1
     2    31    28    1
     3    30    27    1
     4    28    27    2
     5    28    29    1
     6    27    26    1
     7    38    35    1
     8    29     5    1
     9    29    25    2
    10     5    34    2
    11    26    25    1
    12    26     4    2
    13    35    34   ar
    14    35    36   ar
    15    34    33   ar
    16    25     1    1
    17     4    21    1
    18    36    39    1
    19    36    37   ar
    20    39    40    1
    21    33     1    1
    22    33    37   ar
    23    21    17   ar
    24    21    20   ar
    25    23    24    1
    26    23    20    1
    27     1    17    1
    28     1     6    1
    29    37     2    2
    30    43    41   ar
    31    40    41    1
    32    17    18   ar
    33    20    19   ar
    34    41    42   ar
    35     2     7    1
    36     6     7    2
    37     6    10    1
    38    18    19   ar
    39    18     3    1
    40    19    22    1
    41     7     8    1
    42    10     3    2
    43    10     9    1
    44     8     9    2
    45     8    12    1
    46     9    11    1
    47    12    13    1
    48    13    14    1
    49    16    14   ar
    50    14    15   ar
