@<TRIPOS>MOLECULE
1cmt_HEM_A_1.pdb
 43 50 0 0 0
SMALL
GASTEIGER

@<TRIPOS>ATOM
      1 FE         28.2380   93.9740   53.0150 Fe    295  HEM295      0.0000
      2  CHA       28.1340   95.9130   50.2830 C.2   295  HEM295      0.0000
      3  CHB       30.5400   95.9520   54.4110 C.2   295  HEM295      0.0000
      4  CHC       28.4780   91.7940   55.6310 C.2   295  HEM295      0.0000
      5  CHD       25.6850   92.0900   51.7400 C.2   295  HEM295      0.0000
      6  NA        29.2970   95.6190   52.3790 N.2   295  HEM295      0.0000
      7  C1A       29.0340   96.3170   51.2850 C.2   295  HEM295      0.0000
      8  C2A       29.7430   97.5050   51.2960 C.2   295  HEM295      0.0000
      9  C3A       30.4650   97.5190   52.4860 C.2   295  HEM295      0.0000
     10  C4A       30.1100   96.3480   53.1330 C.2   295  HEM295      0.0000
     11  CMA       31.4530   98.5800   52.9660 C.3   295  HEM295      0.0000
     12  CAA       29.6970   98.5800   50.2270 C.3   295  HEM295      0.0000
     13  CBA       28.5970   99.6320   50.4280 C.3   295  HEM295      0.0000
     14  CGA       28.5930  100.5870   49.2500 C.2   295  HEM295      0.0000
     15  O1A       29.5820  101.2570   48.9940 O.co2 295  HEM295      0.0000
     16  O2A       27.6190  100.6820   48.5270 O.co2 295  HEM295      0.0000
     17  NB        29.2980   93.8980   54.7870 N.ar  295  HEM295      0.0000
     18  C1B       30.2190   94.7990   55.1580 C.ar  295  HEM295      0.0000
     19  C2B       30.8460   94.4240   56.3370 C.ar  295  HEM295      0.0000
     20  C3B       30.2930   93.1610   56.6490 C.ar  295  HEM295      0.0000
     21  C4B       29.3250   92.9090   55.6810 C.ar  295  HEM295      0.0000
     22  CMB       31.9200   95.2630   57.0500 C.3   295  HEM295      0.0000
     23  CAB       30.6250   92.2350   57.6420 C.3   295  HEM295      0.0000
     24  CBB       31.8080   92.2330   58.4840 C.3   295  HEM295      0.0000
     25  NC        27.1970   92.2720   53.6270 N.2   295  HEM295      0.0000
     26  C1C       27.4540   91.5160   54.7080 C.2   295  HEM295      0.0000
     27  C2C       26.5490   90.4740   54.8400 C.2   295  HEM295      0.0000
     28  C3C       25.6600   90.6400   53.7570 C.2   295  HEM295      0.0000
     29  C4C       26.1660   91.6920   52.9990 C.2   295  HEM295      0.0000
     30  CMC       26.5060   89.5450   56.0630 C.3   295  HEM295      0.0000
     31  CAC       24.4950   89.9520   53.3820 C.3   295  HEM295      0.0000
     32  CBC       23.9810   88.6940   53.9020 C.3   295  HEM295      0.0000
     33  ND        27.1200   93.9670   51.2710 N.ar  295  HEM295      0.0000
     34  C1D       26.1580   93.1040   50.9110 C.ar  295  HEM295      0.0000
     35  C2D       25.7530   93.3240   49.5990 C.ar  295  HEM295      0.0000
     36  C3D       26.4880   94.4170   49.1530 C.ar  295  HEM295      0.0000
     37  C4D       27.2700   94.8060   50.2420 C.ar  295  HEM295      0.0000
     38  CMD       24.7300   92.5250   48.7930 C.3   295  HEM295      0.0000
     39  CAD       26.4350   95.0420   47.7540 C.3   295  HEM295      0.0000
     40  CBD       25.4830   96.2520   47.7540 C.3   295  HEM295      0.0000
     41  CGD       25.3400   97.0460   46.4530 C.2   295  HEM295      0.0000
     42  O1D       24.7230   98.1040   46.4610 O.co2 295  HEM295      0.0000
     43  O2D       25.8050   96.6300   45.4010 O.co2 295  HEM295      0.0000
@<TRIPOS>BOND
     1    43    41   ar
     2    41    42   ar
     3    41    40    1
     4    40    39    1
     5    39    36    1
     6    16    14   ar
     7    38    35    1
     8    15    14   ar
     9    36    35   ar
    10    36    37   ar
    11    14    13    1
    12    35    34   ar
    13    12    13    1
    14    12     8    1
    15    37     2    2
    16    37    33   ar
    17     2     7    1
    18    34    33   ar
    19    34     5    2
    20    33     1    1
    21     7     8    1
    22     7     6    2
    23     8     9    2
    24     5    29    1
    25     6     1    1
    26     6    10    1
    27     9    11    1
    28     9    10    1
    29    29    25    2
    30    29    28    1
    31     1    25    1
    32     1    17    1
    33    10     3    2
    34    31    28    1
    35    31    32    1
    36    25    26    1
    37    28    27    2
    38     3    18    1
    39    26    27    1
    40    26     4    2
    41    17    18   ar
    42    17    21   ar
    43    27    30    1
    44    18    19   ar
    45     4    21    1
    46    21    20   ar
    47    19    20   ar
    48    19    22    1
    49    20    23    1
    50    23    24    1
