@<TRIPOS>MOLECULE
1cmu_HEM_A_1.pdb
 43 50 0 0 0
SMALL
GASTEIGER

@<TRIPOS>ATOM
      1 FE         -5.6050   57.2080  111.7420 Fe    295  HEM295      0.0000
      2  CHA       -5.5410   54.0330  112.9610 C.2   295  HEM295      0.0000
      3  CHB       -7.2940   58.2480  114.5320 C.2   295  HEM295      0.0000
      4  CHC       -5.7740   60.3610  110.5120 C.2   295  HEM295      0.0000
      5  CHD       -3.6360   56.2810  109.2130 C.2   295  HEM295      0.0000
      6  NA        -6.3740   56.2850  113.4230 N.2   295  HEM295      0.0000
      7  C1A       -6.1890   54.9900  113.7600 C.2   295  HEM295      0.0000
      8  C2A       -6.6710   54.7410  115.0270 C.2   295  HEM295      0.0000
      9  C3A       -7.2390   55.9520  115.4560 C.2   295  HEM295      0.0000
     10  C4A       -6.9550   56.8830  114.4780 C.2   295  HEM295      0.0000
     11  CMA       -8.1390   56.1950  116.6780 C.3   295  HEM295      0.0000
     12  CAA       -6.5950   53.3990  115.7520 C.3   295  HEM295      0.0000
     13  CBA       -5.4100   53.2320  116.6840 C.3   295  HEM295      0.0000
     14  CGA       -5.3070   51.8280  117.3020 C.2   295  HEM295      0.0000
     15  O1A       -6.1500   51.4250  118.0950 O.co2 295  HEM295      0.0000
     16  O2A       -4.3820   51.0820  117.0040 O.co2 295  HEM295      0.0000
     17  NB        -6.5440   58.9750  112.3470 N.ar  295  HEM295      0.0000
     18  C1B       -7.1660   59.2120  113.5020 C.ar  295  HEM295      0.0000
     19  C2B       -7.7310   60.5070  113.5170 C.ar  295  HEM295      0.0000
     20  C3B       -7.3290   61.0830  112.3260 C.ar  295  HEM295      0.0000
     21  C4B       -6.5280   60.1380  111.6830 C.ar  295  HEM295      0.0000
     22  CMB       -8.6590   61.0370  114.6190 C.3   295  HEM295      0.0000
     23  CAB       -7.6440   62.3140  111.7660 C.3   295  HEM295      0.0000
     24  CBB       -8.6610   63.2330  112.2050 C.3   295  HEM295      0.0000
     25  NC        -4.7840   58.1860  110.1510 N.2   295  HEM295      0.0000
     26  C1C       -4.9380   59.4800  109.8090 C.2   295  HEM295      0.0000
     27  C2C       -4.1660   59.8040  108.7130 C.2   295  HEM295      0.0000
     28  C3C       -3.5000   58.6090  108.3930 C.2   295  HEM295      0.0000
     29  C4C       -3.9610   57.6470  109.2640 C.2   295  HEM295      0.0000
     30  CMC       -3.9840   61.2020  108.0740 C.3   295  HEM295      0.0000
     31  CAC       -2.5950   58.3020  107.3600 C.3   295  HEM295      0.0000
     32  CBC       -2.4160   59.0180  106.1310 C.3   295  HEM295      0.0000
     33  ND        -4.6690   55.4390  111.1960 N.ar  295  HEM295      0.0000
     34  C1D       -4.0130   55.2480  110.0640 C.ar  295  HEM295      0.0000
     35  C2D       -3.7830   53.9010  109.8500 C.ar  295  HEM295      0.0000
     36  C3D       -4.2430   53.2570  110.9820 C.ar  295  HEM295      0.0000
     37  C4D       -4.8430   54.2330  111.7570 C.ar  295  HEM295      0.0000
     38  CMD       -3.1190   53.2540  108.6520 C.3   295  HEM295      0.0000
     39  CAD       -4.1150   51.7530  111.2320 C.3   295  HEM295      0.0000
     40  CBD       -3.2850   51.3710  112.4430 C.3   295  HEM295      0.0000
     41  CGD       -3.0970   49.8800  112.6150 C.2   295  HEM295      0.0000
     42  O1D       -2.4460   49.4970  113.5670 O.co2 295  HEM295      0.0000
     43  O2D       -3.5760   49.0840  111.8090 O.co2 295  HEM295      0.0000
@<TRIPOS>BOND
     1    32    31    1
     2    31    28    1
     3    30    27    1
     4    28    27    2
     5    28    29    1
     6    38    35    1
     7    27    26    1
     8     5    29    1
     9     5    34    2
    10    29    25    2
    11    26    25    1
    12    26     4    2
    13    35    34   ar
    14    35    36   ar
    15    34    33   ar
    16    25     1    1
    17     4    21    1
    18    36    39    1
    19    36    37   ar
    20    33     1    1
    21    33    37   ar
    22    39    40    1
    23    21    20   ar
    24    21    17   ar
    25     1    17    1
    26     1     6    1
    27    37     2    2
    28    23    24    1
    29    23    20    1
    30    43    41   ar
    31    20    19   ar
    32    17    18   ar
    33    40    41    1
    34    41    42   ar
    35     2     7    1
    36     6     7    2
    37     6    10    1
    38    18    19   ar
    39    18     3    1
    40    19    22    1
    41     7     8    1
    42    10     3    2
    43    10     9    1
    44     8     9    2
    45     8    12    1
    46     9    11    1
    47    12    13    1
    48    13    14    1
    49    16    14   ar
    50    14    15   ar
