@<TRIPOS>MOLECULE
1cmx_III_D_1.pdb
 35 34 0 0 0
SMALL
GASTEIGER

@<TRIPOS>ATOM
      1  N         71.0070   18.4330   18.3950 N.3   706  LYS706     -0.1231
      2  CA        71.0220   19.9210   18.1900 C.3   706  LYS706      0.1693
      3  C         72.2490   20.4650   17.4380 C.2   706  LYS706      0.2593
      4  O         73.3020   20.6630   18.0450 O.2   706  LYS706     -0.2718
      5  CB        70.9070   20.6340   19.5470 C.3   706  LYS706      0.0285
      6  CG        70.9090   22.1670   19.4710 C.3   706  LYS706      0.0035
      7  CD        69.7010   22.6770   18.6930 C.3   706  LYS706      0.0206
      8  CE        69.6510   24.2040   18.6250 C.3   706  LYS706      0.1093
      9  NZ        70.7260   24.8010   17.7690 N.3   706  LYS706     -0.1314
     10  N         72.1170   20.7150   16.1340 N.am  707  THR707     -0.1939
     11  CA        73.2340   21.2790   15.3620 C.3   707  THR707      0.2028
     12  C         73.3100   22.8080   15.5350 C.2   707  THR707      0.2642
     13  O         72.4810   23.4060   16.2340 O.2   707  THR707     -0.2714
     14  CB        73.1800   20.9410   13.8440 C.3   707  THR707      0.1808
     15  OG1       72.2920   21.8400   13.1770 O.3   707  THR707     -0.2208
     16  CG2       72.7270   19.5120   13.6120 C.3   707  THR707      0.0379
     17  N         74.3200   23.4310   14.9240 N.am  708  LEU708     -0.1963
     18  CA        74.5190   24.8820   15.0230 C.3   708  LEU708      0.1728
     19  C         73.4380   25.6380   14.2490 C.2   708  LEU708      0.2617
     20  O         72.9910   26.7020   14.6650 O.2   708  LEU708     -0.2715
     21  CB        75.9060   25.2690   14.4840 C.3   708  LEU708      0.0311
     22  CG        76.3030   26.7540   14.3510 C.3   708  LEU708      0.0022
     23  CD1       76.2840   27.5030   15.6720 C.3   708  LEU708      0.0001
     24  CD2       77.6920   26.8500   13.7400 C.3   708  LEU708      0.0001
     25  N         73.0240   25.0620   13.1260 N.am  709  THR709     -0.1937
     26  CA        72.0070   25.6410   12.2620 C.3   709  THR709      0.2028
     27  C         70.5440   25.5130   12.7350 C.2   709  THR709      0.2642
     28  O         69.6290   25.7580   11.9450 O.2   709  THR709     -0.2714
     29  CB        72.1310   25.0790   10.8190 C.3   709  THR709      0.1808
     30  OG1       72.0610   23.6460   10.8390 O.3   709  THR709     -0.2208
     31  CG2       73.4470   25.4980   10.2040 C.3   709  THR709      0.0379
     32  N         70.3270   25.1970   14.0150 N.am  710  GLY710     -0.1954
     33  CA        68.9690   25.0900   14.5470 C.3   710  GLY710      0.1869
     34  C         68.3100   23.7200   14.5570 C.2   710  GLY710      0.2309
     35  O         68.2920   23.0620   13.4880 O.2   710  GLY710     -0.2863
@<TRIPOS>BOND
     1    31    29    1
     2    29    30    1
     3    29    26    1
     4    28    27    2
     5    26    27    1
     6    26    25    1
     7    27    32   am
     8    25    19   am
     9    15    14    1
    10    35    34    2
    11    16    14    1
    12    24    22    1
    13    14    11    1
    14    32    33    1
    15    19    20    2
    16    19    18    1
    17    22    21    1
    18    22    23    1
    19    21    18    1
    20    33    34    1
    21    17    18    1
    22    17    12   am
    23    11    12    1
    24    11    10    1
    25    12    13    2
    26    10     3   am
    27     3     4    2
    28     3     2    1
    29     9     8    1
    30     2     1    1
    31     2     5    1
    32     8     7    1
    33     7     6    1
    34     6     5    1
