@<TRIPOS>MOLECULE
1cmy_HEM_A_1.pdb
 43 50 0 0 0
SMALL
GASTEIGER

@<TRIPOS>ATOM
      1 FE         -1.3370   64.9610  152.1060 Fe    142  HEM142      0.0000
      2  CHA       -0.7320   65.4120  155.4380 C.2   142  HEM142      0.0000
      3  CHB       -0.1900   68.0870  151.4700 C.2   142  HEM142      0.0000
      4  CHC       -1.8700   64.4720  148.7640 C.2   142  HEM142      0.0000
      5  CHD       -2.5900   61.8540  152.7560 C.2   142  HEM142      0.0000
      6  NA        -0.5920   66.4470  153.2320 N.ar  142  HEM142      0.0000
      7  C1A       -0.4420   66.4680  154.6110 C.ar  142  HEM142      0.0000
      8  C2A        0.0600   67.7590  155.0240 C.ar  142  HEM142      0.0000
      9  C3A        0.2120   68.5020  153.9240 C.ar  142  HEM142      0.0000
     10  C4A       -0.1900   67.6940  152.7890 C.ar  142  HEM142      0.0000
     11  CMA        0.7250   69.9530  153.8000 C.3   142  HEM142      0.0000
     12  CAA        0.3700   68.1600  156.4870 C.2   142  HEM142      0.0000
     13  CBA        1.7760   68.7080  156.7650 C.2   142  HEM142      0.0000
     14  CGA        1.9860   69.4830  158.0390 C.2   142  HEM142      0.0000
     15  O1A        1.9460   70.7450  157.9560 O.co2 142  HEM142      0.0000
     16  O2A        2.2050   68.8280  159.1040 O.co2 142  HEM142      0.0000
     17  NB        -1.0900   66.0610  150.4530 N.2   142  HEM142      0.0000
     18  C1B       -0.5810   67.3420  150.3820 C.2   142  HEM142      0.0000
     19  C2B       -0.5280   67.7640  148.9980 C.2   142  HEM142      0.0000
     20  C3B       -0.9840   66.7550  148.2530 C.2   142  HEM142      0.0000
     21  C4B       -1.3470   65.6790  149.1490 C.2   142  HEM142      0.0000
     22  CMB       -0.0170   69.1500  148.5430 C.3   142  HEM142      0.0000
     23  CAB       -1.1380   66.6820  146.7190 C.2   142  HEM142      0.0000
     24  CBB       -0.9070   67.7690  145.9650 C.2   142  HEM142      0.0000
     25  NC        -2.0910   63.4800  150.9980 N.ar  142  HEM142      0.0000
     26  C1C       -2.2370   63.4690  149.6220 C.ar  142  HEM142      0.0000
     27  C2C       -2.8290   62.2110  149.2180 C.ar  142  HEM142      0.0000
     28  C3C       -3.0310   61.4900  150.3230 C.ar  142  HEM142      0.0000
     29  C4C       -2.5640   62.2650  151.4490 C.ar  142  HEM142      0.0000
     30  CMC       -3.1320   61.8450  147.7510 C.3   142  HEM142      0.0000
     31  CAC       -3.6310   60.0740  150.4690 C.2   142  HEM142      0.0000
     32  CBC       -4.9030   59.8800  150.0860 C.2   142  HEM142      0.0000
     33  ND        -1.5530   63.8400  153.7540 N.2   142  HEM142      0.0000
     34  C1D       -2.1650   62.6050  153.8280 C.2   142  HEM142      0.0000
     35  C2D       -2.3170   62.2230  155.2190 C.2   142  HEM142      0.0000
     36  C3D       -1.8010   63.2040  155.9580 C.2   142  HEM142      0.0000
     37  C4D       -1.3200   64.2290  155.0570 C.2   142  HEM142      0.0000
     38  CMD       -2.9700   60.8870  155.6510 C.3   142  HEM142      0.0000
     39  CAD       -1.7010   63.3160  157.4940 C.3   142  HEM142      0.0000
     40  CBD       -2.9280   63.8190  158.2520 C.3   142  HEM142      0.0000
     41  CGD       -2.7090   64.0150  159.7330 C.2   142  HEM142      0.0000
     42  O1D       -2.4990   62.9760  160.4160 O.co2 142  HEM142      0.0000
     43  O2D       -2.7550   65.1990  160.1540 O.co2 142  HEM142      0.0000
@<TRIPOS>BOND
     1    24    23    2
     2    23    20    1
     3    30    27    1
     4    20    19    2
     5    20    21    1
     6    22    19    1
     7     4    21    2
     8     4    26    1
     9    19    18    1
    10    21    17    1
    11    27    26   ar
    12    27    28   ar
    13    26    25   ar
    14    32    31    2
    15    28    31    1
    16    28    29   ar
    17    18    17    2
    18    18     3    1
    19    17     1    1
    20    25    29   ar
    21    25     1    1
    22    29     5    1
    23     3    10    2
    24     1     6    1
    25     1    33    1
    26     5    34    2
    27    10     6   ar
    28    10     9   ar
    29     6     7   ar
    30    33    34    1
    31    33    37    2
    32    11     9    1
    33    34    35    1
    34     9     8   ar
    35     7     8   ar
    36     7     2    2
    37     8    12    1
    38    37     2    1
    39    37    36    1
    40    35    38    1
    41    35    36    2
    42    36    39    1
    43    12    13    2
    44    13    14    1
    45    39    40    1
    46    15    14   ar
    47    14    16   ar
    48    40    41    1
    49    41    43   ar
    50    41    42   ar
