@<TRIPOS>MOLECULE
1cnf_ADP_A_1.pdb
 27 29 0 0 0
SMALL
GASTEIGER

@<TRIPOS>ATOM
      1  PB        12.0290   11.4630    6.6360 P.3   272  ADP272      0.5373
      2  O1B       10.5100   11.5250    6.4960 O.3   272  ADP272     -0.1143
      3  O2B       12.6470   10.3400    5.8560 O.2   272  ADP272     -0.2221
      4  O3B       12.5740   11.6720    8.0670 O.3   272  ADP272     -0.1143
      5  PA        12.2280   13.1170    4.2790 P.3   272  ADP272      0.2231
      6  O1A       13.0050   12.0030    3.7100 O.2   272  ADP272     -0.5169
      7  O2A       12.5190   14.6060    4.1460 O.3   272  ADP272     -0.4370
      8  O3A       12.5440   12.7620    5.8570 O.3   272  ADP272     -0.2261
      9  O5'       10.6380   12.7250    4.0110 O.3   272  ADP272     -0.3111
     10  C5'       10.1080   11.4630    3.6680 C.3   272  ADP272      0.1813
     11  C4'        8.5970   11.3560    3.4130 C.3   272  ADP272      0.1821
     12  O4'        8.2230   11.4580    2.0010 O.3   272  ADP272     -0.3135
     13  C3'        8.2090    9.9610    3.8760 C.3   272  ADP272      0.2184
     14  O3'        7.4830   10.0590    5.1040 O.3   272  ADP272     -0.2174
     15  C2'        7.4250    9.3530    2.7170 C.3   272  ADP272      0.2570
     16  O2'        6.0510    9.5530    3.0050 O.3   272  ADP272     -0.2130
     17  C1'        7.7420   10.1870    1.5200 C.3   272  ADP272      0.3186
     18  N9         8.5310    9.4100    0.5360 N.pl3 272  ADP272     -0.1439
     19  C8         9.7840    8.9270    0.6640 C.3   272  ADP272      0.3377
     20  N7        10.0650    8.0210   -0.3130 N.2   272  ADP272     -0.2095
     21  C5         8.9330    7.9100   -1.0260 C.2   272  ADP272      0.2526
     22  C6         8.6430    6.9580   -2.0480 C.2   272  ADP272      0.4393
     23  N6         9.4430    5.9940   -2.5470 N.pl3 272  ADP272      0.2180
     24  N1         7.3750    7.0390   -2.5110 N.2   272  ADP272      0.0021
     25  C2         6.4920    7.9460   -2.0440 C.3   272  ADP272      0.5254
     26  N3         6.7820    8.8550   -1.1140 N.2   272  ADP272     -0.0055
     27  C4         8.0020    8.8280   -0.5510 C.2   272  ADP272      0.3518
@<TRIPOS>BOND
     1    23    22    1
     2    24    22    2
     3    24    25    1
     4    22    21    1
     5    25    26    1
     6    26    27    2
     7    21    27    1
     8    21    20    2
     9    27    18    1
    10    20    19    1
    11    18    19    1
    12    18    17    1
    13    17    12    1
    14    17    15    1
    15    12    11    1
    16    15    16    1
    17    15    13    1
    18    11    10    1
    19    11    13    1
    20    10     9    1
    21     6     5    2
    22    13    14    1
    23     9     5    1
    24     7     5    1
    25     5     8    1
    26     3     1    2
    27     8     1    1
    28     2     1    1
    29     1     4    1
