@<TRIPOS>MOLECULE
1cno_HEC_A_1.pdb
 43 50 0 0 0
SMALL
GASTEIGER

@<TRIPOS>ATOM
      1 FE          8.8170   39.9470   44.6040 Fe    200  HEC200      0.0000
      2  CHA        6.7180   42.5970   44.8530 C.2   200  HEC200      0.0000
      3  CHB       11.4480   42.0880   44.3110 C.2   200  HEC200      0.0000
      4  CHC       10.9310   37.2570   44.6480 C.2   200  HEC200      0.0000
      5  CHD        6.1360   37.8760   44.4320 C.2   200  HEC200      0.0000
      6  NA         9.0540   41.9380   44.6520 N.ar  200  HEC200      0.0000
      7  C1A        8.0710   42.8820   44.8030 C.ar  200  HEC200      0.0000
      8  C2A        8.6470   44.2030   44.7730 C.ar  200  HEC200      0.0000
      9  C3A       10.0000   44.0950   44.6170 C.ar  200  HEC200      0.0000
     10  C4A       10.2170   42.6690   44.4860 C.ar  200  HEC200      0.0000
     11  CMA       11.0770   45.2130   44.5680 C.3   200  HEC200      0.0000
     12  CAA        7.8340   45.4850   44.8710 C.3   200  HEC200      0.0000
     13  CBA        7.7930   46.0750   43.4910 C.3   200  HEC200      0.0000
     14  CGA        7.0400   47.4070   43.4170 C.2   200  HEC200      0.0000
     15  O1A        6.6340   47.7640   42.2930 O.co2 200  HEC200      0.0000
     16  O2A        6.8630   48.0800   44.4550 O.co2 200  HEC200      0.0000
     17  NB        10.7630   39.7460   44.5190 N.2   200  HEC200      0.0000
     18  C1B       11.7220   40.7250   44.3550 C.2   200  HEC200      0.0000
     19  C2B       13.0550   40.1740   44.4180 C.2   200  HEC200      0.0000
     20  C3B       12.9070   38.8240   44.6610 C.2   200  HEC200      0.0000
     21  C4B       11.4940   38.5530   44.6870 C.2   200  HEC200      0.0000
     22  CMB       14.3420   40.9490   44.1610 C.3   200  HEC200      0.0000
     23  CAB       13.9700   37.7330   44.7710 C.3   200  HEC200      0.0000
     24  CBB       15.0430   37.8590   45.8080 C.3   200  HEC200      0.0000
     25  NC         8.5810   37.9880   44.4770 N.ar  200  HEC200      0.0000
     26  C1C        9.5620   37.0140   44.5000 C.ar  200  HEC200      0.0000
     27  C2C        8.9680   35.6980   44.3440 C.ar  200  HEC200      0.0000
     28  C3C        7.6080   35.8980   44.2710 C.ar  200  HEC200      0.0000
     29  C4C        7.3960   37.3020   44.3800 C.ar  200  HEC200      0.0000
     30  CMC        9.7970   34.4240   44.1500 C.3   200  HEC200      0.0000
     31  CAC        6.5550   34.9090   43.8480 C.3   200  HEC200      0.0000
     32  CBC        6.3240   33.6580   44.6800 C.3   200  HEC200      0.0000
     33  ND         6.8770   40.1780   44.7200 N.2   200  HEC200      0.0000
     34  C1D        5.8760   39.2070   44.6340 C.2   200  HEC200      0.0000
     35  C2D        4.5500   39.7700   44.8080 C.2   200  HEC200      0.0000
     36  C3D        4.7100   41.0910   44.8800 C.2   200  HEC200      0.0000
     37  C4D        6.1410   41.3540   44.8210 C.2   200  HEC200      0.0000
     38  CMD        3.3110   38.9750   45.2480 C.3   200  HEC200      0.0000
     39  CAD        3.6290   42.1310   45.2080 C.3   200  HEC200      0.0000
     40  CBD        3.5520   42.3860   46.7110 C.3   200  HEC200      0.0000
     41  CGD        2.5500   43.4640   47.0620 C.2   200  HEC200      0.0000
     42  O1D        1.4040   43.3570   46.6070 O.co2 200  HEC200      0.0000
     43  O2D        2.9120   44.4400   47.7670 O.co2 200  HEC200      0.0000
@<TRIPOS>BOND
     1    15    14   ar
     2    14    13    1
     3    14    16   ar
     4    13    12    1
     5    31    28    1
     6    31    32    1
     7    30    27    1
     8    22    19    1
     9    28    27   ar
    10    28    29   ar
    11     3    18    1
    12     3    10    2
    13    27    26   ar
    14    18    19    1
    15    18    17    2
    16    29     5    1
    17    29    25   ar
    18    19    20    2
    19     5    34    2
    20    25    26   ar
    21    25     1    1
    22    10     9   ar
    23    10     6   ar
    24    26     4    1
    25    17     1    1
    26    17    21    1
    27    11     9    1
    28     1     6    1
    29     1    33    1
    30     9     8   ar
    31    34    33    1
    32    34    35    1
    33     4    21    2
    34     6     7   ar
    35    20    21    1
    36    20    23    1
    37    33    37    2
    38    23    24    1
    39     8     7   ar
    40     8    12    1
    41     7     2    2
    42    35    36    2
    43    35    38    1
    44    37     2    1
    45    37    36    1
    46    36    39    1
    47    39    40    1
    48    42    41   ar
    49    40    41    1
    50    41    43   ar
