@<TRIPOS>MOLECULE
1cnq_F6P_A_1.pdb
 16 16 0 0 0
SMALL
GASTEIGER

@<TRIPOS>ATOM
      1  O1        -4.5070   28.7180   15.5690 O.3   338  F6P338     -0.2148
      2  C1        -4.1220   29.7270   14.5780 C.3   338  F6P338      0.2434
      3  C2        -3.6710   29.2500   13.1450 C.3   338  F6P338      0.2807
      4  O2        -2.6880   28.1980   13.2690 O.3   338  F6P338     -0.1896
      5  C3        -4.7790   28.7080   12.2730 C.3   338  F6P338      0.2409
      6  O3        -5.9960   29.2760   12.7190 O.3   338  F6P338     -0.2149
      7  C4        -4.4630   29.1710   10.8280 C.3   338  F6P338      0.2167
      8  O4        -4.3640   28.1200    9.8380 O.3   338  F6P338     -0.2175
      9  C5        -3.1920   30.0080   10.9360 C.3   338  F6P338      0.1808
     10  O5        -3.1870   30.3710   12.3430 O.3   338  F6P338     -0.3254
     11  C6        -2.9870   31.0600    9.7510 C.3   338  F6P338      0.1859
     12  O6        -1.6390   31.5550    9.4770 O.3   338  F6P338     -0.2675
     13  P         -0.8810   31.6360    8.0380 P.3   338  F6P338      0.5327
     14  O1P       -0.4650   33.0340    7.7490 O.3   338  F6P338     -0.1145
     15  O2P       -1.7480   31.1770    6.9260 O.2   338  F6P338     -0.2224
     16  O3P        0.3480   30.8090    8.0870 O.3   338  F6P338     -0.1145
@<TRIPOS>BOND
     1    15    13    2
     2    14    13    1
     3    13    16    1
     4    13    12    1
     5    12    11    1
     6    11     9    1
     7     8     7    1
     8     7     9    1
     9     7     5    1
    10     9    10    1
    11     5     6    1
    12     5     3    1
    13    10     3    1
    14     3     4    1
    15     3     2    1
    16     2     1    1
