@<TRIPOS>MOLECULE
1cnw_EG1_A_1.pdb
 26 26 0 0 0
SMALL
GASTEIGER

@<TRIPOS>ATOM
      1  S         -6.0330    0.9590   17.0960 S.O2  555  EG1555      0.0935
      2  O1        -5.5710    0.9590   18.4380 O.2   555  EG1555     -0.1503
      3  O2        -7.4660    1.0840   17.0250 O.2   555  EG1555     -0.1503
      4  N1        -5.4650   -0.1670   16.3890 N.3   555  EG1555      0.0392
      5  C1        -4.6630    4.4200   14.6230 C.ar  555  EG1555      0.0551
      6  C2        -3.7550    3.3360   14.9060 C.ar  555  EG1555      0.0059
      7  C3        -4.2130    2.2520   15.6830 C.ar  555  EG1555      0.0202
      8  C4        -5.5130    2.2520   16.2480 C.ar  555  EG1555      0.1251
      9  C5        -6.3610    3.3360   15.8950 C.ar  555  EG1555      0.0202
     10  C6        -5.9450    4.4200   15.1180 C.ar  555  EG1555      0.0059
     11  C7        -4.2470    5.5460   13.8460 C.2   555  EG1555      0.2649
     12  O3        -4.9420    6.5050   13.5630 O.2   555  EG1555     -0.2684
     13  N2        -3.0270    5.5460   13.4220 N.am  555  EG1555     -0.1990
     14  C8        -2.4210    6.5890   12.5740 C.3   555  EG1555      0.1474
     15  C9        -2.2030    7.9230   13.2100 C.3   555  EG1555      0.1656
     16  O4        -1.1370    7.7980   14.1990 O.3   555  EG1555     -0.3492
     17  C10       -1.4310    8.6740   15.3290 C.3   555  EG1555      0.1742
     18  C11       -0.9970   10.0500   14.9760 C.3   555  EG1555      0.1742
     19  O5        -1.5970   11.0290   15.8440 O.3   555  EG1555     -0.3492
     20  C12       -1.1400   12.3040   15.4080 C.3   555  EG1555      0.1656
     21  C13        0.1110   12.1830   14.6990 C.3   555  EG1555      0.1471
     22  N3         0.9100   13.3750   14.9320 N.am  555  EG1555     -0.2015
     23  C14        2.1780   13.2910   14.2260 C.2   555  EG1555      0.2609
     24  O6         2.5250   12.2270   13.7440 O.2   555  EG1555     -0.2717
     25  C15        3.0130   14.6000   14.0910 C.3   555  EG1555      0.1956
     26  N4         2.1970   15.6690   14.7760 N.3   555  EG1555     -0.1210
@<TRIPOS>BOND
     1    14    15    1
     2    14    13    1
     3    15    16    1
     4    13    11   am
     5    12    11    2
     6    24    23    2
     7    11     5    1
     8    25    23    1
     9    25    26    1
    10    16    17    1
    11    23    22   am
    12     5     6   ar
    13     5    10   ar
    14    21    22    1
    15    21    20    1
    16     6     7   ar
    17    18    17    1
    18    18    19    1
    19    10     9   ar
    20    20    19    1
    21     7     8   ar
    22     9     8   ar
    23     8     1    1
    24     4     1    1
    25     3     1    2
    26     1     2    2
