@<TRIPOS>MOLECULE
1cnx_EG2_A_1.pdb
 22 22 0 0 0
SMALL
GASTEIGER

@<TRIPOS>ATOM
      1  S         -5.9900    0.9170   17.0960 S.O2  555  EG2555      0.0935
      2  O1        -5.5100    0.9170   18.3670 O.2   555  EG2555     -0.1503
      3  O2        -7.4480    0.9590   16.9540 O.2   555  EG2555     -0.1503
      4  N1        -5.3370   -0.2090   16.3890 N.3   555  EG2555      0.0392
      5  C1        -4.7060    4.3780   14.6230 C.ar  555  EG2555      0.0551
      6  C2        -3.7550    3.3780   14.9060 C.ar  555  EG2555      0.0059
      7  C3        -4.2130    2.2930   15.6830 C.ar  555  EG2555      0.0202
      8  C4        -5.5380    2.2100   16.1770 C.ar  555  EG2555      0.1251
      9  C5        -6.4280    3.2530   15.8240 C.ar  555  EG2555      0.0202
     10  C6        -6.0120    4.3370   15.0470 C.ar  555  EG2555      0.0059
     11  C7        -4.3140    5.5040   13.7750 C.2   555  EG2555      0.2649
     12  O3        -4.9910    6.4220   13.4220 O.2   555  EG2555     -0.2684
     13  N2        -2.9650    5.5460   13.3510 N.am  555  EG2555     -0.1990
     14  C8        -2.4460    6.5890   12.5040 C.3   555  EG2555      0.1474
     15  C9        -2.2090    7.9230   13.0690 C.3   555  EG2555      0.1656
     16  O4        -1.3070    7.8810   14.1990 O.3   555  EG2555     -0.3492
     17  C10       -1.4860    9.0070   15.0470 C.3   555  EG2555      0.1742
     18  C11       -0.3810   10.0080   14.9060 C.3   555  EG2555      0.1742
     19  O5        -0.8170   11.2620   15.5020 O.3   555  EG2555     -0.3495
     20  C12       -0.1640   12.2980   14.8090 C.3   555  EG2555      0.1627
     21  C13        0.1490   13.3850   15.7050 C.3   555  EG2555      0.1413
     22  N3         0.3890   14.6150   14.9720 N.3   555  EG2555     -0.1286
@<TRIPOS>BOND
     1    14    15    1
     2    14    13    1
     3    15    16    1
     4    13    11   am
     5    12    11    2
     6    11     5    1
     7    16    17    1
     8     5     6   ar
     9     5    10   ar
    10    20    19    1
    11    20    21    1
    12    18    17    1
    13    18    19    1
    14     6     7   ar
    15    22    21    1
    16    10     9   ar
    17     7     8   ar
    18     9     8   ar
    19     8     1    1
    20     4     1    1
    21     3     1    2
    22     1     2    2
