@<TRIPOS>MOLECULE
1cny_EG3_A_1.pdb
 33 34 0 0 0
SMALL
GASTEIGER

@<TRIPOS>ATOM
      1  S         -6.0570    1.1260   17.0250 S.O2  555  EG3555      0.0935
      2  O1        -5.6570    1.0840   18.4380 O.2   555  EG3555     -0.1503
      3  O2        -7.4720    1.0420   16.8840 O.2   555  EG3555     -0.1503
      4  N1        -5.3550   -0.0420   16.4600 N.3   555  EG3555      0.0392
      5  C1        -4.5530    4.6290   14.6940 C.ar  555  EG3555      0.0551
      6  C2        -3.7060    3.5860   15.0470 C.ar  555  EG3555      0.0059
      7  C3        -4.1460    2.5020   15.7530 C.ar  555  EG3555      0.0202
      8  C4        -5.4760    2.4600   16.1070 C.ar  555  EG3555      0.1251
      9  C5        -6.3240    3.4610   15.7530 C.ar  555  EG3555      0.0202
     10  C6        -5.8840    4.5870   15.0470 C.ar  555  EG3555      0.0059
     11  C7        -4.0700    5.6710   13.9870 C.2   555  EG3555      0.2649
     12  O3        -4.6680    6.6720   13.4930 O.2   555  EG3555     -0.2684
     13  N2        -2.6360    5.8380   13.5630 N.am  555  EG3555     -0.1990
     14  C8        -2.3600    6.8800   12.5040 C.3   555  EG3555      0.1474
     15  C9        -1.9520    8.2150   13.0690 C.3   555  EG3555      0.1656
     16  O4        -1.1000    8.1730   14.0580 O.3   555  EG3555     -0.3492
     17  C10       -1.2600    9.0910   15.3290 C.3   555  EG3555      0.1742
     18  C11       -1.1310   10.5500   14.8350 C.3   555  EG3555      0.1742
     19  O5        -0.3360   11.3350   15.7840 O.3   555  EG3555     -0.3492
     20  C12        0.7430   12.0990   15.0450 C.3   555  EG3555      0.1656
     21  C13        1.4770   12.9510   15.9490 C.3   555  EG3555      0.1471
     22  N3         2.3130   13.8210   15.1390 N.am  555  EG3555     -0.2015
     23  C14        3.1130   14.7450   16.0470 C.2   555  EG3555      0.2592
     24  O6         3.0030   14.6740   17.2760 O.2   555  EG3555     -0.2718
     25  C15        4.1370   15.6800   15.4470 C.3   555  EG3555      0.1736
     26  N4         3.4680   16.9810   15.0790 N.3   555  EG3555     -0.1227
     27  C16        5.3480   15.9350   16.3490 C.3   555  EG3555      0.0547
     28  C17        6.2940   16.9980   15.7530 C.ar  555  EG3555     -0.0202
     29  C18        7.2000   16.5800   14.7590 C.ar  555  EG3555     -0.0042
     30  C19        8.0720   17.5260   14.1870 C.ar  555  EG3555     -0.0003
     31  C20        8.0340   18.8060   14.5990 C.ar  555  EG3555     -0.0000
     32  C21        7.1290   19.2250   15.5950 C.ar  555  EG3555     -0.0003
     33  C22        6.2890   18.2640   16.1870 C.ar  555  EG3555     -0.0042
@<TRIPOS>BOND
     1    14    15    1
     2    14    13    1
     3    15    16    1
     4    12    11    2
     5    13    11   am
     6    11     5    1
     7    16    17    1
     8    30    31   ar
     9    30    29   ar
    10    31    32   ar
    11     5    10   ar
    12     5     6   ar
    13    29    28   ar
    14    18    17    1
    15    18    19    1
    16    20    19    1
    17    20    21    1
    18    10     9   ar
    19     6     7   ar
    20    26    25    1
    21    22    21    1
    22    22    23   am
    23    25    23    1
    24    25    27    1
    25    32    33   ar
    26     9     8   ar
    27     7     8   ar
    28    28    33   ar
    29    28    27    1
    30    23    24    2
    31     8     1    1
    32     4     1    1
    33     3     1    2
    34     1     2    2
