@<TRIPOS>MOLECULE
1co0_TRP_B_1.pdb
 26 27 0 0 0
SMALL
GASTEIGER

@<TRIPOS>ATOM
      1  N         25.4370    4.8550    6.1420 N.3   109  TRP109     -0.3180
      2  CA        24.6210    6.0210    5.7280 C.3   109  TRP109      0.1117
      3  C         23.5870    6.2980    6.7960 C.2   109  TRP109      0.3727
      4  O         22.5970    6.9010    6.4640 O.co2 109  TRP109     -0.2446
      5  CB        23.9590    5.5760    4.4340 C.3   109  TRP109      0.0001
      6  CG        23.0320    6.5930    3.8760 C.ar  109  TRP109     -0.0204
      7  CD1       21.6960    6.5720    3.9880 C.ar  109  TRP109      0.0060
      8  CD2       23.3580    7.7530    3.0840 C.ar  109  TRP109      0.0029
      9  NE1       21.1700    7.6220    3.2610 N.ar  109  TRP109     -0.3604
     10  CE2       22.1610    8.3860    2.6890 C.ar  109  TRP109      0.0467
     11  CE3       24.5650    8.3030    2.6700 C.ar  109  TRP109     -0.0523
     12  CZ2       22.1720    9.5260    1.8890 C.ar  109  TRP109     -0.0378
     13  CZ3       24.5830    9.4510    1.8900 C.ar  109  TRP109     -0.0611
     14  CH2       23.3890   10.0620    1.4890 C.ar  109  TRP109     -0.0598
     15  OXT       23.8110    5.9060    7.9290 O.co2 109  TRP109     -0.2446
     16  H2        25.9980    4.5190    5.3350 H     109  TRP109      0.1190
     17  H         24.8090    4.0920    6.4700 H     109  TRP109      0.1190
     18  HA        25.2420    6.8810    5.5570 H     109  TRP109      0.0579
     19  HB2       24.7160    5.4030    3.6980 H     109  TRP109      0.0334
     20  HB3       23.4170    4.6630    4.6140 H     109  TRP109      0.0334
     21  HD1       21.1360    5.8490    4.5440 H     109  TRP109      0.0810
     22  HE1       20.2210    7.8210    3.1640 H     109  TRP109      0.1653
     23  HE3       25.4910    7.8470    2.9690 H     109  TRP109      0.0624
     24  HZ2       21.2510    9.9750    1.5590 H     109  TRP109      0.0638
     25  HZ3       25.5250    9.8680    1.6000 H     109  TRP109      0.0618
     26  HH2       23.4120   10.9550    0.8840 H     109  TRP109      0.0618
@<TRIPOS>BOND
     1    26    14    1
     2    14    12   ar
     3    14    13   ar
     4    24    12    1
     5    25    13    1
     6    12    10   ar
     7    13    11   ar
     8    11    23    1
     9    11     8   ar
    10    10     8   ar
    11    10     9   ar
    12     8     6   ar
    13    22     9    1
    14     9     7   ar
    15    19     5    1
    16     6     7   ar
    17     6     5    1
    18     7    21    1
    19     5    20    1
    20     5     2    1
    21    16     1    1
    22    18     2    1
    23     2     1    1
    24     2     3    1
    25     1    17    1
    26     4     3   ar
    27     3    15   ar
