@<TRIPOS>MOLECULE
1co6_HEM_A_1.pdb
 43 50 0 0 0
SMALL
GASTEIGER

@<TRIPOS>ATOM
      1 FE         20.6770  -19.2250   13.7740 Fe    108  HEM108      0.0000
      2  CHA       23.2480  -21.3080   14.2690 C.2   108  HEM108      0.0000
      3  CHB       22.6590  -16.5370   14.5430 C.2   108  HEM108      0.0000
      4  CHC       18.0750  -17.0640   12.9960 C.2   108  HEM108      0.0000
      5  CHD       18.5310  -21.9170   13.4390 C.2   108  HEM108      0.0000
      6  NA        22.6010  -18.9700   14.3340 N.2   108  HEM108      0.0000
      7  C1A       23.5810  -19.9570   14.3510 C.2   108  HEM108      0.0000
      8  C2A       24.8650  -19.3430   14.5420 C.2   108  HEM108      0.0000
      9  C3A       24.6820  -18.0170   14.6040 C.2   108  HEM108      0.0000
     10  C4A       23.2680  -17.7460   14.4600 C.2   108  HEM108      0.0000
     11  CMA       25.7430  -16.9050   14.7810 C.3   108  HEM108      0.0000
     12  CAA       26.2050  -20.1200   14.7460 C.3   108  HEM108      0.0000
     13  CBA       26.2750  -20.5250   16.2480 C.3   108  HEM108      0.0000
     14  CGA       27.5180  -21.2330   16.7280 C.2   108  HEM108      0.0000
     15  O1A       28.4120  -21.4140   15.9180 O.co2 108  HEM108      0.0000
     16  O2A       27.4870  -21.5680   17.9390 O.co2 108  HEM108      0.0000
     17  NB        20.4140  -17.2450   13.7930 N.ar  108  HEM108      0.0000
     18  C1B       21.3610  -16.3010   14.2100 C.ar  108  HEM108      0.0000
     19  C2B       20.7600  -14.9930   14.1130 C.ar  108  HEM108      0.0000
     20  C3B       19.5150  -15.1350   13.6500 C.ar  108  HEM108      0.0000
     21  C4B       19.2610  -16.5320   13.4680 C.ar  108  HEM108      0.0000
     22  CMB       21.5340  -13.7130   14.4950 C.3   108  HEM108      0.0000
     23  CAB       18.4950  -13.9670   13.4280 C.3   108  HEM108      0.0000
     24  CBB       18.7850  -13.1430   12.3190 C.3   108  HEM108      0.0000
     25  NC        18.7110  -19.4560   13.3060 N.2   108  HEM108      0.0000
     26  C1C       17.8290  -18.4410   13.0120 C.2   108  HEM108      0.0000
     27  C2C       16.5360  -19.0390   12.7300 C.2   108  HEM108      0.0000
     28  C3C       16.6630  -20.3690   12.8090 C.2   108  HEM108      0.0000
     29  C4C       18.0160  -20.6560   13.2070 C.2   108  HEM108      0.0000
     30  CMC       15.2850  -18.2250   12.3400 C.3   108  HEM108      0.0000
     31  CAC       15.5000  -21.4330   12.6500 C.3   108  HEM108      0.0000
     32  CBC       14.7360  -21.4860   11.4720 C.3   108  HEM108      0.0000
     33  ND        20.8590  -21.2240   13.8890 N.ar  108  HEM108      0.0000
     34  C1D       19.8640  -22.1750   13.6550 C.ar  108  HEM108      0.0000
     35  C2D       20.4870  -23.5010   13.6780 C.ar  108  HEM108      0.0000
     36  C3D       21.7860  -23.3350   13.9310 C.ar  108  HEM108      0.0000
     37  C4D       22.0390  -21.9250   14.0390 C.ar  108  HEM108      0.0000
     38  CMD       19.6860  -24.8090   13.4500 C.3   108  HEM108      0.0000
     39  CAD       22.8980  -24.4170   13.9800 C.3   108  HEM108      0.0000
     40  CBD       23.6170  -24.5060   12.5960 C.3   108  HEM108      0.0000
     41  CGD       24.3430  -25.8190   12.3680 C.2   108  HEM108      0.0000
     42  O1D       24.6420  -25.9490   11.1420 O.co2 108  HEM108      0.0000
     43  O2D       24.5950  -26.6120   13.3070 O.co2 108  HEM108      0.0000
@<TRIPOS>BOND
     1    42    41   ar
     2    32    31    1
     3    24    23    1
     4    30    27    1
     5    41    40    1
     6    41    43   ar
     7    40    39    1
     8    31    28    1
     9    27    28    2
    10    27    26    1
    11    28    29    1
    12     4    26    2
    13     4    21    1
    14    26    25    1
    15    29    25    2
    16    29     5    1
    17    25     1    1
    18    23    20    1
    19     5    34    2
    20    38    35    1
    21    21    20   ar
    22    21    17   ar
    23    20    19   ar
    24    34    35   ar
    25    34    33   ar
    26    35    36   ar
    27     1    17    1
    28     1    33    1
    29     1     6    1
    30    17    18   ar
    31    33    37   ar
    32    36    39    1
    33    36    37   ar
    34    37     2    2
    35    19    18   ar
    36    19    22    1
    37    18     3    1
    38     2     7    1
    39     6     7    2
    40     6    10    1
    41     7     8    1
    42    10     3    2
    43    10     9    1
    44     8     9    2
    45     8    12    1
    46     9    11    1
    47    12    13    1
    48    15    14   ar
    49    13    14    1
    50    14    16   ar
