@<TRIPOS>MOLECULE
1co8_HEM_A_1.pdb
 43 50 0 0 0
SMALL
GASTEIGER

@<TRIPOS>ATOM
      1 FE         35.3410    4.1620   10.1860 Fe    154  HEM154      0.0000
      2  CHA       37.9980    2.3400   11.4170 C.2   154  HEM154      0.0000
      3  CHB       37.3340    5.3550    7.6300 C.2   154  HEM154      0.0000
      4  CHC       32.7160    6.1240    9.0350 C.2   154  HEM154      0.0000
      5  CHD       33.3790    3.1070   12.8250 C.2   154  HEM154      0.0000
      6  NA        37.2340    3.9030    9.6430 N.ar  154  HEM154      0.0000
      7  C1A       38.1510    3.0730   10.2550 C.ar  154  HEM154      0.0000
      8  C2A       39.3700    3.0830    9.4800 C.ar  154  HEM154      0.0000
      9  C3A       39.1860    3.9180    8.4240 C.ar  154  HEM154      0.0000
     10  C4A       37.8400    4.4510    8.5310 C.ar  154  HEM154      0.0000
     11  CMA       40.1570    4.2470    7.2940 C.3   154  HEM154      0.0000
     12  CAA       40.6290    2.2470    9.7830 C.3   154  HEM154      0.0000
     13  CBA       40.7770    0.9680    8.8950 C.3   154  HEM154      0.0000
     14  CGA       39.4900    0.1330    8.9130 C.2   154  HEM154      0.0000
     15  O1A       39.2200   -0.4280    9.9900 O.co2 154  HEM154      0.0000
     16  O2A       38.8150    0.1280    7.8660 O.co2 154  HEM154      0.0000
     17  NB        35.0800    5.4450    8.6780 N.2   154  HEM154      0.0000
     18  C1B       36.0350    5.8030    7.7460 C.2   154  HEM154      0.0000
     19  C2B       35.4510    6.7410    6.8130 C.2   154  HEM154      0.0000
     20  C3B       34.1520    6.9340    7.1820 C.2   154  HEM154      0.0000
     21  C4B       33.9220    6.1350    8.3660 C.2   154  HEM154      0.0000
     22  CMB       36.1880    7.3690    5.6250 C.3   154  HEM154      0.0000
     23  CAB       33.0880    7.7100    6.6290 C.3   154  HEM154      0.0000
     24  CBB       33.3840    9.0360    6.0830 C.3   154  HEM154      0.0000
     25  NC        33.4570    4.4940   10.7660 N.ar  154  HEM154      0.0000
     26  C1C       32.5770    5.3870   10.1940 C.ar  154  HEM154      0.0000
     27  C2C       31.3810    5.4470   11.0080 C.ar  154  HEM154      0.0000
     28  C3C       31.5940    4.6830   12.1170 C.ar  154  HEM154      0.0000
     29  C4C       32.8840    4.0320   11.9350 C.ar  154  HEM154      0.0000
     30  CMC       30.1170    6.2170   10.6120 C.3   154  HEM154      0.0000
     31  CAC       30.8420    4.3830   13.2910 C.3   154  HEM154      0.0000
     32  CBC       29.7130    5.1640   13.7060 C.3   154  HEM154      0.0000
     33  ND        35.6130    2.9690   11.7470 N.2   154  HEM154      0.0000
     34  C1D       34.6900    2.6910   12.7390 C.2   154  HEM154      0.0000
     35  C2D       35.3110    1.8370   13.7250 C.2   154  HEM154      0.0000
     36  C3D       36.5900    1.6310   13.3320 C.2   154  HEM154      0.0000
     37  C4D       36.7880    2.3250   12.0770 C.2   154  HEM154      0.0000
     38  CMD       34.6140    1.3060   14.9880 C.3   154  HEM154      0.0000
     39  CAD       37.7240    0.9220   14.1100 C.3   154  HEM154      0.0000
     40  CBD       38.4070    1.8500   15.1580 C.3   154  HEM154      0.0000
     41  CGD       39.4950    1.1930   15.9820 C.2   154  HEM154      0.0000
     42  O1D       39.1210    0.5070   16.9550 O.co2 154  HEM154      0.0000
     43  O2D       40.6700    1.4100   15.6200 O.co2 154  HEM154      0.0000
@<TRIPOS>BOND
     1    22    19    1
     2    24    23    1
     3    23    20    1
     4    19    20    2
     5    19    18    1
     6    20    21    1
     7    11     9    1
     8     3    18    1
     9     3    10    2
    10    18    17    2
    11    16    14   ar
    12    21    17    1
    13    21     4    2
    14     9    10   ar
    15     9     8   ar
    16    10     6   ar
    17    17     1    1
    18    13    14    1
    19    13    12    1
    20    14    15   ar
    21     4    26    1
    22     8    12    1
    23     8     7   ar
    24     6     1    1
    25     6     7   ar
    26     1    25    1
    27     1    33    1
    28    26    25   ar
    29    26    27   ar
    30     7     2    2
    31    30    27    1
    32    25    29   ar
    33    27    28   ar
    34     2    37    1
    35    33    37    2
    36    33    34    1
    37    29    28   ar
    38    29     5    1
    39    37    36    1
    40    28    31    1
    41    34     5    2
    42    34    35    1
    43    31    32    1
    44    36    35    2
    45    36    39    1
    46    35    38    1
    47    39    40    1
    48    40    41    1
    49    43    41   ar
    50    41    42   ar
