@<TRIPOS>MOLECULE
1co9_HEM_A_1.pdb
 43 50 0 0 0
SMALL
GASTEIGER

@<TRIPOS>ATOM
      1 FE         35.2750    4.1830   10.2220 Fe    154  HEM154      0.0000
      2  CHA       37.9030    2.4030   11.4730 C.2   154  HEM154      0.0000
      3  CHB       37.2360    5.3630    7.6970 C.2   154  HEM154      0.0000
      4  CHC       32.6710    6.1260    9.0840 C.2   154  HEM154      0.0000
      5  CHD       33.3260    3.1700   12.8630 C.2   154  HEM154      0.0000
      6  NA        37.1580    3.9420    9.7030 N.ar  154  HEM154      0.0000
      7  C1A       38.0990    3.1110   10.3010 C.ar  154  HEM154      0.0000
      8  C2A       39.3120    3.0870    9.5140 C.ar  154  HEM154      0.0000
      9  C3A       39.1280    3.9310    8.4700 C.ar  154  HEM154      0.0000
     10  C4A       37.7970    4.4770    8.5940 C.ar  154  HEM154      0.0000
     11  CMA       40.0840    4.2720    7.3210 C.3   154  HEM154      0.0000
     12  CAA       40.5500    2.2160    9.8000 C.3   154  HEM154      0.0000
     13  CBA       40.6770    0.9770    8.8440 C.3   154  HEM154      0.0000
     14  CGA       39.4080    0.1340    8.8510 C.2   154  HEM154      0.0000
     15  O1A       39.1530   -0.4640    9.9220 O.co2 154  HEM154      0.0000
     16  O2A       38.7110    0.1500    7.8180 O.co2 154  HEM154      0.0000
     17  NB        35.0060    5.4850    8.7250 N.2   154  HEM154      0.0000
     18  C1B       35.9430    5.8360    7.7600 C.2   154  HEM154      0.0000
     19  C2B       35.3590    6.7500    6.8090 C.2   154  HEM154      0.0000
     20  C3B       34.0610    6.9300    7.1640 C.2   154  HEM154      0.0000
     21  C4B       33.8500    6.1570    8.3690 C.2   154  HEM154      0.0000
     22  CMB       36.0970    7.3810    5.6220 C.3   154  HEM154      0.0000
     23  CAB       32.9730    7.6900    6.6050 C.3   154  HEM154      0.0000
     24  CBB       33.2460    9.0250    6.0940 C.3   154  HEM154      0.0000
     25  NC        33.3730    4.5000   10.7960 N.ar  154  HEM154      0.0000
     26  C1C       32.4760    5.3950   10.2430 C.ar  154  HEM154      0.0000
     27  C2C       31.2910    5.4990   11.0650 C.ar  154  HEM154      0.0000
     28  C3C       31.5010    4.7350   12.1670 C.ar  154  HEM154      0.0000
     29  C4C       32.7900    4.1000   11.9910 C.ar  154  HEM154      0.0000
     30  CMC       30.0730    6.3420   10.7060 C.3   154  HEM154      0.0000
     31  CAC       30.7500    4.4310   13.3540 C.3   154  HEM154      0.0000
     32  CBC       29.6440    5.2170   13.7680 C.3   154  HEM154      0.0000
     33  ND        35.5380    2.9990   11.8060 N.2   154  HEM154      0.0000
     34  C1D       34.6190    2.6960   12.7990 C.2   154  HEM154      0.0000
     35  C2D       35.2250    1.8340   13.7850 C.2   154  HEM154      0.0000
     36  C3D       36.5100    1.6480   13.4150 C.2   154  HEM154      0.0000
     37  C4D       36.7030    2.3410   12.1600 C.2   154  HEM154      0.0000
     38  CMD       34.5090    1.2930   15.0310 C.3   154  HEM154      0.0000
     39  CAD       37.6310    0.9750   14.2310 C.3   154  HEM154      0.0000
     40  CBD       38.2110    1.9280   15.3130 C.3   154  HEM154      0.0000
     41  CGD       39.3540    1.3610   16.1260 C.2   154  HEM154      0.0000
     42  O1D       39.0780    0.9250   17.2580 O.co2 154  HEM154      0.0000
     43  O2D       40.4750    1.3820   15.5830 O.co2 154  HEM154      0.0000
@<TRIPOS>BOND
     1    22    19    1
     2    24    23    1
     3    23    20    1
     4    19    20    2
     5    19    18    1
     6    20    21    1
     7    11     9    1
     8     3    18    1
     9     3    10    2
    10    18    17    2
    11    16    14   ar
    12    21    17    1
    13    21     4    2
    14     9    10   ar
    15     9     8   ar
    16    10     6   ar
    17    17     1    1
    18    13    14    1
    19    13    12    1
    20    14    15   ar
    21     4    26    1
    22     8    12    1
    23     8     7   ar
    24     6     1    1
    25     6     7   ar
    26     1    25    1
    27     1    33    1
    28    26    25   ar
    29    26    27   ar
    30     7     2    2
    31    30    27    1
    32    25    29   ar
    33    27    28   ar
    34     2    37    1
    35    33    37    2
    36    33    34    1
    37    29    28   ar
    38    29     5    1
    39    37    36    1
    40    28    31    1
    41    34     5    2
    42    34    35    1
    43    31    32    1
    44    36    35    2
    45    36    39    1
    46    35    38    1
    47    39    40    1
    48    40    41    1
    49    43    41   ar
    50    41    42   ar
