@<TRIPOS>MOLECULE
1coh_HEM_A_1.pdb
 43 50 0 0 0
SMALL
GASTEIGER

@<TRIPOS>ATOM
      1  CHA       24.3260   18.6350   13.2660 C.2   142  HEM142      0.0000
      2  CHB       27.8490   20.6970   16.0030 C.2   142  HEM142      0.0000
      3  CHC       26.4550   17.7840   19.6410 C.2   142  HEM142      0.0000
      4  CHD       23.3730   15.4230   16.7580 C.2   142  HEM142      0.0000
      5  C1A       25.3930   19.4580   13.6770 C.ar  142  HEM142      0.0000
      6  C2A       26.1390   20.3660   12.8110 C.ar  142  HEM142      0.0000
      7  C3A       27.1200   20.9330   13.5870 C.ar  142  HEM142      0.0000
      8  C4A       27.0010   20.3860   14.9170 C.ar  142  HEM142      0.0000
      9  CMA       28.1880   21.8970   13.1340 C.3   142  HEM142      0.0000
     10  CAA       25.9300   20.6230   11.3210 C.3   142  HEM142      0.0000
     11  CBA       24.9640   21.7810   10.9910 C.3   142  HEM142      0.0000
     12  CGA       24.7750   22.2250    9.5340 C.2   142  HEM142      0.0000
     13  O1A       24.6690   21.3840    8.6330 O.co2 142  HEM142      0.0000
     14  O2A       24.7360   23.4440    9.3240 O.co2 142  HEM142      0.0000
     15  C1B       27.7390   20.0760   17.2610 C.2   142  HEM142      0.0000
     16  C2B       28.6290   20.3560   18.3450 C.2   142  HEM142      0.0000
     17  C3B       28.2500   19.5450   19.3770 C.2   142  HEM142      0.0000
     18  C4B       27.1250   18.7680   18.9070 C.2   142  HEM142      0.0000
     19  CMB       29.6150   21.5060   18.3030 C.3   142  HEM142      0.0000
     20  CAB       28.6230   19.6810   20.8220 C.3   142  HEM142      0.0000
     21  CBB       29.9340   19.5080   21.2930 C.3   142  HEM142      0.0000
     22  C1C       25.5160   16.8760   19.1360 C.ar  142  HEM142      0.0000
     23  C2C       25.0850   15.7000   19.8380 C.ar  142  HEM142      0.0000
     24  C3C       24.2220   15.0220   19.0420 C.ar  142  HEM142      0.0000
     25  C4C       24.1370   15.7840   17.8380 C.ar  142  HEM142      0.0000
     26  CMC       25.3710   15.5280   21.2890 C.3   142  HEM142      0.0000
     27  CAC       23.4770   13.7380   19.2220 C.3   142  HEM142      0.0000
     28  CBC       23.9690   12.6190   19.8820 C.3   142  HEM142      0.0000
     29  C1D       23.3410   16.1070   15.5570 C.2   142  HEM142      0.0000
     30  C2D       22.6280   15.6740   14.3820 C.2   142  HEM142      0.0000
     31  C3D       22.8750   16.5790   13.4260 C.2   142  HEM142      0.0000
     32  C4D       23.7600   17.5730   14.0000 C.2   142  HEM142      0.0000
     33  CMD       21.4790   14.6900   14.3320 C.3   142  HEM142      0.0000
     34  CAD       22.3670   16.4990   11.9920 C.3   142  HEM142      0.0000
     35  CBD       23.2290   15.7180   10.9960 C.3   142  HEM142      0.0000
     36  CGD       22.6330   15.6360    9.5850 C.2   142  HEM142      0.0000
     37  O1D       23.4280   15.5530    8.6400 O.co2 142  HEM142      0.0000
     38  O2D       21.4050   15.6520    9.4180 O.co2 142  HEM142      0.0000
     39  NA        25.9360   19.4600   14.9800 N.ar  142  HEM142      0.0000
     40  NB        26.8010   19.1150   17.6150 N.2   142  HEM142      0.0000
     41  NC        24.9380   16.9100   17.8850 N.ar  142  HEM142      0.0000
     42  ND        24.0470   17.2590   15.3120 N.2   142  HEM142      0.0000
     43 FE         25.2400   18.3810   16.4620 Fe    142  HEM142      0.0000
@<TRIPOS>BOND
     1    13    12   ar
     2    37    36   ar
     3    14    12   ar
     4    38    36   ar
     5    12    11    1
     6    36    35    1
     7    11    10    1
     8    35    34    1
     9    10     6    1
    10    34    31    1
    11     6     7   ar
    12     6     5   ar
    13     9     7    1
    14     1     5    2
    15     1    32    1
    16    31    32    1
    17    31    30    2
    18     7     8   ar
    19     5    39   ar
    20    32    42    2
    21    33    30    1
    22    30    29    1
    23     8    39   ar
    24     8     2    2
    25    39    43    1
    26    42    29    1
    27    42    43    1
    28    29     4    2
    29     2    15    1
    30    43    40    1
    31    43    41    1
    32     4    25    1
    33    15    40    2
    34    15    16    1
    35    40    18    1
    36    25    41   ar
    37    25    24   ar
    38    41    22   ar
    39    19    16    1
    40    16    17    2
    41    18    17    1
    42    18     3    2
    43    24    27    1
    44    24    23   ar
    45    22     3    1
    46    22    23   ar
    47    27    28    1
    48    17    20    1
    49    23    26    1
    50    20    21    1
