@<TRIPOS>MOLECULE
1coh_COH_B_1.pdb
 43 50 0 0 0
SMALL
GASTEIGER

@<TRIPOS>ATOM
      1 CO         37.0020    4.4940   47.9060 Co.oh 147  COH147      0.0000
      2  CHA       38.3740    3.9170   51.0640 C.2   147  COH147      0.0000
      3  CHB       37.9990    1.3980   46.9740 C.2   147  COH147      0.0000
      4  CHC       36.2890    5.2270   44.7970 C.2   147  COH147      0.0000
      5  CHD       36.7500    7.8170   48.7950 C.2   147  COH147      0.0000
      6  NA        37.9730    2.9980   48.8230 N.ar  147  COH147      0.0000
      7  C1A       38.4540    2.9080   50.1180 C.ar  147  COH147      0.0000
      8  C2A       39.1090    1.6300   50.3500 C.ar  147  COH147      0.0000
      9  C3A       39.0030    0.9260   49.1960 C.ar  147  COH147      0.0000
     10  C4A       38.2970    1.7740   48.2680 C.ar  147  COH147      0.0000
     11  CMA       39.5870   -0.4310   48.9010 C.3   147  COH147      0.0000
     12  CAA       39.6380    1.1130   51.6790 C.3   147  COH147      0.0000
     13  CBA       38.6500    0.2970   52.5190 C.3   147  COH147      0.0000
     14  CGA       39.1440   -0.0420   53.9260 C.2   147  COH147      0.0000
     15  O1A       39.6160    0.8550   54.6420 O.co2 147  COH147      0.0000
     16  O2A       39.0430   -1.2220   54.2850 O.co2 147  COH147      0.0000
     17  NB        37.0400    3.5160   46.3120 N.2   147  COH147      0.0000
     18  C1B       37.4230    2.2390   46.0530 C.2   147  COH147      0.0000
     19  C2B       37.1030    1.8080   44.7240 C.2   147  COH147      0.0000
     20  C3B       36.6150    2.8910   44.0950 C.2   147  COH147      0.0000
     21  C4B       36.6610    3.9490   45.0750 C.2   147  COH147      0.0000
     22  CMB       37.1710    0.3700   44.2640 C.3   147  COH147      0.0000
     23  CAB       36.2400    3.1000   42.6450 C.3   147  COH147      0.0000
     24  CBB       36.8990    2.5350   41.5450 C.3   147  COH147      0.0000
     25  NC        36.6120    6.1150   47.0430 N.ar  147  COH147      0.0000
     26  C1C       36.3190    6.2280   45.7260 C.ar  147  COH147      0.0000
     27  C2C       36.0560    7.5740   45.3410 C.ar  147  COH147      0.0000
     28  C3C       36.1780    8.3280   46.4420 C.ar  147  COH147      0.0000
     29  C4C       36.5240    7.4120   47.4990 C.ar  147  COH147      0.0000
     30  CMC       35.5900    7.9230   43.9560 C.3   147  COH147      0.0000
     31  CAC       35.7470    9.7390   46.6630 C.3   147  COH147      0.0000
     32  CBC       36.1030   10.7860   45.8190 C.3   147  COH147      0.0000
     33  ND        37.3930    5.6220   49.6120 N.2   147  COH147      0.0000
     34  C1D       37.1920    6.9640   49.7740 C.2   147  COH147      0.0000
     35  C2D       37.5280    7.3890   51.1040 C.2   147  COH147      0.0000
     36  C3D       37.9610    6.2940   51.7650 C.2   147  COH147      0.0000
     37  C4D       37.8850    5.1960   50.8230 C.2   147  COH147      0.0000
     38  CMD       37.4440    8.8020   51.6100 C.3   147  COH147      0.0000
     39  CAD       38.6890    6.2810   53.0980 C.3   147  COH147      0.0000
     40  CBD       40.2000    6.4690   53.0330 C.3   147  COH147      0.0000
     41  CGD       40.8160    6.4120   54.4230 C.2   147  COH147      0.0000
     42  O1D       42.0470    6.4690   54.4680 O.co2 147  COH147      0.0000
     43  O2D       40.0890    6.3080   55.4230 O.co2 147  COH147      0.0000
@<TRIPOS>BOND
     1    24    23    1
     2    23    20    1
     3    30    27    1
     4    20    19    2
     5    20    21    1
     6    22    19    1
     7    19    18    1
     8     4    21    2
     9     4    26    1
    10    21    17    1
    11    27    26   ar
    12    27    28   ar
    13    26    25   ar
    14    32    31    1
    15    18    17    2
    16    18     3    1
    17    17     1    1
    18    28    31    1
    19    28    29   ar
    20     3    10    2
    21    25    29   ar
    22    25     1    1
    23    29     5    1
    24     1     6    1
    25     1    33    1
    26    10     6   ar
    27    10     9   ar
    28     5    34    2
    29     6     7   ar
    30    11     9    1
    31     9     8   ar
    32    33    34    1
    33    33    37    2
    34    34    35    1
    35     7     8   ar
    36     7     2    2
    37     8    12    1
    38    37     2    1
    39    37    36    1
    40    35    38    1
    41    35    36    2
    42    12    13    1
    43    36    39    1
    44    13    14    1
    45    40    39    1
    46    40    41    1
    47    14    16   ar
    48    14    15   ar
    49    41    42   ar
    50    41    43   ar
