@<TRIPOS>MOLECULE
1com_PRE_A_1.pdb
 17 17 0 0 0
SMALL
GASTEIGER

@<TRIPOS>ATOM
      1  C1        38.1210   17.7430   28.3110 C.3   223  PRE223      0.1377
      2  C2        37.8140   17.0180   29.6050 C.2   223  PRE223     -0.0134
      3  C3        38.4630   17.1770   30.7760 C.2   223  PRE223      0.0033
      4  C4        39.5040   18.2360   30.9260 C.3   223  PRE223      0.1540
      5  O4        39.4230   18.6890   32.2480 O.3   223  PRE223     -0.3756
      6  C5        39.3510   19.3140   29.8660 C.2   223  PRE223      0.0033
      7  C6        38.7450   19.0860   28.6690 C.2   223  PRE223     -0.0134
      8  C7        36.8040   17.8500   27.5020 C.2   223  PRE223      0.3716
      9  O71       36.5120   18.9020   26.9390 O.co2 223  PRE223     -0.2450
     10  O72       36.0430   16.8800   27.4240 O.co2 223  PRE223     -0.2450
     11  C8        39.0230   16.9040   27.3810 C.3   223  PRE223      0.0951
     12  C1'       40.2930   16.2910   27.9940 C.2   223  PRE223      0.2532
     13  O1'       40.2360   15.2390   28.5640 O.2   223  PRE223     -0.2843
     14  C2'       41.6180   17.0280   27.8140 C.2   223  PRE223      0.4219
     15  O'L       42.5740   16.7370   28.5370 O.co2 223  PRE223     -0.2373
     16  O'M       41.7120   17.9050   26.9440 O.co2 223  PRE223     -0.2373
     17  HO4       40.2330   19.1790   32.3810 H     223  PRE223      0.2112
@<TRIPOS>BOND
     1     9     8   ar
     2    16    14   ar
     3    11    12    1
     4    11     1    1
     5    10     8   ar
     6     8     1    1
     7    14    12    1
     8    14    15   ar
     9    12    13    2
    10     1     7    1
    11     1     2    1
    12     7     6    2
    13     2     3    2
    14     6     4    1
    15     3     4    1
    16     4     5    1
    17     5    17    1
