@<TRIPOS>MOLECULE
1cor_HEM_A_1.pdb
 43 50 0 0 0
SMALL
GASTEIGER

@<TRIPOS>ATOM
      1 FE          0.6400    1.4420   -4.9680 Fe     83  HEM83       0.0000
      2  CHA       -2.3260   -0.1350   -5.3690 C.2    83  HEM83       0.0000
      3  CHB        1.3230   -0.5100   -2.2840 C.2    83  HEM83       0.0000
      4  CHC        3.5970    3.0400   -4.5520 C.2    83  HEM83       0.0000
      5  CHD       -0.0590    3.4350   -7.6160 C.2    83  HEM83       0.0000
      6  NA        -0.3050   -0.0270   -4.0250 N.2    83  HEM83       0.0000
      7  C1A       -1.5320   -0.5560   -4.3230 C.2    83  HEM83       0.0000
      8  C2A       -1.8680   -1.5560   -3.4320 C.2    83  HEM83       0.0000
      9  C3A       -0.8240   -1.6670   -2.5490 C.2    83  HEM83       0.0000
     10  C4A        0.1190   -0.7270   -2.9260 C.2    83  HEM83       0.0000
     11  CMA       -0.7230   -2.6340   -1.3760 C.3    83  HEM83       0.0000
     12  CAA       -3.1550   -2.3700   -3.4340 C.3    83  HEM83       0.0000
     13  CBA       -3.0030   -3.5760   -4.3610 C.3    83  HEM83       0.0000
     14  CGA       -4.3060   -4.3780   -4.3720 C.2    83  HEM83       0.0000
     15  O1A       -4.3950   -5.3830   -5.0490 O.co2  83  HEM83       0.0000
     16  O2A       -5.2510   -4.0110   -3.7020 O.co2  83  HEM83       0.0000
     17  NB         2.1510    1.2940   -3.6830 N.ar   83  HEM83       0.0000
     18  C1B        2.2740    0.4280   -2.6290 C.ar   83  HEM83       0.0000
     19  C2B        3.4770    0.6260   -1.9670 C.ar   83  HEM83       0.0000
     20  C3B        4.1240    1.6430   -2.6200 C.ar   83  HEM83       0.0000
     21  C4B        3.3030    2.0360   -3.6590 C.ar   83  HEM83       0.0000
     22  CMB        3.9840   -0.1360   -0.7500 C.3    83  HEM83       0.0000
     23  CAB        5.4910    2.2280   -2.2750 C.3    83  HEM83       0.0000
     24  CBB        6.5480    1.1510   -2.5210 C.3    83  HEM83       0.0000
     25  NC         1.5800    2.9240   -5.8980 N.2    83  HEM83       0.0000
     26  C1C        2.8010    3.4620   -5.5910 C.2    83  HEM83       0.0000
     27  C2C        3.1160    4.4930   -6.4530 C.2    83  HEM83       0.0000
     28  C3C        2.0660    4.6150   -7.3230 C.2    83  HEM83       0.0000
     29  C4C        1.1440    3.6450   -6.9760 C.2    83  HEM83       0.0000
     30  CMC        4.3820    5.3400   -6.4320 C.3    83  HEM83       0.0000
     31  CAC        1.9430    5.6230   -8.4550 C.3    83  HEM83       0.0000
     32  CBC        3.0210    5.3170   -9.4970 C.3    83  HEM83       0.0000
     33  ND        -0.8760    1.6050   -6.2420 N.ar   83  HEM83       0.0000
     34  C1D       -1.0040    2.4860   -7.2830 C.ar   83  HEM83       0.0000
     35  C2D       -2.2050    2.2970   -7.9430 C.ar   83  HEM83       0.0000
     36  C3D       -2.8520    1.2740   -7.3000 C.ar   83  HEM83       0.0000
     37  C4D       -2.0290    0.8680   -6.2660 C.ar   83  HEM83       0.0000
     38  CMD       -2.7130    3.0770   -9.1480 C.3    83  HEM83       0.0000
     39  CAD       -4.2170    0.6960   -7.6520 C.3    83  HEM83       0.0000
     40  CBD       -4.0240   -0.5320   -8.5440 C.3    83  HEM83       0.0000
     41  CGD       -5.3850   -1.1360   -8.8810 C.2    83  HEM83       0.0000
     42  O1D       -6.1080   -1.5340   -7.9900 O.co2  83  HEM83       0.0000
     43  O2D       -5.7460   -1.2140  -10.0380 O.co2  83  HEM83       0.0000
@<TRIPOS>BOND
     1    43    41   ar
     2    32    31    1
     3    38    35    1
     4    41    40    1
     5    41    42   ar
     6    40    39    1
     7    31    28    1
     8    35    36   ar
     9    35    34   ar
    10    39    36    1
    11     5    34    2
    12     5    29    1
    13    28    29    1
    14    28    27    2
    15    36    37   ar
    16    34    33   ar
    17    29    25    2
    18    27    30    1
    19    27    26    1
    20    37    33   ar
    21    37     2    2
    22    33     1    1
    23    25    26    1
    24    25     1    1
    25    26     4    2
    26     2     7    1
    27    15    14   ar
    28     1     6    1
    29     1    17    1
    30     4    21    1
    31    14    13    1
    32    14    16   ar
    33    13    12    1
    34     7     6    2
    35     7     8    1
    36     6    10    1
    37    17    21   ar
    38    17    18   ar
    39    21    20   ar
    40    12     8    1
    41     8     9    2
    42    10     9    1
    43    10     3    2
    44    18     3    1
    45    18    19   ar
    46    20    23    1
    47    20    19   ar
    48     9    11    1
    49    24    23    1
    50    19    22    1
