@<TRIPOS>MOLECULE
1cot_HEM_A_1.pdb
 43 50 0 0 0
SMALL
GASTEIGER

@<TRIPOS>ATOM
      1 FE          8.9080   12.4470   33.4330 Fe    130  HEM130      0.0000
      2  CHA        9.8970   15.5600   32.6430 C.2   130  HEM130      0.0000
      3  CHB       11.6680   11.1750   31.9950 C.2   130  HEM130      0.0000
      4  CHC        7.9100    9.3020   34.2390 C.2   130  HEM130      0.0000
      5  CHD        6.0500   13.6610   34.7760 C.2   130  HEM130      0.0000
      6  NA        10.4810   13.1930   32.5170 N.ar  130  HEM130      0.0000
      7  C1A       10.7000   14.5450   32.2780 C.ar  130  HEM130      0.0000
      8  C2A       11.9500   14.7020   31.5690 C.ar  130  HEM130      0.0000
      9  C3A       12.4710   13.4770   31.3750 C.ar  130  HEM130      0.0000
     10  C4A       11.5550   12.5490   31.9590 C.ar  130  HEM130      0.0000
     11  CMA       13.7660   13.1070   30.6910 C.3   130  HEM130      0.0000
     12  CAA       12.5340   16.0220   31.1440 C.3   130  HEM130      0.0000
     13  CBA       12.0710   16.3300   29.7120 C.3   130  HEM130      0.0000
     14  CGA       12.6490   17.5890   29.0590 C.2   130  HEM130      0.0000
     15  O1A       11.9630   17.9410   28.1390 O.co2 130  HEM130      0.0000
     16  O2A       13.6530   18.1740   29.3850 O.co2 130  HEM130      0.0000
     17  NB         9.6210   10.6270   33.2060 N.2   130  HEM130      0.0000
     18  C1B       10.7590   10.3270   32.5240 C.2   130  HEM130      0.0000
     19  C2B       10.9160    8.9050   32.5240 C.2   130  HEM130      0.0000
     20  C3B        9.8700    8.4040   33.1620 C.2   130  HEM130      0.0000
     21  C4B        9.0760    9.4730   33.5890 C.2   130  HEM130      0.0000
     22  CMB       12.1290    8.1920   31.8980 C.3   130  HEM130      0.0000
     23  CAB        9.6630    6.9840   33.5070 C.3   130  HEM130      0.0000
     24  CBB       10.6780    6.2010   34.2900 C.3   130  HEM130      0.0000
     25  NC         7.3680   11.6420   34.3210 N.ar  130  HEM130      0.0000
     26  C1C        7.0920   10.3230   34.5650 C.ar  130  HEM130      0.0000
     27  C2C        5.8070   10.1800   35.2160 C.ar  130  HEM130      0.0000
     28  C3C        5.2850   11.4190   35.3490 C.ar  130  HEM130      0.0000
     29  C4C        6.2450   12.3140   34.7810 C.ar  130  HEM130      0.0000
     30  CMC        5.1910    8.8570   35.6570 C.3   130  HEM130      0.0000
     31  CAC        3.9700   11.8540   35.9380 C.3   130  HEM130      0.0000
     32  CBC        3.2150   11.2480   37.0780 C.3   130  HEM130      0.0000
     33  ND         8.1380   14.2590   33.6990 N.2   130  HEM130      0.0000
     34  C1D        6.9240   14.5470   34.2680 C.2   130  HEM130      0.0000
     35  C2D        6.7240   15.9840   34.2440 C.2   130  HEM130      0.0000
     36  C3D        7.8090   16.4860   33.6240 C.2   130  HEM130      0.0000
     37  C4D        8.6930   15.4240   33.3030 C.2   130  HEM130      0.0000
     38  CMD        5.5340   16.7280   34.8070 C.3   130  HEM130      0.0000
     39  CAD        8.1280   17.9200   33.4470 C.3   130  HEM130      0.0000
     40  CBD        9.0260   18.2130   34.6890 C.3   130  HEM130      0.0000
     41  CGD        9.2060   19.6270   35.0960 C.2   130  HEM130      0.0000
     42  O1D        8.8050   20.5770   34.4670 O.co2 130  HEM130      0.0000
     43  O2D        9.8470   19.7820   36.1670 O.co2 130  HEM130      0.0000
@<TRIPOS>BOND
     1    15    14   ar
     2    14    16   ar
     3    14    13    1
     4    13    12    1
     5    11     9    1
     6    12     8    1
     7     9     8   ar
     8     9    10   ar
     9     8     7   ar
    10    22    19    1
    11    10     3    2
    12    10     6   ar
    13     3    18    1
    14     7     6   ar
    15     7     2    2
    16     6     1    1
    17    19    18    1
    18    19    20    2
    19    18    17    2
    20     2    37    1
    21    20    23    1
    22    20    21    1
    23    17     1    1
    24    17    21    1
    25    37    36    1
    26    37    33    2
    27     1    33    1
    28     1    25    1
    29    39    36    1
    30    39    40    1
    31    23    24    1
    32    21     4    2
    33    36    35    2
    34    33    34    1
    35     4    26    1
    36    35    34    1
    37    35    38    1
    38    34     5    2
    39    25    26   ar
    40    25    29   ar
    41    42    41   ar
    42    26    27   ar
    43    40    41    1
    44     5    29    1
    45    29    28   ar
    46    41    43   ar
    47    27    28   ar
    48    27    30    1
    49    28    31    1
    50    31    32    1
