@<TRIPOS>MOLECULE
1cow_ADP_D_1.pdb
 27 29 0 0 0
SMALL
GASTEIGER

@<TRIPOS>ATOM
      1  PB       104.4710   47.4560   69.9040 P.3   600  ADP600      0.5373
      2  O1B      103.6210   48.1470   68.8960 O.2   600  ADP600     -0.2221
      3  O2B      105.4230   46.3780   69.4390 O.3   600  ADP600     -0.1143
      4  O3B      105.0770   48.3490   70.9330 O.3   600  ADP600     -0.1143
      5  PA       102.8290   45.1700   70.7700 P.3   600  ADP600      0.2231
      6  O1A      102.7990   44.5990   69.3520 O.2   600  ADP600     -0.5169
      7  O2A      103.7790   44.5800   71.7500 O.3   600  ADP600     -0.4370
      8  O3A      103.3270   46.7240   70.8090 O.3   600  ADP600     -0.2261
      9  O5'      101.4860   45.3390   71.4350 O.3   600  ADP600     -0.3111
     10  C5'      101.5140   45.6680   72.7930 C.3   600  ADP600      0.1813
     11  C4'      100.3110   45.1410   73.5570 C.3   600  ADP600      0.1821
     12  O4'       99.1570   45.7500   72.9580 O.3   600  ADP600     -0.3135
     13  C3'       99.9800   43.6350   73.4460 C.3   600  ADP600      0.2184
     14  O3'      100.7070   42.8870   74.3960 O.3   600  ADP600     -0.2174
     15  C2'       98.4760   43.6080   73.7810 C.3   600  ADP600      0.2570
     16  O2'       98.1740   43.4750   75.2010 O.3   600  ADP600     -0.2130
     17  C1'       98.0140   44.9590   73.1580 C.3   600  ADP600      0.3186
     18  N9        97.5850   44.7700   71.8080 N.pl3 600  ADP600     -0.1439
     19  C8        98.3700   45.0520   70.7000 C.3   600  ADP600      0.3377
     20  N7        97.8910   44.6840   69.5670 N.2   600  ADP600     -0.2095
     21  C5        96.6470   44.1930   69.9130 C.2   600  ADP600      0.2526
     22  C6        95.6010   43.7550   69.1230 C.2   600  ADP600      0.4393
     23  N6        95.6840   43.6490   67.7890 N.pl3 600  ADP600      0.2180
     24  N1        94.4810   43.4100   69.7910 N.2   600  ADP600      0.0021
     25  C2        94.4880   43.4390   71.1520 C.3   600  ADP600      0.5254
     26  N3        95.3630   43.8970   72.0120 N.2   600  ADP600     -0.0055
     27  C4        96.4590   44.2040   71.3180 C.2   600  ADP600      0.3518
@<TRIPOS>BOND
     1    23    22    1
     2     2     1    2
     3    22    24    2
     4    22    21    1
     5     6     5    2
     6     3     1    1
     7    20    21    2
     8    20    19    1
     9    24    25    1
    10     1     8    1
    11     1     4    1
    12    21    27    1
    13    19    18    1
    14     5     8    1
    15     5     9    1
    16     5     7    1
    17    25    26    1
    18    27    18    1
    19    27    26    2
    20     9    10    1
    21    18    17    1
    22    10    11    1
    23    12    17    1
    24    12    11    1
    25    17    15    1
    26    13    11    1
    27    13    15    1
    28    13    14    1
    29    15    16    1
