@<TRIPOS>MOLECULE
1cow_ANP_A_1.pdb
 31 33 0 0 0
SMALL
GASTEIGER

@<TRIPOS>ATOM
      1  PG       103.9750   64.0630   50.9800 P.3   600  ANP600      0.4884
      2  O1G      103.9610   64.4690   52.3900 O.3   600  ANP600     -0.1240
      3  O2G      104.9520   64.4600   49.9070 O.2   600  ANP600     -0.2331
      4  O3G      104.0910   62.5830   50.8640 O.3   600  ANP600     -0.1240
      5  PB       102.0020   65.9360   49.8820 P.3   600  ANP600      0.4669
      6  O1B      101.6830   66.7580   51.0340 O.3   600  ANP600     -0.1253
      7  O2B      102.9260   66.3670   48.7880 O.2   600  ANP600     -0.2351
      8  N3B      102.4830   64.4830   50.4540 N.3   600  ANP600     -0.0163
      9  PA       100.1880   64.7770   47.9510 P.3   600  ANP600      0.2220
     10  O1A      100.3640   65.2170   46.5500 O.2   600  ANP600     -0.5170
     11  O2A      101.0470   63.5900   48.2770 O.3   600  ANP600     -0.4370
     12  O3A      100.5090   65.7840   49.2150 O.3   600  ANP600     -0.2360
     13  O5'       98.7280   64.5490   48.2230 O.3   600  ANP600     -0.3111
     14  C5'       98.2200   63.6800   49.2760 C.3   600  ANP600      0.1813
     15  C4'       97.0020   62.7780   48.8960 C.3   600  ANP600      0.1821
     16  O4'       95.7660   63.5300   48.6390 O.3   600  ANP600     -0.3135
     17  C3'       97.1800   61.8960   47.6620 C.3   600  ANP600      0.2184
     18  O3'       96.6240   60.5770   47.7950 O.3   600  ANP600     -0.2174
     19  C2'       96.5150   62.7750   46.5980 C.3   600  ANP600      0.2570
     20  O2'       96.0750   62.1890   45.4020 O.3   600  ANP600     -0.2130
     21  C1'       95.3210   63.2890   47.3050 C.3   600  ANP600      0.3186
     22  N9        94.9080   64.5000   46.6550 N.pl3 600  ANP600     -0.1439
     23  C8        95.7010   65.5870   46.4140 C.3   600  ANP600      0.3377
     24  N7        95.0800   66.5010   45.6890 N.2   600  ANP600     -0.2095
     25  C5        93.7410   66.1490   45.7860 C.2   600  ANP600      0.2526
     26  C6        92.5530   66.7730   45.3890 C.2   600  ANP600      0.4393
     27  N6        92.5000   67.9720   44.8930 N.pl3 600  ANP600      0.2180
     28  N1        91.4160   66.0880   45.6820 N.2   600  ANP600      0.0021
     29  C2        91.4740   64.9150   46.2240 C.3   600  ANP600      0.5254
     30  N3        92.5390   64.2130   46.6200 N.2   600  ANP600     -0.0055
     31  C4        93.6430   64.8970   46.3400 C.2   600  ANP600      0.3518
@<TRIPOS>BOND
     1    27    26    1
     2    26    28    2
     3    26    25    1
     4    20    19    1
     5    28    29    1
     6    24    25    2
     7    24    23    1
     8    25    31    1
     9    29    30    1
    10    31    30    2
    11    31    22    1
    12    23    22    1
    13    10     9    2
    14    19    21    1
    15    19    17    1
    16    22    21    1
    17    21    16    1
    18    17    18    1
    19    17    15    1
    20     9    13    1
    21     9    11    1
    22     9    12    1
    23    13    14    1
    24    16    15    1
    25     7     5    2
    26    15    14    1
    27    12     5    1
    28     5     8    1
    29     5     6    1
    30     3     1    2
    31     8     1    1
    32     4     1    1
    33     1     2    1
