@<TRIPOS>MOLECULE
1cow_AUR_E_1.pdb
 33 35 0 0 0
SMALL
GASTEIGER

@<TRIPOS>ATOM
      1  C1        87.3450   97.6810   63.9130 C.3   479  AUR479      0.0027
      2  C2        86.4450   98.8390   63.4930 C.3   479  AUR479      0.0321
      3  C3        86.4420   99.9740   64.5200 C.3   479  AUR479      0.1423
      4  C4        85.1670  100.8330   64.5150 C.3   479  AUR479      0.1451
      5  C5        85.6840  102.0310   65.2860 C.3   479  AUR479      0.1719
      6  C6        86.9130  102.2730   64.3970 C.3   479  AUR479      0.1505
      7  C7        86.5970  102.7190   62.9630 C.3   479  AUR479      0.2100
      8  C8        85.5390  101.9670   62.2710 C.3   479  AUR479      0.1698
      9  C20       84.1320  100.0850   65.3120 C.3   479  AUR479      0.0348
     10  C21       87.8520  103.2610   64.9450 C.3   479  AUR479      0.0350
     11  C24       86.4860  102.4820   68.6840 C.3   479  AUR479      0.0696
     12  C25       85.6290  102.5890   67.5300 C.3   479  AUR479      0.2692
     13  O3        87.5430  100.9040   64.3810 O.3   479  AUR479     -0.3535
     14  O4        84.6120  101.3230   63.2210 O.3   479  AUR479     -0.3491
     15  O5        85.9660  101.6560   66.5610 O.3   479  AUR479     -0.3260
     16  O7        87.7210  103.1390   62.2170 O.3   479  AUR479     -0.2175
     17  O25       85.4170  103.7340   67.1960 O.3   479  AUR479     -0.1899
     18  C9        84.8610  102.8440   61.2600 C.2   479  AUR479      0.0055
     19  C10       84.9050  102.8380   59.9930 C.2   479  AUR479     -0.0021
     20  C11       84.0590  103.7350   59.2040 C.2   479  AUR479     -0.0003
     21  C12       84.0390  103.6450   57.9000 C.2   479  AUR479      0.0001
     22  C13       83.3070  104.6210   57.0700 C.2   479  AUR479      0.0031
     23  C14       83.3210  104.5760   55.7420 C.2   479  AUR479      0.0374
     24  C15       82.5910  105.4240   54.8550 C.ar  479  AUR479      0.1476
     25  C16       82.5840  105.3920   53.4940 C.ar  479  AUR479      0.0469
     26  C17       81.7820  106.3350   52.8170 C.ar  479  AUR479      0.1441
     27  C18       81.0270  107.2620   53.4400 C.ar  479  AUR479      0.1188
     28  C19       81.0820  107.2330   54.8820 C.ar  479  AUR479      0.3490
     29  C22       83.4440  104.3710   52.7400 C.3   479  AUR479      0.0374
     30  C23       80.9770  107.1300   50.7050 C.3   479  AUR479      0.2525
     31  O15       81.8470  106.3600   55.5170 O.2   479  AUR479     -0.4212
     32  O17       81.8300  106.2280   51.4560 O.3   479  AUR479     -0.4714
     33  O19       80.4530  108.0230   55.6000 O.2   479  AUR479     -0.2444
@<TRIPOS>BOND
     1    30    32    1
     2    32    26    1
     3    29    25    1
     4    26    27   ar
     5    26    25   ar
     6    27    28   ar
     7    25    24   ar
     8    24    31   ar
     9    24    23    1
    10    28    31   ar
    11    28    33    2
    12    23    22    2
    13    22    21    1
    14    21    20    2
    15    20    19    1
    16    19    18    2
    17    18     8    1
    18    16     7    1
    19     8     7    1
    20     8    14    1
    21     7     6    1
    22    14     4    1
    23     2     1    1
    24     2     3    1
    25    13     6    1
    26    13     3    1
    27     6    10    1
    28     6     5    1
    29     4     3    1
    30     4     5    1
    31     4     9    1
    32     5    15    1
    33    15    12    1
    34    17    12    1
    35    12    11    1
