@<TRIPOS>MOLECULE
1coy_AND_A_1.pdb
 21 24 0 0 0
SMALL
GASTEIGER

@<TRIPOS>ATOM
      1  C1        -7.6210   18.5350   23.9540 C.3   508  AND508      0.0063
      2  C2        -8.2360   17.6320   24.9930 C.3   508  AND508      0.0335
      3  C3        -7.4700   16.3280   25.1090 C.3   508  AND508      0.1560
      4  O3        -8.1360   15.4170   26.0300 O.3   508  AND508     -0.2228
      5  C4        -6.0100   16.5570   25.5230 C.3   508  AND508      0.0545
      6  C5        -5.3430   17.6730   24.7230 C.2   508  AND508     -0.0466
      7  C6        -4.0450   17.5600   24.3990 C.2   508  AND508     -0.0345
      8  C7        -3.2730   18.4950   23.4750 C.3   508  AND508      0.0254
      9  C8        -4.0140   19.7990   23.1650 C.3   508  AND508      0.0050
     10  C9        -5.5300   19.6040   23.0640 C.3   508  AND508      0.0038
     11  C10       -6.1550   18.9380   24.3200 C.3   508  AND508      0.0150
     12  C11       -6.2350   20.9280   22.7710 C.3   508  AND508      0.0007
     13  C12       -5.6600   21.6410   21.5520 C.3   508  AND508      0.0069
     14  C13       -4.1420   21.7800   21.6330 C.3   508  AND508      0.0515
     15  C14       -3.5280   20.3980   21.8780 C.3   508  AND508      0.0073
     16  C15       -2.0600   20.5620   21.5850 C.3   508  AND508      0.0082
     17  C16       -2.0820   21.4230   20.3020 C.3   508  AND508      0.0645
     18  C17       -3.4190   22.1790   20.3540 C.2   508  AND508      0.1498
     19  O17       -3.7950   22.9390   19.4630 O.2   508  AND508     -0.2961
     20  C18       -3.7310   22.8820   22.6760 C.3   508  AND508      0.0073
     21  C19       -6.1840   19.9590   25.5110 C.3   508  AND508      0.0040
@<TRIPOS>BOND
     1    19    18    2
     2    17    18    1
     3    17    16    1
     4    18    14    1
     5    13    14    1
     6    13    12    1
     7    16    15    1
     8    14    15    1
     9    14    20    1
    10    15     9    1
    11    12    10    1
    12    10     9    1
    13    10    11    1
    14     9     8    1
    15     8     7    1
    16     1    11    1
    17     1     2    1
    18    11     6    1
    19    11    21    1
    20     7     6    2
    21     6     5    1
    22     2     3    1
    23     3     5    1
    24     3     4    1
