@<TRIPOS>MOLECULE
1coz_CTP_A_1.pdb
 29 30 0 0 0
SMALL
GASTEIGER

@<TRIPOS>ATOM
      1  N1        20.1070   27.2980  -15.7110 N.am  130  CTP130     -0.1778
      2  C2        20.4000   28.6120  -15.9210 C.1   130  CTP130      0.2756
      3  N3        19.6520   29.4190  -16.6520 N.2   130  CTP130     -0.3024
      4  C4        18.5360   28.9560  -17.2360 C.2   130  CTP130      0.2346
      5  C5        18.1680   27.6300  -17.0870 C.2   130  CTP130      0.0687
      6  C6        18.9910   26.8340  -16.3120 C.2   130  CTP130      0.0836
      7  O2        21.4130   29.1480  -15.4300 O.2   130  CTP130     -0.1925
      8  N4        17.8150   29.8210  -17.9550 N.pl3 130  CTP130     -0.0921
      9  C1'       20.9510   26.4580  -14.8090 C.3   130  CTP130      0.2400
     10  C2'       20.2300   26.2180  -13.4930 C.3   130  CTP130      0.2319
     11  O2'       20.4860   27.3190  -12.6370 O.3   130  CTP130     -0.2157
     12  C3'       20.8110   24.9240  -13.0010 C.3   130  CTP130      0.2158
     13  C4'       21.3740   24.2530  -14.2500 C.3   130  CTP130      0.1799
     14  O4'       21.1430   25.1520  -15.3380 O.3   130  CTP130     -0.3320
     15  O3'       21.9380   25.0980  -12.1350 O.3   130  CTP130     -0.2175
     16  C5'       20.6020   22.9720  -14.4040 C.3   130  CTP130      0.1813
     17  O5'       19.8500   23.0240  -15.5870 O.3   130  CTP130     -0.3112
     18  PA        18.2450   22.6780  -15.7000 P.3   130  CTP130      0.2189
     19  O1A       17.6170   22.8400  -14.2890 O.3   130  CTP130     -0.4371
     20  O2A       18.2000   21.1960  -16.1240 O.2   130  CTP130     -0.5170
     21  O3A       17.5900   23.7240  -16.8200 O.3   130  CTP130     -0.2700
     22  PB        16.0670   24.3210  -16.5870 P.3   130  CTP130      0.2277
     23  O1B       15.7470   25.1930  -17.8530 O.2   130  CTP130     -0.5168
     24  O2B       16.0220   25.1960  -15.2920 O.3   130  CTP130     -0.4368
     25  O3B       14.9530   23.0810  -16.5730 O.3   130  CTP130     -0.2258
     26  PG        13.4910   23.2670  -15.8200 P.3   130  CTP130      0.5373
     27  O1G       13.7850   23.4980  -14.2930 O.3   130  CTP130     -0.1143
     28  O2G       12.7170   21.9180  -16.0470 O.3   130  CTP130     -0.1143
     29  O3G       12.7520   24.5150  -16.4220 O.2   130  CTP130     -0.2221
@<TRIPOS>BOND
     1     8     4    1
     2    23    22    2
     3     4     5    1
     4     4     3    2
     5     5     6    2
     6    21    22    1
     7    21    18    1
     8     3     2    2
     9    22    25    1
    10    22    24    1
    11    25    26    1
    12    29    26    2
    13     6     1    1
    14    20    18    2
    15    28    26    1
    16     2     1   am
    17     2     7    2
    18    26    27    1
    19     1     9    1
    20    18    17    1
    21    18    19    1
    22    17    16    1
    23    14     9    1
    24    14    13    1
    25     9    10    1
    26    16    13    1
    27    13    12    1
    28    10    12    1
    29    10    11    1
    30    12    15    1
