@<TRIPOS>MOLECULE
1cp0_HEM_A_1.pdb
 43 50 0 0 0
SMALL
GASTEIGER

@<TRIPOS>ATOM
      1 FE         35.2460    4.2150   10.2170 Fe    154  HEM154      0.0000
      2  CHA       37.8910    2.4200   11.4310 C.2   154  HEM154      0.0000
      3  CHB       37.1840    5.3450    7.6420 C.2   154  HEM154      0.0000
      4  CHC       32.6040    6.0540    9.0160 C.2   154  HEM154      0.0000
      5  CHD       33.3010    3.1300   12.8120 C.2   154  HEM154      0.0000
      6  NA        37.1410    4.0250    9.7190 N.ar  154  HEM154      0.0000
      7  C1A       38.0710    3.1810   10.2950 C.ar  154  HEM154      0.0000
      8  C2A       39.2910    3.1930    9.5260 C.ar  154  HEM154      0.0000
      9  C3A       39.1000    4.0330    8.4820 C.ar  154  HEM154      0.0000
     10  C4A       37.7470    4.5290    8.5860 C.ar  154  HEM154      0.0000
     11  CMA       40.0590    4.4040    7.3430 C.3   154  HEM154      0.0000
     12  CAA       40.5420    2.3450    9.8190 C.3   154  HEM154      0.0000
     13  CBA       40.7090    1.0730    8.9520 C.3   154  HEM154      0.0000
     14  CGA       39.4440    0.2360    8.8690 C.2   154  HEM154      0.0000
     15  O1A       39.1370   -0.4080    9.8950 O.co2 154  HEM154      0.0000
     16  O2A       38.7990    0.2850    7.7960 O.co2 154  HEM154      0.0000
     17  NB        34.9660    5.4500    8.6950 N.2   154  HEM154      0.0000
     18  C1B       35.8960    5.8170    7.7510 C.2   154  HEM154      0.0000
     19  C2B       35.3240    6.7610    6.8220 C.2   154  HEM154      0.0000
     20  C3B       34.0140    6.9070    7.1600 C.2   154  HEM154      0.0000
     21  C4B       33.8030    6.1080    8.3470 C.2   154  HEM154      0.0000
     22  CMB       36.0630    7.4310    5.6570 C.3   154  HEM154      0.0000
     23  CAB       32.9340    7.6370    6.5720 C.3   154  HEM154      0.0000
     24  CBB       33.1650    9.0040    6.1120 C.3   154  HEM154      0.0000
     25  NC        33.3790    4.5150   10.7790 N.ar  154  HEM154      0.0000
     26  C1C       32.4700    5.3710   10.2070 C.ar  154  HEM154      0.0000
     27  C2C       31.2790    5.4530   11.0240 C.ar  154  HEM154      0.0000
     28  C3C       31.5110    4.7140   12.1430 C.ar  154  HEM154      0.0000
     29  C4C       32.7860    4.0550   11.9360 C.ar  154  HEM154      0.0000
     30  CMC       30.0170    6.2120   10.6170 C.3   154  HEM154      0.0000
     31  CAC       30.8150    4.4590   13.3630 C.3   154  HEM154      0.0000
     32  CBC       29.6100    5.1560   13.7150 C.3   154  HEM154      0.0000
     33  ND        35.5590    3.1260   11.8250 N.2   154  HEM154      0.0000
     34  C1D       34.6300    2.7680   12.7770 C.2   154  HEM154      0.0000
     35  C2D       35.2390    1.9040   13.7610 C.2   154  HEM154      0.0000
     36  C3D       36.5240    1.7240   13.3820 C.2   154  HEM154      0.0000
     37  C4D       36.7080    2.4320   12.1360 C.2   154  HEM154      0.0000
     38  CMD       34.5090    1.3570   14.9930 C.3   154  HEM154      0.0000
     39  CAD       37.6560    1.0150   14.1470 C.3   154  HEM154      0.0000
     40  CBD       38.3740    1.8980   15.1950 C.3   154  HEM154      0.0000
     41  CGD       39.4640    1.2020   15.9830 C.2   154  HEM154      0.0000
     42  O1D       39.1200    0.6650   17.0570 O.co2 154  HEM154      0.0000
     43  O2D       40.6120    1.2340   15.4900 O.co2 154  HEM154      0.0000
@<TRIPOS>BOND
     1    22    19    1
     2    24    23    1
     3    23    20    1
     4    19    20    2
     5    19    18    1
     6    20    21    1
     7    11     9    1
     8     3    18    1
     9     3    10    2
    10    18    17    2
    11    16    14   ar
    12    21    17    1
    13    21     4    2
    14     9    10   ar
    15     9     8   ar
    16    10     6   ar
    17    17     1    1
    18    14    13    1
    19    14    15   ar
    20    13    12    1
    21     4    26    1
    22     8    12    1
    23     8     7   ar
    24     6     1    1
    25     6     7   ar
    26    26    25   ar
    27    26    27   ar
    28     1    25    1
    29     1    33    1
    30     7     2    2
    31    30    27    1
    32    25    29   ar
    33    27    28   ar
    34     2    37    1
    35    33    37    2
    36    33    34    1
    37    29    28   ar
    38    29     5    1
    39    37    36    1
    40    28    31    1
    41    34     5    2
    42    34    35    1
    43    31    32    1
    44    36    35    2
    45    36    39    1
    46    35    38    1
    47    39    40    1
    48    40    41    1
    49    43    41   ar
    50    41    42   ar
