@<TRIPOS>MOLECULE
1cp3_III_C_1.pdb
 32 31 0 0 0
SMALL
GASTEIGER

@<TRIPOS>ATOM
      1  C         22.8780   16.5540   45.4820 C.2   989  ACE989      0.2423
      2  O         22.7110   15.3220   45.5340 O.2   989  ACE989     -0.2733
      3  CH3       23.1840   17.3760   46.7380 C.3   989  ACE989      0.0964
      4  N         22.8070   17.2460   44.3500 N.am  990  ASP990     -0.1972
      5  CA        22.5160   16.6040   43.0890 C.3   990  ASP990      0.1839
      6  C         23.7490   16.3010   42.2740 C.2   990  ASP990      0.2622
      7  O         24.5530   17.1940   42.0060 O.2   990  ASP990     -0.2715
      8  CB        21.6050   17.5040   42.2560 C.3   990  ASP990      0.1450
      9  CG        20.2650   17.7130   42.8950 C.2   990  ASP990      0.3671
     10  OD1       19.5850   16.7090   43.1500 O.co2 990  ASP990     -0.2456
     11  OD2       19.8920   18.8710   43.1370 O.co2 990  ASP990     -0.2456
     12  N         23.8860   15.0400   41.8800 N.am  991  VAL991     -0.1963
     13  CA        24.9860   14.6180   41.0270 C.3   991  VAL991      0.1727
     14  C         24.4410   13.9850   39.7390 C.2   991  VAL991      0.2616
     15  O         23.3110   13.5020   39.7120 O.2   991  VAL991     -0.2715
     16  CB        25.9340   13.6410   41.7320 C.3   991  VAL991      0.0290
     17  CG1       26.5720   14.3350   42.8790 C.3   991  VAL991      0.0023
     18  CG2       25.2000   12.4210   42.1960 C.3   991  VAL991      0.0023
     19  N         25.2600   14.0120   38.6860 N.am  992  ALA992     -0.1963
     20  CA        24.9220   13.4930   37.3780 C.3   992  ALA992      0.1728
     21  C         25.3330   12.0420   37.1940 C.2   992  ALA992      0.2616
     22  O         26.3470   11.5990   37.7050 O.2   992  ALA992     -0.2715
     23  CB        25.5760   14.3470   36.3360 C.3   992  ALA992      0.0334
     24  N         24.5210   11.2880   36.4770 N.am  993  ASP993     -0.1976
     25  CA        24.8160    9.8930   36.2020 C.3   993  ASP993      0.1635
     26  C         25.4570    9.7690   34.8240 C.2   993  ASP993      0.1713
     27  O         25.5610    8.6300   34.3190 O.2   993  ASP993     -0.2942
     28  CB        23.5330    9.0590   36.2760 C.3   993  ASP993      0.1432
     29  CG        23.2780    8.4960   37.6710 C.2   993  ASP993      0.3671
     30  OD1       24.2670    8.2430   38.4100 O.co2 993  ASP993     -0.2456
     31  OD2       22.0840    8.3040   38.0290 O.co2 993  ASP993     -0.2456
     32  C1        26.1880   10.9110   34.1560 C.3   994  CF0994      0.0741
@<TRIPOS>BOND
     1    32    26    1
     2    27    26    2
     3    26    25    1
     4    25    28    1
     5    25    24    1
     6    28    29    1
     7    23    20    1
     8    24    21   am
     9    21    20    1
    10    21    22    2
    11    20    19    1
    12    29    31   ar
    13    29    30   ar
    14    19    14   am
    15    15    14    2
    16    14    13    1
    17    13    16    1
    18    13    12    1
    19    16    18    1
    20    16    17    1
    21    12     6   am
    22     7     6    2
    23     8     9    1
    24     8     5    1
    25     6     5    1
    26     9    11   ar
    27     9    10   ar
    28     5     4    1
    29     4     1   am
    30     1     2    2
    31     1     3    1
