@<TRIPOS>MOLECULE
1cp4_HEM_A_1.pdb
 43 50 0 0 0
SMALL
GASTEIGER

@<TRIPOS>ATOM
      1 FE         48.2450   46.3260    9.2760 Fe    415  HEM415      0.0000
      2  CHA       45.1670   44.9240    8.8630 C.2   415  HEM415      0.0000
      3  CHB       49.6860   43.1520    9.2300 C.2   415  HEM415      0.0000
      4  CHC       51.4090   47.6890    9.3410 C.2   415  HEM415      0.0000
      5  CHD       46.9050   49.3750    9.4520 C.2   415  HEM415      0.0000
      6  NA        47.5500   44.4180    8.9970 N.ar  415  HEM415      0.0000
      7  C1A       46.2530   44.0400    8.9560 C.ar  415  HEM415      0.0000
      8  C2A       46.1900   42.5940    8.9240 C.ar  415  HEM415      0.0000
      9  C3A       47.4220   42.1220    9.1160 C.ar  415  HEM415      0.0000
     10  C4A       48.3460   43.2810    9.0740 C.ar  415  HEM415      0.0000
     11  CMA       47.9850   40.6840    9.1010 C.3   415  HEM415      0.0000
     12  CAA       44.8760   41.7830    8.7790 C.3   415  HEM415      0.0000
     13  CBA       44.2740   41.3340   10.0830 C.3   415  HEM415      0.0000
     14  CGA       43.0600   40.4440    9.9620 C.2   415  HEM415      0.0000
     15  O1A       42.7960   40.0290    8.8130 O.co2 415  HEM415      0.0000
     16  O2A       42.5490   40.2160   11.0950 O.co2 415  HEM415      0.0000
     17  NB        50.1400   45.5660    9.3910 N.2   415  HEM415      0.0000
     18  C1B       50.5390   44.2410    9.3360 C.2   415  HEM415      0.0000
     19  C2B       51.9700   44.1590    9.3040 C.2   415  HEM415      0.0000
     20  C3B       52.4780   45.4060    9.2990 C.2   415  HEM415      0.0000
     21  C4B       51.3280   46.3070    9.3880 C.2   415  HEM415      0.0000
     22  CMB       52.8000   42.8480    9.1950 C.3   415  HEM415      0.0000
     23  CAB       53.8980   45.8950    9.2010 C.2   415  HEM415      0.0000
     24  CBB       55.0460   45.3050    9.2560 C.2   415  HEM415      0.0000
     25  NC        49.0590   48.1860    9.5170 N.ar  415  HEM415      0.0000
     26  C1C       50.3310   48.5560    9.3810 C.ar  415  HEM415      0.0000
     27  C2C       50.4170   50.0330    9.4530 C.ar  415  HEM415      0.0000
     28  C3C       49.1770   50.4800    9.5490 C.ar  415  HEM415      0.0000
     29  C4C       48.2650   49.3060    9.5430 C.ar  415  HEM415      0.0000
     30  CMC       51.7340   50.8030    9.4380 C.3   415  HEM415      0.0000
     31  CAC       48.5720   51.9080    9.5510 C.2   415  HEM415      0.0000
     32  CBC       49.1110   52.8420   10.3480 C.2   415  HEM415      0.0000
     33  ND        46.3920   47.0280    9.1660 N.2   415  HEM415      0.0000
     34  C1D       46.0130   48.3610    9.1690 C.2   415  HEM415      0.0000
     35  C2D       44.6040   48.4620    8.9220 C.2   415  HEM415      0.0000
     36  C3D       44.1140   47.2410    8.8280 C.2   415  HEM415      0.0000
     37  C4D       45.2120   46.2910    9.0120 C.2   415  HEM415      0.0000
     38  CMD       43.8740   49.8360    8.8360 C.3   415  HEM415      0.0000
     39  CAD       42.6700   46.7700    8.5380 C.2   415  HEM415      0.0000
     40  CBD       42.2790   46.7030    7.0770 C.2   415  HEM415      0.0000
     41  CGD       40.8670   46.2320    6.7910 C.2   415  HEM415      0.0000
     42  O1D       40.4820   46.3230    5.6030 O.co2 415  HEM415      0.0000
     43  O2D       40.1980   45.7090    7.7020 O.co2 415  HEM415      0.0000
@<TRIPOS>BOND
     1    42    41   ar
     2    41    40    1
     3    41    43   ar
     4    40    39    2
     5    39    36    1
     6    12     8    1
     7    12    13    1
     8    15    14   ar
     9    36    35    2
    10    36    37    1
    11    38    35    1
    12     2     7    2
    13     2    37    1
    14    35    34    1
    15     8     7   ar
    16     8     9   ar
    17     7     6   ar
    18     6    10   ar
    19     6     1    1
    20    37    33    2
    21    10     9   ar
    22    10     3    2
    23    11     9    1
    24    33    34    1
    25    33     1    1
    26    34     5    2
    27    22    19    1
    28    23    24    2
    29    23    20    1
    30     3    18    1
    31     1    17    1
    32     1    25    1
    33    20    19    2
    34    20    21    1
    35    19    18    1
    36    18    17    2
    37     4    26    1
    38     4    21    2
    39    26    27   ar
    40    26    25   ar
    41    21    17    1
    42    30    27    1
    43     5    29    1
    44    27    28   ar
    45    25    29   ar
    46    29    28   ar
    47    28    31    1
    48    31    32    2
    49    14    13    1
    50    14    16   ar
