@<TRIPOS>MOLECULE
1cp5_HEM_A_1.pdb
 43 50 0 0 0
SMALL
GASTEIGER

@<TRIPOS>ATOM
      1 FE         35.3780    4.1840   10.2200 Fe    154  HEM154      0.0000
      2  CHA       37.9870    2.3930   11.4340 C.2   154  HEM154      0.0000
      3  CHB       37.3340    5.3150    7.7030 C.2   154  HEM154      0.0000
      4  CHC       32.8310    6.1270    9.0880 C.2   154  HEM154      0.0000
      5  CHD       33.4790    3.2010   12.8240 C.2   154  HEM154      0.0000
      6  NA        37.2940    3.9510    9.7100 N.ar  154  HEM154      0.0000
      7  C1A       38.2270    3.1280   10.2940 C.ar  154  HEM154      0.0000
      8  C2A       39.4590    3.1260    9.5390 C.ar  154  HEM154      0.0000
      9  C3A       39.2730    3.9570    8.4870 C.ar  154  HEM154      0.0000
     10  C4A       37.9200    4.4540    8.5960 C.ar  154  HEM154      0.0000
     11  CMA       40.2210    4.3340    7.3490 C.3   154  HEM154      0.0000
     12  CAA       40.6940    2.2700    9.8680 C.3   154  HEM154      0.0000
     13  CBA       40.8630    0.9590    9.0670 C.3   154  HEM154      0.0000
     14  CGA       39.5760    0.1440    8.9610 C.2   154  HEM154      0.0000
     15  O1A       39.2350   -0.4840    9.9800 O.co2 154  HEM154      0.0000
     16  O2A       38.9580    0.1920    7.8740 O.co2 154  HEM154      0.0000
     17  NB        35.1640    5.5440    8.7580 N.2   154  HEM154      0.0000
     18  C1B       36.0650    5.8430    7.7690 C.2   154  HEM154      0.0000
     19  C2B       35.5030    6.7580    6.8020 C.2   154  HEM154      0.0000
     20  C3B       34.2090    6.9650    7.1720 C.2   154  HEM154      0.0000
     21  C4B       34.0130    6.1980    8.3840 C.2   154  HEM154      0.0000
     22  CMB       36.2560    7.3330    5.6050 C.3   154  HEM154      0.0000
     23  CAB       33.1170    7.7000    6.6230 C.3   154  HEM154      0.0000
     24  CBB       33.2750    9.0550    6.1530 C.3   154  HEM154      0.0000
     25  NC        33.4880    4.4890   10.7630 N.ar  154  HEM154      0.0000
     26  C1C       32.6010    5.3900   10.2290 C.ar  154  HEM154      0.0000
     27  C2C       31.3910    5.4610   11.0200 C.ar  154  HEM154      0.0000
     28  C3C       31.5910    4.6760   12.1120 C.ar  154  HEM154      0.0000
     29  C4C       32.9000    4.0680   11.9330 C.ar  154  HEM154      0.0000
     30  CMC       30.1590    6.2690   10.6340 C.3   154  HEM154      0.0000
     31  CAC       30.8500    4.3500   13.2870 C.3   154  HEM154      0.0000
     32  CBC       29.7020    5.1220   13.6870 C.3   154  HEM154      0.0000
     33  ND        35.6500    2.9690   11.7700 N.2   154  HEM154      0.0000
     34  C1D       34.7500    2.6790   12.7680 C.2   154  HEM154      0.0000
     35  C2D       35.3280    1.7790   13.7400 C.2   154  HEM154      0.0000
     36  C3D       36.6400    1.6640   13.4160 C.2   154  HEM154      0.0000
     37  C4D       36.8160    2.3460   12.1550 C.2   154  HEM154      0.0000
     38  CMD       34.5890    1.1480   14.9190 C.3   154  HEM154      0.0000
     39  CAD       37.7620    1.0270   14.2370 C.3   154  HEM154      0.0000
     40  CBD       38.5160    1.9590   15.2040 C.3   154  HEM154      0.0000
     41  CGD       39.5710    1.2720   16.0520 C.2   154  HEM154      0.0000
     42  O1D       39.1870    0.8040   17.1470 O.co2 154  HEM154      0.0000
     43  O2D       40.7240    1.2400   15.5760 O.co2 154  HEM154      0.0000
@<TRIPOS>BOND
     1    22    19    1
     2    24    23    1
     3    23    20    1
     4    19    20    2
     5    19    18    1
     6    20    21    1
     7    11     9    1
     8     3    18    1
     9     3    10    2
    10    18    17    2
    11    16    14   ar
    12    21    17    1
    13    21     4    2
    14     9    10   ar
    15     9     8   ar
    16    10     6   ar
    17    17     1    1
    18    14    13    1
    19    14    15   ar
    20    13    12    1
    21     4    26    1
    22     8    12    1
    23     8     7   ar
    24     6     1    1
    25     6     7   ar
    26     1    25    1
    27     1    33    1
    28    26    25   ar
    29    26    27   ar
    30     7     2    2
    31    30    27    1
    32    25    29   ar
    33    27    28   ar
    34     2    37    1
    35    33    37    2
    36    33    34    1
    37    29    28   ar
    38    29     5    1
    39    28    31    1
    40    37    36    1
    41    34     5    2
    42    34    35    1
    43    31    32    1
    44    36    35    2
    45    36    39    1
    46    35    38    1
    47    39    40    1
    48    40    41    1
    49    43    41   ar
    50    41    42   ar
