@<TRIPOS>MOLECULE
1cpd_HEM_A_1.pdb
 43 50 0 0 0
SMALL
GASTEIGER

@<TRIPOS>ATOM
      1 FE         -5.6470   57.1170   20.8380 Fe    296  HEM296      0.0000
      2  CHA       -5.5500   53.8810   22.0180 C.2   296  HEM296      0.0000
      3  CHB       -7.5880   58.0070   23.6450 C.2   296  HEM296      0.0000
      4  CHC       -5.9800   60.1470   19.6430 C.2   296  HEM296      0.0000
      5  CHD       -3.5670   56.2030   18.3180 C.2   296  HEM296      0.0000
      6  NA        -6.3630   56.2090   22.4370 N.2   296  HEM296      0.0000
      7  C1A       -6.3450   54.8310   22.6500 C.2   296  HEM296      0.0000
      8  C2A       -6.7190   54.5860   24.0180 C.2   296  HEM296      0.0000
      9  C3A       -7.2400   55.7220   24.5130 C.2   296  HEM296      0.0000
     10  C4A       -6.9890   56.7650   23.5500 C.2   296  HEM296      0.0000
     11  CMA       -8.1510   55.9400   25.7420 C.3   296  HEM296      0.0000
     12  CAA       -6.6060   53.1610   24.6030 C.3   296  HEM296      0.0000
     13  CBA       -5.4840   52.9970   25.6450 C.3   296  HEM296      0.0000
     14  CGA       -5.4190   51.6320   26.2690 C.2   296  HEM296      0.0000
     15  O1A       -6.3180   51.3200   27.0900 O.co2 296  HEM296      0.0000
     16  O2A       -4.4060   50.9450   25.9800 O.co2 296  HEM296      0.0000
     17  NB        -6.4690   58.8160   21.6300 N.ar  296  HEM296      0.0000
     18  C1B       -7.4470   58.8810   22.5940 C.ar  296  HEM296      0.0000
     19  C2B       -8.0090   60.2180   22.5790 C.ar  296  HEM296      0.0000
     20  C3B       -7.4960   60.8420   21.5060 C.ar  296  HEM296      0.0000
     21  C4B       -6.7430   59.8470   20.7620 C.ar  296  HEM296      0.0000
     22  CMB       -8.8220   60.8050   23.7540 C.3   296  HEM296      0.0000
     23  CAB       -7.8660   62.2080   20.8980 C.2   296  HEM296      0.0000
     24  CBB       -8.9920   62.8370   21.2140 C.2   296  HEM296      0.0000
     25  NC        -4.9920   57.9780   19.2090 N.2   296  HEM296      0.0000
     26  C1C       -5.0980   59.3420   18.9510 C.2   296  HEM296      0.0000
     27  C2C       -4.4050   59.6050   17.6950 C.2   296  HEM296      0.0000
     28  C3C       -3.6080   58.5540   17.5040 C.2   296  HEM296      0.0000
     29  C4C       -3.9090   57.5470   18.4870 C.2   296  HEM296      0.0000
     30  CMC       -4.2040   60.9940   17.0310 C.3   296  HEM296      0.0000
     31  CAC       -2.5590   58.3440   16.4200 C.2   296  HEM296      0.0000
     32  CBC       -2.6380   59.0290   15.3030 C.2   296  HEM296      0.0000
     33  ND        -4.6670   55.3230   20.3020 N.ar  296  HEM296      0.0000
     34  C1D       -3.9650   55.1530   19.1250 C.ar  296  HEM296      0.0000
     35  C2D       -3.6420   53.7390   18.9570 C.ar  296  HEM296      0.0000
     36  C3D       -4.2090   53.0840   20.0010 C.ar  296  HEM296      0.0000
     37  C4D       -4.7950   54.0890   20.8820 C.ar  296  HEM296      0.0000
     38  CMD       -2.9760   53.1470   17.7000 C.3   296  HEM296      0.0000
     39  CAD       -4.3200   51.5810   20.2960 C.3   296  HEM296      0.0000
     40  CBD       -3.2520   51.1610   21.2960 C.3   296  HEM296      0.0000
     41  CGD       -3.1550   49.6840   21.5880 C.2   296  HEM296      0.0000
     42  O1D       -2.4450   49.4530   22.5900 O.co2 296  HEM296      0.0000
     43  O2D       -3.7880   48.8570   20.8820 O.co2 296  HEM296      0.0000
@<TRIPOS>BOND
     1    32    31    2
     2    31    28    1
     3    30    27    1
     4    28    27    2
     5    28    29    1
     6    27    26    1
     7    38    35    1
     8     5    29    1
     9     5    34    2
    10    29    25    2
    11    26    25    1
    12    26     4    2
    13    35    34   ar
    14    35    36   ar
    15    34    33   ar
    16    25     1    1
    17     4    21    1
    18    36    39    1
    19    36    37   ar
    20    39    40    1
    21    33     1    1
    22    33    37   ar
    23    21    20   ar
    24    21    17   ar
    25     1    17    1
    26     1     6    1
    27    37     2    2
    28    43    41   ar
    29    23    24    2
    30    23    20    1
    31    40    41    1
    32    20    19   ar
    33    41    42   ar
    34    17    18   ar
    35     2     7    1
    36     6     7    2
    37     6    10    1
    38    19    18   ar
    39    19    22    1
    40    18     3    1
    41     7     8    1
    42    10     3    2
    43    10     9    1
    44     8     9    2
    45     8    12    1
    46     9    11    1
    47    12    13    1
    48    13    14    1
    49    16    14   ar
    50    14    15   ar
