@<TRIPOS>MOLECULE
1cpe_HEM_A_1.pdb
 43 50 0 0 0
SMALL
GASTEIGER

@<TRIPOS>ATOM
      1 FE         -5.5460   57.1550   20.8580 Fe    296  HEM296      0.0000
      2  CHA       -5.5700   53.9480   22.1360 C.2   296  HEM296      0.0000
      3  CHB       -7.3610   58.2180   23.7250 C.2   296  HEM296      0.0000
      4  CHC       -5.8520   60.3440   19.6580 C.2   296  HEM296      0.0000
      5  CHD       -3.5290   56.3100   18.5440 C.2   296  HEM296      0.0000
      6  NA        -6.3070   56.3380   22.4510 N.2   296  HEM296      0.0000
      7  C1A       -5.9880   55.0480   22.8660 C.2   296  HEM296      0.0000
      8  C2A       -6.6770   54.7790   24.0960 C.2   296  HEM296      0.0000
      9  C3A       -7.3100   55.9010   24.4680 C.2   296  HEM296      0.0000
     10  C4A       -6.9370   56.9260   23.5370 C.2   296  HEM296      0.0000
     11  CMA       -8.0790   56.2030   25.7630 C.3   296  HEM296      0.0000
     12  CAA       -6.6590   53.3730   24.7230 C.3   296  HEM296      0.0000
     13  CBA       -5.3790   53.1220   25.5450 C.3   296  HEM296      0.0000
     14  CGA       -5.3280   51.8240   26.3080 C.2   296  HEM296      0.0000
     15  O1A       -6.1510   51.6710   27.2490 O.co2 296  HEM296      0.0000
     16  O2A       -4.4370   51.0090   25.9520 O.co2 296  HEM296      0.0000
     17  NB        -6.4990   58.8020   21.4870 N.ar  296  HEM296      0.0000
     18  C1B       -7.2030   59.0380   22.6410 C.ar  296  HEM296      0.0000
     19  C2B       -7.7840   60.3630   22.5810 C.ar  296  HEM296      0.0000
     20  C3B       -7.3310   60.9300   21.4760 C.ar  296  HEM296      0.0000
     21  C4B       -6.6660   59.9170   20.6910 C.ar  296  HEM296      0.0000
     22  CMB       -8.7410   60.9500   23.6370 C.3   296  HEM296      0.0000
     23  CAB       -7.7600   62.2610   20.8670 C.2   296  HEM296      0.0000
     24  CBB       -8.9040   62.8080   21.2490 C.2   296  HEM296      0.0000
     25  NC        -4.9810   58.1300   19.2830 N.2   296  HEM296      0.0000
     26  C1C       -5.1130   59.4570   18.9110 C.2   296  HEM296      0.0000
     27  C2C       -4.2470   59.7060   17.7660 C.2   296  HEM296      0.0000
     28  C3C       -3.4570   58.6480   17.6440 C.2   296  HEM296      0.0000
     29  C4C       -4.0460   57.5880   18.4380 C.2   296  HEM296      0.0000
     30  CMC       -4.0050   61.0380   17.0330 C.3   296  HEM296      0.0000
     31  CAC       -2.4280   58.3910   16.5340 C.2   296  HEM296      0.0000
     32  CBC       -2.4190   59.0540   15.3790 C.2   296  HEM296      0.0000
     33  ND        -4.5090   55.4280   20.5990 N.ar  296  HEM296      0.0000
     34  C1D       -3.9880   55.2930   19.3360 C.ar  296  HEM296      0.0000
     35  C2D       -3.6540   53.8900   19.1280 C.ar  296  HEM296      0.0000
     36  C3D       -4.2170   53.2060   20.1320 C.ar  296  HEM296      0.0000
     37  C4D       -4.9320   54.1700   20.9530 C.ar  296  HEM296      0.0000
     38  CMD       -2.9060   53.3110   17.9320 C.3   296  HEM296      0.0000
     39  CAD       -4.2040   51.6850   20.3300 C.3   296  HEM296      0.0000
     40  CBD       -3.1560   51.2810   21.3760 C.3   296  HEM296      0.0000
     41  CGD       -3.0570   49.8170   21.7000 C.2   296  HEM296      0.0000
     42  O1D       -2.3340   49.5980   22.7050 O.co2 296  HEM296      0.0000
     43  O2D       -3.7000   49.0070   20.9790 O.co2 296  HEM296      0.0000
@<TRIPOS>BOND
     1    32    31    2
     2    31    28    1
     3    30    27    1
     4    28    27    2
     5    28    29    1
     6    27    26    1
     7    38    35    1
     8    29     5    1
     9    29    25    2
    10     5    34    2
    11    26    25    1
    12    26     4    2
    13    35    34   ar
    14    35    36   ar
    15    25     1    1
    16    34    33   ar
    17     4    21    1
    18    36    39    1
    19    36    37   ar
    20    39    40    1
    21    33     1    1
    22    33    37   ar
    23    21    20   ar
    24    21    17   ar
    25     1    17    1
    26     1     6    1
    27    23    24    2
    28    23    20    1
    29    37     2    2
    30    43    41   ar
    31    40    41    1
    32    20    19   ar
    33    17    18   ar
    34    41    42   ar
    35     2     7    1
    36     6     7    2
    37     6    10    1
    38    19    18   ar
    39    19    22    1
    40    18     3    1
    41     7     8    1
    42    10     3    2
    43    10     9    1
    44     8     9    2
    45     8    12    1
    46     9    11    1
    47    12    13    1
    48    13    14    1
    49    16    14   ar
    50    14    15   ar
