@<TRIPOS>MOLECULE
1cpf_HEM_A_1.pdb
 43 50 0 0 0
SMALL
GASTEIGER

@<TRIPOS>ATOM
      1 FE         -5.7480   56.9100   20.7620 Fe    296  HEM296      0.0000
      2  CHA       -5.6850   53.6770   21.8920 C.2   296  HEM296      0.0000
      3  CHB       -7.5610   57.8670   23.5840 C.2   296  HEM296      0.0000
      4  CHC       -6.0480   59.9150   19.5070 C.2   296  HEM296      0.0000
      5  CHD       -3.6260   56.0080   18.2130 C.2   296  HEM296      0.0000
      6  NA        -6.4270   56.0220   22.3700 N.2   296  HEM296      0.0000
      7  C1A       -6.2700   54.6730   22.6560 C.2   296  HEM296      0.0000
      8  C2A       -6.7710   54.4250   23.9910 C.2   296  HEM296      0.0000
      9  C3A       -7.3290   55.5540   24.4390 C.2   296  HEM296      0.0000
     10  C4A       -7.0970   56.5830   23.4470 C.2   296  HEM296      0.0000
     11  CMA       -8.1090   55.8020   25.7510 C.3   296  HEM296      0.0000
     12  CAA       -6.6650   53.0270   24.6410 C.3   296  HEM296      0.0000
     13  CBA       -5.6180   52.9180   25.7630 C.3   296  HEM296      0.0000
     14  CGA       -5.5040   51.5270   26.3370 C.2   296  HEM296      0.0000
     15  O1A       -6.2340   51.2380   27.3150 O.co2 296  HEM296      0.0000
     16  O2A       -4.5740   50.7840   25.9370 O.co2 296  HEM296      0.0000
     17  NB        -6.6010   58.5100   21.4760 N.ar  296  HEM296      0.0000
     18  C1B       -7.5170   58.6760   22.4760 C.ar  296  HEM296      0.0000
     19  C2B       -7.8530   60.0850   22.5450 C.ar  296  HEM296      0.0000
     20  C3B       -7.5300   60.6110   21.3680 C.ar  296  HEM296      0.0000
     21  C4B       -6.6470   59.6660   20.7320 C.ar  296  HEM296      0.0000
     22  CMB       -8.8040   60.7160   23.5780 C.3   296  HEM296      0.0000
     23  CAB       -7.8360   62.0050   20.8330 C.2   296  HEM296      0.0000
     24  CBB       -8.9640   62.6520   21.1290 C.2   296  HEM296      0.0000
     25  NC        -5.0420   57.7440   19.1080 N.2   296  HEM296      0.0000
     26  C1C       -5.2080   59.0940   18.8140 C.2   296  HEM296      0.0000
     27  C2C       -4.3670   59.4270   17.6820 C.2   296  HEM296      0.0000
     28  C3C       -3.5710   58.3910   17.4820 C.2   296  HEM296      0.0000
     29  C4C       -3.9390   57.3350   18.4120 C.2   296  HEM296      0.0000
     30  CMC       -4.1960   60.8420   17.0640 C.3   296  HEM296      0.0000
     31  CAC       -2.5360   58.1900   16.3830 C.2   296  HEM296      0.0000
     32  CBC       -2.6370   58.9320   15.2920 C.2   296  HEM296      0.0000
     33  ND        -4.7590   55.1800   20.2530 N.ar  296  HEM296      0.0000
     34  C1D       -4.1040   55.0170   19.0480 C.ar  296  HEM296      0.0000
     35  C2D       -3.6710   53.6500   18.9310 C.ar  296  HEM296      0.0000
     36  C3D       -4.3160   52.9560   19.8690 C.ar  296  HEM296      0.0000
     37  C4D       -4.8500   53.9300   20.8170 C.ar  296  HEM296      0.0000
     38  CMD       -3.0660   53.0840   17.6410 C.3   296  HEM296      0.0000
     39  CAD       -4.2620   51.4360   20.1180 C.3   296  HEM296      0.0000
     40  CBD       -3.2610   51.1290   21.2320 C.3   296  HEM296      0.0000
     41  CGD       -3.0990   49.6870   21.6410 C.2   296  HEM296      0.0000
     42  O1D       -2.3540   49.5700   22.6450 O.co2 296  HEM296      0.0000
     43  O2D       -3.7220   48.8020   20.9910 O.co2 296  HEM296      0.0000
@<TRIPOS>BOND
     1    32    31    2
     2    31    28    1
     3    30    27    1
     4    28    27    2
     5    28    29    1
     6    38    35    1
     7    27    26    1
     8     5    29    1
     9     5    34    2
    10    29    25    2
    11    26    25    1
    12    26     4    2
    13    35    34   ar
    14    35    36   ar
    15    34    33   ar
    16    25     1    1
    17     4    21    1
    18    36    39    1
    19    36    37   ar
    20    39    40    1
    21    33     1    1
    22    33    37   ar
    23    21    20   ar
    24    21    17   ar
    25     1    17    1
    26     1     6    1
    27    37     2    2
    28    23    24    2
    29    23    20    1
    30    43    41   ar
    31    40    41    1
    32    20    19   ar
    33    17    18   ar
    34    41    42   ar
    35     2     7    1
    36     6     7    2
    37     6    10    1
    38    18    19   ar
    39    18     3    1
    40    19    22    1
    41     7     8    1
    42    10     3    2
    43    10     9    1
    44     8     9    2
    45     8    12    1
    46     9    11    1
    47    12    13    1
    48    13    14    1
    49    16    14   ar
    50    14    15   ar
