@<TRIPOS>MOLECULE
1cpg_HEM_A_1.pdb
 43 50 0 0 0
SMALL
GASTEIGER

@<TRIPOS>ATOM
      1 FE         -5.5450   57.1140   20.9250 Fe    296  HEM296      0.0000
      2  CHA       -5.5570   53.8640   22.1570 C.2   296  HEM296      0.0000
      3  CHB       -7.1970   58.1780   23.7020 C.2   296  HEM296      0.0000
      4  CHC       -5.8410   60.3310   19.6240 C.2   296  HEM296      0.0000
      5  CHD       -3.5550   56.2470   18.4950 C.2   296  HEM296      0.0000
      6  NA        -6.3210   56.2420   22.3550 N.2   296  HEM296      0.0000
      7  C1A       -5.9430   54.9970   22.8430 C.2   296  HEM296      0.0000
      8  C2A       -6.5780   54.7820   24.1140 C.2   296  HEM296      0.0000
      9  C3A       -7.3290   55.8600   24.3770 C.2   296  HEM296      0.0000
     10  C4A       -6.9710   56.8580   23.4180 C.2   296  HEM296      0.0000
     11  CMA       -7.9900   56.2090   25.7180 C.3   296  HEM296      0.0000
     12  CAA       -6.5930   53.3990   24.8010 C.3   296  HEM296      0.0000
     13  CBA       -5.3100   53.0500   25.5890 C.3   296  HEM296      0.0000
     14  CGA       -5.3140   51.7310   26.3320 C.2   296  HEM296      0.0000
     15  O1A       -6.1400   51.5650   27.2710 O.co2 296  HEM296      0.0000
     16  O2A       -4.3450   50.9560   26.1180 O.co2 296  HEM296      0.0000
     17  NB        -6.4160   58.7710   21.4460 N.ar  296  HEM296      0.0000
     18  C1B       -7.1910   58.9410   22.5650 C.ar  296  HEM296      0.0000
     19  C2B       -7.8020   60.2510   22.5310 C.ar  296  HEM296      0.0000
     20  C3B       -7.3390   60.8620   21.4650 C.ar  296  HEM296      0.0000
     21  C4B       -6.5950   59.9080   20.6900 C.ar  296  HEM296      0.0000
     22  CMB       -8.6170   60.8770   23.6760 C.3   296  HEM296      0.0000
     23  CAB       -7.7220   62.2580   20.9480 C.2   296  HEM296      0.0000
     24  CBB       -8.9420   62.7360   21.1580 C.2   296  HEM296      0.0000
     25  NC        -4.8760   58.0790   19.3990 N.2   296  HEM296      0.0000
     26  C1C       -5.0940   59.3860   18.9960 C.2   296  HEM296      0.0000
     27  C2C       -4.2160   59.6800   17.8850 C.2   296  HEM296      0.0000
     28  C3C       -3.4380   58.6200   17.7070 C.2   296  HEM296      0.0000
     29  C4C       -4.0530   57.5350   18.4480 C.2   296  HEM296      0.0000
     30  CMC       -4.0390   61.0760   17.2550 C.3   296  HEM296      0.0000
     31  CAC       -2.3520   58.4110   16.6450 C.2   296  HEM296      0.0000
     32  CBC       -2.3740   59.0110   15.4570 C.2   296  HEM296      0.0000
     33  ND        -4.5510   55.4210   20.5860 N.ar  296  HEM296      0.0000
     34  C1D       -3.8890   55.2620   19.3840 C.ar  296  HEM296      0.0000
     35  C2D       -3.6260   53.8480   19.1660 C.ar  296  HEM296      0.0000
     36  C3D       -4.2610   53.1780   20.1370 C.ar  296  HEM296      0.0000
     37  C4D       -4.7640   54.1530   21.0800 C.ar  296  HEM296      0.0000
     38  CMD       -3.0100   53.2480   17.8970 C.3   296  HEM296      0.0000
     39  CAD       -4.3000   51.6660   20.3810 C.3   296  HEM296      0.0000
     40  CBD       -3.1930   51.2570   21.3530 C.3   296  HEM296      0.0000
     41  CGD       -3.0720   49.8020   21.7110 C.2   296  HEM296      0.0000
     42  O1D       -2.3450   49.6310   22.7180 O.co2 296  HEM296      0.0000
     43  O2D       -3.7730   48.9350   21.1180 O.co2 296  HEM296      0.0000
@<TRIPOS>BOND
     1    32    31    2
     2    31    28    1
     3    30    27    1
     4    28    27    2
     5    28    29    1
     6    27    26    1
     7    38    35    1
     8    29     5    1
     9    29    25    2
    10     5    34    2
    11    26    25    1
    12    26     4    2
    13    35    34   ar
    14    35    36   ar
    15    34    33   ar
    16    25     1    1
    17     4    21    1
    18    36    39    1
    19    36    37   ar
    20    39    40    1
    21    33     1    1
    22    33    37   ar
    23    21    17   ar
    24    21    20   ar
    25     1    17    1
    26     1     6    1
    27    23    24    2
    28    23    20    1
    29    37     2    2
    30    43    41   ar
    31    40    41    1
    32    17    18   ar
    33    20    19   ar
    34    41    42   ar
    35     2     7    1
    36     6     7    2
    37     6    10    1
    38    19    18   ar
    39    19    22    1
    40    18     3    1
    41     7     8    1
    42    10     3    2
    43    10     9    1
    44     8     9    2
    45     8    12    1
    46     9    11    1
    47    12    13    1
    48    13    14    1
    49    16    14   ar
    50    14    15   ar
