@<TRIPOS>MOLECULE
1cpi_III_C_1.pdb
 49 51 0 0 0
SMALL
GASTEIGER

@<TRIPOS>ATOM
      1  N          3.9120    2.0840   10.7490 N.2     1  ASN1       -0.1907
      2  CA         3.3240    1.6650   12.0230 C.3     1  ASN1        0.2281
      3  C          4.0550    0.4320   12.5450 C.1     1  ASN1        0.1496
      4  O          3.8610   -0.6810   12.0360 O.2     1  ASN1       -0.2251
      5  CB         1.8370    1.3720   11.8290 C.3     1  ASN1        0.1307
      6  CG         1.0780    2.5770   11.2900 C.2     1  ASN1        0.2639
      7  OD1        0.7740    3.5130   12.0260 O.2     1  ASN1       -0.2715
      8  ND2        0.8110    2.5770    9.9930 N.am    1  ASN1       -0.0877
      9  C          5.1730   -0.7350   15.5820 C.3     2  RTY2        0.1912
     10  N          4.8980    0.6450   13.5590 N.2     2  RTY2       -0.2037
     11  O          5.2660    0.4250   16.4280 O.3     2  RTY2       -0.2195
     12  C1         7.1280    4.3450    9.8830 C.3     2  RTY2        0.2066
     13  O1         4.1140    4.2700   11.3000 O.2     2  RTY2       -0.2270
     14  C2         4.2490    3.3440   10.4910 C.1     2  RTY2        0.1271
     15  C3         4.8290    3.5710    9.1120 C.3     2  RTY2        0.1255
     16  C4         5.8690    4.6580    9.0570 C.3     2  RTY2        0.0650
     17  C6         3.7270   -1.1680   15.4940 C.3     2  RTY2        0.1077
     18  CA         5.6950   -0.4380   14.1710 C.3     2  RTY2        0.1505
     19  CB         7.1400    0.0470   14.2830 C.3     2  RTY2        0.0542
     20  CG         7.5240    0.8130   13.0560 C.ar    2  RTY2       -0.0199
     21  OH         7.7360    3.0770    9.5830 O.3     2  RTY2       -0.4754
     22  CZ         7.7530    2.2990   10.7300 C.ar    2  RTY2        0.1385
     23  CD1        7.6430    0.1830   11.8220 C.ar    2  RTY2       -0.0011
     24  CD2        7.5550    2.1930   13.0970 C.ar    2  RTY2       -0.0011
     25  CE1        7.7510    0.9180   10.6550 C.ar    2  RTY2        0.0366
     26  CE2        7.6690    2.9320   11.9650 C.ar    2  RTY2        0.0366
     27  N          3.5730   -2.6280   15.5040 N.3     3  PRO3       -0.2643
     28  CA         4.2990   -3.4650   16.4560 C.3     3  PRO3        0.1366
     29  C          5.5900   -4.1130   15.9410 C.2     3  PRO3        0.2562
     30  O          5.8690   -4.1740   14.7250 O.2     3  PRO3       -0.2719
     31  CB         3.2690   -4.5380   16.7950 C.3     3  PRO3        0.0268
     32  CG         2.6110   -4.7530   15.4730 C.3     3  PRO3        0.0192
     33  CD         2.4310   -3.3560   14.9190 C.3     3  PRO3        0.0726
     34  N          6.4040   -4.5230   16.9010 N.am    4  ILE4       -0.1967
     35  CA         7.6420   -5.2620   16.6320 C.3     4  ILE4        0.1727
     36  C          7.4690   -6.3740   17.6280 C.2     4  ILE4        0.2616
     37  O          7.5770   -6.1410   18.8380 O.2     4  ILE4       -0.2715
     38  CB         8.9410   -4.5460   17.0440 C.3     4  ILE4        0.0290
     39  CG1        9.1960   -3.3310   16.1680 C.3     4  ILE4        0.0022
     40  CG2       10.1040   -5.5230   16.9400 C.3     4  ILE4        0.0023
     41  CD1        9.2120   -3.6560   14.7230 C.3     4  ILE4        0.0001
     42  N          7.1020   -7.5530   17.1500 N.am    5  VAL5       -0.1963
     43  CA         6.9450   -8.6850   18.0590 C.3     5  VAL5        0.1743
     44  C          8.0200   -9.7490   17.8010 C.2     5  VAL5        0.2806
     45  O          8.3360  -10.0780   16.6430 O.2     5  VAL5       -0.2698
     46  CB         5.5150   -9.2710   18.0080 C.3     5  VAL5        0.0290
     47  CG1        4.5130   -8.2070   18.3910 C.3     5  VAL5        0.0023
     48  CG2        5.2000   -9.8440   16.6210 C.3     5  VAL5        0.0023
     49  N          8.6340  -10.2480   18.8790 N.am    6  NH26       -0.0863
@<TRIPOS>BOND
     1    16    15    1
     2    16    12    1
     3    15    14    1
     4    21    12    1
     5    21    22    1
     6     8     6   am
     7    14     1    2
     8    14    13    2
     9    25    22   ar
    10    25    23   ar
    11    22    26   ar
    12     1     2    1
    13     6     5    1
    14     6     7    2
    15    23    20   ar
    16     5     2    1
    17    26    24   ar
    18     2     3    1
    19     4     3    2
    20     3    10    2
    21    20    24   ar
    22    20    19    1
    23    10    18    1
    24    18    19    1
    25    18     9    1
    26    41    39    1
    27    30    29    2
    28    33    32    1
    29    33    27    1
    30    32    31    1
    31    17    27    1
    32    17     9    1
    33    27    28    1
    34     9    11    1
    35    29    28    1
    36    29    34   am
    37    39    38    1
    38    28    31    1
    39    48    46    1
    40    35    34    1
    41    35    38    1
    42    35    36    1
    43    45    44    2
    44    40    38    1
    45    42    36   am
    46    42    43    1
    47    36    37    2
    48    44    43    1
    49    44    49   am
    50    46    43    1
    51    46    47    1
