@<TRIPOS>MOLECULE
1cpo_HEM_A_1.pdb
 43 50 0 0 0
SMALL
GASTEIGER

@<TRIPOS>ATOM
      1  CHA       38.4700    1.2410    1.7100 C.2   396  HEM396      0.0000
      2  CHB       38.2070   -3.5620    2.3260 C.2   396  HEM396      0.0000
      3  CHC       34.1630   -2.9890    4.8790 C.2   396  HEM396      0.0000
      4  CHD       34.5470    1.8490    4.5020 C.2   396  HEM396      0.0000
      5  C1A       38.7910   -0.1210    1.7040 C.ar  396  HEM396      0.0000
      6  C2A       39.8870   -0.7170    0.9720 C.ar  396  HEM396      0.0000
      7  C3A       39.7830   -2.0530    1.1100 C.ar  396  HEM396      0.0000
      8  C4A       38.6680   -2.3020    1.9840 C.ar  396  HEM396      0.0000
      9  CMA       40.6480   -3.1120    0.4730 C.3   396  HEM396      0.0000
     10  CAA       40.9360    0.0540    0.2250 C.3   396  HEM396      0.0000
     11  CBA       40.3550    0.6150   -1.0690 C.3   396  HEM396      0.0000
     12  CGA       41.0400    1.8840   -1.4890 C.2   396  HEM396      0.0000
     13  O1A       40.5700    2.9730   -1.0910 O.co2 396  HEM396      0.0000
     14  O2A       42.0420    1.8040   -2.2340 O.co2 396  HEM396      0.0000
     15  C1B       37.1370   -3.8430    3.1590 C.2   396  HEM396      0.0000
     16  C2B       36.7000   -5.1740    3.5280 C.2   396  HEM396      0.0000
     17  C3B       35.5540   -5.0280    4.2320 C.2   396  HEM396      0.0000
     18  C4B       35.2860   -3.5920    4.3140 C.2   396  HEM396      0.0000
     19  CMB       37.4320   -6.4840    3.1900 C.3   396  HEM396      0.0000
     20  CAB       34.9470   -6.2070    4.6760 C.3   396  HEM396      0.0000
     21  CBB       33.8950   -6.3330    5.5580 C.3   396  HEM396      0.0000
     22  C1C       33.9440   -1.6140    5.0370 C.ar  396  HEM396      0.0000
     23  C2C       32.7490   -1.0370    5.6090 C.ar  396  HEM396      0.0000
     24  C3C       32.9590    0.3050    5.6960 C.ar  396  HEM396      0.0000
     25  C4C       34.1560    0.5870    4.9440 C.ar  396  HEM396      0.0000
     26  CMC       31.5100   -1.8530    5.9440 C.3   396  HEM396      0.0000
     27  CAC       32.2560    1.3380    6.3240 C.3   396  HEM396      0.0000
     28  CBC       30.8760    1.3700    6.7430 C.3   396  HEM396      0.0000
     29  C1D       35.6570    2.1270    3.7140 C.2   396  HEM396      0.0000
     30  C2D       35.9730    3.4170    3.1330 C.2   396  HEM396      0.0000
     31  C3D       37.0700    3.2460    2.3570 C.2   396  HEM396      0.0000
     32  C4D       37.4340    1.8430    2.4290 C.2   396  HEM396      0.0000
     33  CMD       35.1780    4.7030    3.3330 C.3   396  HEM396      0.0000
     34  CAD       37.7660    4.3080    1.5200 C.3   396  HEM396      0.0000
     35  CBD       39.0550    4.9030    2.0960 C.3   396  HEM396      0.0000
     36  CGD       39.7050    5.9280    1.1830 C.2   396  HEM396      0.0000
     37  O1D       40.5870    6.6680    1.6540 O.co2 396  HEM396      0.0000
     38  O2D       39.3450    6.0000   -0.0050 O.co2 396  HEM396      0.0000
     39  NA        38.1270   -1.1030    2.4130 N.ar  396  HEM396      0.0000
     40  NB        36.3520   -2.9020    3.7840 N.2   396  HEM396      0.0000
     41  NC        34.8050   -0.6010    4.6620 N.ar  396  HEM396      0.0000
     42  ND        36.5660    1.1850    3.2800 N.2   396  HEM396      0.0000
     43 FE         36.5340   -0.8530    3.6590 Fe    396  HEM396      0.0000
@<TRIPOS>BOND
     1    14    12   ar
     2    12    13   ar
     3    12    11    1
     4    11    10    1
     5    38    36   ar
     6    10     6    1
     7     9     7    1
     8     6     7   ar
     9     6     5   ar
    10     7     8   ar
    11    36    37   ar
    12    36    35    1
    13    34    35    1
    14    34    31    1
    15     5     1    2
    16     5    39   ar
    17     1    32    1
    18     8     2    2
    19     8    39   ar
    20     2    15    1
    21    31    32    1
    22    31    30    2
    23    39    43    1
    24    32    42    2
    25    30    33    1
    26    30    29    1
    27    15    16    1
    28    15    40    2
    29    19    16    1
    30    42    43    1
    31    42    29    1
    32    16    17    2
    33    43    40    1
    34    43    41    1
    35    29     4    2
    36    40    18    1
    37    17    18    1
    38    17    20    1
    39    18     3    2
    40     4    25    1
    41    41    25   ar
    42    41    22   ar
    43    20    21    1
    44     3    22    1
    45    25    24   ar
    46    22    23   ar
    47    23    24   ar
    48    23    26    1
    49    24    27    1
    50    27    28    1
