@<TRIPOS>MOLECULE
1cpo_MAN_A_1.pdb
 11 11 0 0 0
SMALL
GASTEIGER

@<TRIPOS>ATOM
      1  C1        21.6100   -0.6610   -5.2800 C.3   738  MAN738      0.1777
      2  C2        20.2630   -1.0910   -4.7100 C.3   738  MAN738      0.2141
      3  C3        20.2300   -2.5940   -4.4300 C.3   738  MAN738      0.2173
      4  C4        20.7080   -3.3940   -5.6360 C.3   738  MAN738      0.2142
      5  C5        22.0940   -2.9060   -6.0550 C.3   738  MAN738      0.1810
      6  C6        22.6930   -3.6670   -7.2320 C.3   738  MAN738      0.2141
      7  O2        19.2340   -0.8080   -5.6200 O.3   738  MAN738     -0.2176
      8  O3        18.9100   -2.9980   -4.1490 O.3   738  MAN738     -0.2175
      9  O4        20.7360   -4.7370   -5.2360 O.3   738  MAN738     -0.2176
     10  O5        21.9800   -1.4920   -6.3870 O.3   738  MAN738     -0.3481
     11  O6        23.9120   -3.0620   -7.6220 O.3   738  MAN738     -0.2176
@<TRIPOS>BOND
     1    11     6    1
     2     6     5    1
     3    10     5    1
     4    10     1    1
     5     5     4    1
     6     4     9    1
     7     4     3    1
     8     7     2    1
     9     1     2    1
    10     2     3    1
    11     3     8    1
