@<TRIPOS>MOLECULE
1cpq_HEM_A_1.pdb
 47 54 0 0 0
SMALL
GASTEIGER

@<TRIPOS>ATOM
      1 FE         26.2180   19.3670   22.8280 Fe    130  HEM130      0.0000
      2  CHA       23.6740   18.8760   20.6570 C.2   130  HEM130      0.0000
      3  CHB       26.4890   22.6470   21.8190 C.2   130  HEM130      0.0000
      4  CHC       28.4370   20.0270   25.3010 C.2   130  HEM130      0.0000
      5  CHD       25.6900   16.2200   24.1420 C.2   130  HEM130      0.0000
      6  NA        25.2780   20.5290   21.5600 N.ar  130  HEM130      0.0000
      7  C1A       24.2560   20.1350   20.6730 C.ar  130  HEM130      0.0000
      8  C2A       23.8730   21.2140   19.7660 C.ar  130  HEM130      0.0000
      9  C3A       24.6730   22.2910   20.0920 C.ar  130  HEM130      0.0000
     10  C4A       25.5250   21.8470   21.2200 C.ar  130  HEM130      0.0000
     11  CMA       24.7330   23.6720   19.4110 C.3   130  HEM130      0.0000
     12  CAA       22.7650   21.1550   18.7190 C.3   130  HEM130      0.0000
     13  CBA       21.4890   21.6050   19.4010 C.3   130  HEM130      0.0000
     14  CGA       20.3920   22.0020   18.4230 C.2   130  HEM130      0.0000
     15  O1A       20.5410   23.0460   17.7480 O.co2 130  HEM130      0.0000
     16  O2A       19.3720   21.2890   18.3450 O.co2 130  HEM130      0.0000
     17  NB        27.2160   20.9770   23.4320 N.2   130  HEM130      0.0000
     18  C1B       27.2830   22.2400   22.8560 C.2   130  HEM130      0.0000
     19  C2B       28.3030   23.0710   23.4820 C.2   130  HEM130      0.0000
     20  C3B       28.8590   22.2840   24.4580 C.2   130  HEM130      0.0000
     21  C4B       28.1610   21.0380   24.4320 C.2   130  HEM130      0.0000
     22  CMB       28.7310   24.5000   23.0960 C.3   130  HEM130      0.0000
     23  CAB       30.0890   22.6100   25.3290 C.3   130  HEM130      0.0000
     24  CBB       29.8770   23.7810   26.2840 C.3   130  HEM130      0.0000
     25  NC        26.9240   18.3450   24.3740 N.ar  130  HEM130      0.0000
     26  C1C       27.8710   18.7700   25.2930 C.ar  130  HEM130      0.0000
     27  C2C       28.1900   17.7420   26.3220 C.ar  130  HEM130      0.0000
     28  C3C       27.3950   16.6680   25.9720 C.ar  130  HEM130      0.0000
     29  C4C       26.6280   17.0540   24.7790 C.ar  130  HEM130      0.0000
     30  CMC       29.2490   17.8780   27.4380 C.3   130  HEM130      0.0000
     31  CAC       27.4140   15.2370   26.4460 C.3   130  HEM130      0.0000
     32  CBC       27.6590   15.0390   27.9680 C.3   130  HEM130      0.0000
     33  ND        24.9520   17.8790   22.4960 N.2   130  HEM130      0.0000
     34  C1D       24.8990   16.6180   23.0950 C.2   130  HEM130      0.0000
     35  C2D       23.8970   15.7590   22.4620 C.2   130  HEM130      0.0000
     36  C3D       23.3380   16.4990   21.4770 C.2   130  HEM130      0.0000
     37  C4D       23.9690   17.8200   21.5170 C.2   130  HEM130      0.0000
     38  CMD       23.4980   14.3270   22.8600 C.3   130  HEM130      0.0000
     39  CAD       22.1420   16.0390   20.6530 C.3   130  HEM130      0.0000
     40  CBD       20.8290   16.4690   21.3060 C.3   130  HEM130      0.0000
     41  CGD       19.6180   16.1580   20.4480 C.2   130  HEM130      0.0000
     42  O1D       19.7400   16.2030   19.2080 O.co2 130  HEM130      0.0000
     43  O2D       18.5390   15.8810   21.0020 O.co2 130  HEM130      0.0000
     44  HHA       22.9950   18.6240   19.8440 H     130  HEM130      0.0000
     45  HHB       26.6010   23.6720   21.4710 H     130  HEM130      0.0000
     46  HHC       29.0290   20.2690   26.1780 H     130  HEM130      0.0000
     47  HHD       25.5970   15.1780   24.4410 H     130  HEM130      0.0000
@<TRIPOS>BOND
     1    15    14   ar
     2    16    14   ar
     3    14    13    1
     4    12    13    1
     5    12     8    1
     6    42    41   ar
     7    11     9    1
     8     8     9   ar
     9     8     7   ar
    10    44     2    1
    11     9    10   ar
    12    41    43   ar
    13    41    40    1
    14    39    40    1
    15    39    36    1
    16     2     7    2
    17     2    37    1
    18     7     6   ar
    19    10     6   ar
    20    10     3    2
    21    45     3    1
    22    36    37    1
    23    36    35    2
    24    37    33    2
    25     6     1    1
    26     3    18    1
    27    35    38    1
    28    35    34    1
    29    33     1    1
    30    33    34    1
    31     1    17    1
    32     1    25    1
    33    18    17    2
    34    18    19    1
    35    34     5    2
    36    22    19    1
    37    17    21    1
    38    19    20    2
    39     5    47    1
    40     5    29    1
    41    25    29   ar
    42    25    26   ar
    43    21    20    1
    44    21     4    2
    45    20    23    1
    46    29    28   ar
    47    26     4    1
    48    26    27   ar
    49     4    46    1
    50    23    24    1
    51    28    27   ar
    52    28    31    1
    53    27    30    1
    54    31    32    1
