@<TRIPOS>MOLECULE
1cpr_HEM_A_1.pdb
 43 50 0 0 0
SMALL
GASTEIGER

@<TRIPOS>ATOM
      1 FE         26.4960   19.4630   19.1400 Fe    136  HEM136      0.0000
      2  CHA       28.4440   22.2650   18.8860 C.2   136  HEM136      0.0000
      3  CHB       26.9470   19.4880   22.5520 C.2   136  HEM136      0.0000
      4  CHC       24.1040   17.0300   19.5750 C.2   136  HEM136      0.0000
      5  CHD       25.5950   19.7340   15.8700 C.2   136  HEM136      0.0000
      6  NA        27.4170   20.6230   20.4050 N.2   136  HEM136      0.0000
      7  C1A       28.2010   21.7610   20.1380 C.2   136  HEM136      0.0000
      8  C2A       28.7670   22.3090   21.3700 C.2   136  HEM136      0.0000
      9  C3A       28.3430   21.5180   22.3740 C.2   136  HEM136      0.0000
     10  C4A       27.5170   20.4830   21.8010 C.2   136  HEM136      0.0000
     11  CMA       28.7660   21.6870   23.8210 C.3   136  HEM136      0.0000
     12  CAA       29.7050   23.5040   21.5450 C.3   136  HEM136      0.0000
     13  CBA       28.9500   24.8060   21.7060 C.3   136  HEM136      0.0000
     14  CGA       29.8650   26.0040   21.8760 C.2   136  HEM136      0.0000
     15  O1A       30.4020   26.2030   22.9880 O.co2 136  HEM136      0.0000
     16  O2A       30.0380   26.7650   20.9010 O.co2 136  HEM136      0.0000
     17  NB        25.7280   18.4930   20.7220 N.ar  136  HEM136      0.0000
     18  C1B       26.1450   18.5400   22.0570 C.ar  136  HEM136      0.0000
     19  C2B       25.6020   17.4550   22.8350 C.ar  136  HEM136      0.0000
     20  C3B       24.7510   16.7940   21.9780 C.ar  136  HEM136      0.0000
     21  C4B       24.7980   17.4710   20.7020 C.ar  136  HEM136      0.0000
     22  CMB       25.8780   17.1350   24.3220 C.3   136  HEM136      0.0000
     23  CAB       23.9280   15.5420   22.2140 C.3   136  HEM136      0.0000
     24  CBB       22.8110   15.7010   23.2680 C.3   136  HEM136      0.0000
     25  NC        25.1880   18.5390   17.9720 N.2   136  HEM136      0.0000
     26  C1C       24.2990   17.5250   18.2920 C.2   136  HEM136      0.0000
     27  C2C       23.4920   17.1190   17.1710 C.2   136  HEM136      0.0000
     28  C3C       23.8850   17.9220   16.1240 C.2   136  HEM136      0.0000
     29  C4C       24.9230   18.7800   16.6260 C.2   136  HEM136      0.0000
     30  CMC       22.5010   15.9200   17.2000 C.3   136  HEM136      0.0000
     31  CAC       23.6530   17.7970   14.6100 C.3   136  HEM136      0.0000
     32  CBC       22.3060   17.2670   14.1680 C.3   136  HEM136      0.0000
     33  ND        27.0260   20.6630   17.6890 N.ar  136  HEM136      0.0000
     34  C1D       26.5990   20.5900   16.3420 C.ar  136  HEM136      0.0000
     35  C2D       27.1960   21.6630   15.5560 C.ar  136  HEM136      0.0000
     36  C3D       27.9550   22.4150   16.4210 C.ar  136  HEM136      0.0000
     37  C4D       27.8540   21.7800   17.7420 C.ar  136  HEM136      0.0000
     38  CMD       27.0200   21.8400   14.0280 C.3   136  HEM136      0.0000
     39  CAD       28.7860   23.6710   16.1090 C.3   136  HEM136      0.0000
     40  CBD       27.8800   24.8610   16.3680 C.3   136  HEM136      0.0000
     41  CGD       28.5690   26.1920   16.1730 C.2   136  HEM136      0.0000
     42  O1D       29.7810   26.3040   16.4400 O.co2 136  HEM136      0.0000
     43  O2D       27.8880   27.1460   15.7630 O.co2 136  HEM136      0.0000
@<TRIPOS>BOND
     1    38    35    1
     2    32    31    1
     3    31    28    1
     4    35    34   ar
     5    35    36   ar
     6    43    41   ar
     7     5    34    2
     8     5    29    1
     9    39    40    1
    10    39    36    1
    11    28    29    1
    12    28    27    2
    13    41    40    1
    14    41    42   ar
    15    34    33   ar
    16    36    37   ar
    17    29    25    2
    18    27    30    1
    19    27    26    1
    20    33    37   ar
    21    33     1    1
    22    37     2    2
    23    25    26    1
    24    25     1    1
    25    26     4    2
    26     2     7    1
    27     1     6    1
    28     1    17    1
    29     4    21    1
    30     7     6    2
    31     7     8    1
    32     6    10    1
    33    21    17   ar
    34    21    20   ar
    35    17    18   ar
    36    16    14   ar
    37     8    12    1
    38     8     9    2
    39    12    13    1
    40    13    14    1
    41    10     9    1
    42    10     3    2
    43    14    15   ar
    44    20    23    1
    45    20    19   ar
    46    18     3    1
    47    18    19   ar
    48    23    24    1
    49     9    11    1
    50    19    22    1
