@<TRIPOS>MOLECULE
1cps_CPM_A_1.pdb
 16 16 0 0 0
SMALL
GASTEIGER

@<TRIPOS>ATOM
      1  CA1       -2.7680   30.8040   -6.5530 C.3   588  CPM588      0.0846
      2  CA        -2.5920   29.8980   -7.9100 C.3   588  CPM588      0.1195
      3  C         -0.9190   29.7770   -8.0510 C.2   588  CPM588      0.3655
      4  O         -0.1400   30.8640   -7.6760 O.co2 588  CPM588     -0.2456
      5  CB        -2.9750   31.1660   -8.9400 C.3   588  CPM588      0.0385
      6  CG        -2.5800   30.4420  -10.3910 C.ar  588  CPM588     -0.0216
      7  CD1       -3.8270   29.8380  -11.1400 C.ar  588  CPM588     -0.0043
      8  CD2       -1.1290   30.4420  -10.8120 C.ar  588  CPM588     -0.0043
      9  CE1       -3.2370   29.1730  -12.4970 C.ar  588  CPM588     -0.0003
     10  CE2       -0.7400   29.7170  -12.2170 C.ar  588  CPM588     -0.0003
     11  CZ        -2.1080   29.1730  -12.8250 C.ar  588  CPM588     -0.0000
     12  OXT       -0.6000   28.5690   -8.5190 O.co2 588  CPM588     -0.2456
     13  S         -2.8410   29.7170   -5.1960 S.3   588  CPM588     -0.0421
     14  N1        -3.8140   28.5090   -5.6640 N.3   588  CPM588     -0.0649
     15  N2        -1.4020   29.2940   -4.7270 N.3   588  CPM588     -0.0649
     16  CM        -3.6310   30.5620   -3.8850 C.3   588  CPM588      0.0858
@<TRIPOS>BOND
     1    11     9   ar
     2    11    10   ar
     3     9     7   ar
     4    10     8   ar
     5     7     6   ar
     6     8     6   ar
     7     6     5    1
     8     5     2    1
     9    12     3   ar
    10     3     2    1
    11     3     4   ar
    12     2     1    1
    13     1    13    1
    14    14    13    1
    15    13    15    1
    16    13    16    1
