@<TRIPOS>MOLECULE
1cpt_HEM_A_1.pdb
 43 50 0 0 0
SMALL
GASTEIGER

@<TRIPOS>ATOM
      1 FE         36.7190   13.0840   86.9460 Fe    430  HEM430      0.0000
      2  CHA       33.8870   14.1860   85.4120 C.2   430  HEM430      0.0000
      3  CHB       34.9240   12.4350   89.7380 C.2   430  HEM430      0.0000
      4  CHC       39.5140   12.0040   88.4840 C.2   430  HEM430      0.0000
      5  CHD       38.5710   14.1210   84.3030 C.2   430  HEM430      0.0000
      6  NA        34.8210   13.1430   87.4240 N.2   430  HEM430      0.0000
      7  C1A       33.7520   13.5950   86.6590 C.2   430  HEM430      0.0000
      8  C2A       32.4730   13.4940   87.3820 C.2   430  HEM430      0.0000
      9  C3A       32.7930   13.0460   88.6160 C.2   430  HEM430      0.0000
     10  C4A       34.2400   12.8220   88.6320 C.2   430  HEM430      0.0000
     11  CMA       31.8060   12.8370   89.7570 C.3   430  HEM430      0.0000
     12  CAA       31.0580   13.6800   86.8680 C.3   430  HEM430      0.0000
     13  CBA       30.5440   12.3960   86.2120 C.3   430  HEM430      0.0000
     14  CGA       29.0890   12.2970   85.8040 C.2   430  HEM430      0.0000
     15  O1A       28.4290   13.3100   85.6610 O.co2 430  HEM430      0.0000
     16  O2A       28.5700   11.2030   85.6000 O.co2 430  HEM430      0.0000
     17  NB        37.1240   12.4270   88.7440 N.ar  430  HEM430      0.0000
     18  C1B       36.2780   12.2180   89.7940 C.ar  430  HEM430      0.0000
     19  C2B       36.9660   11.6300   90.9320 C.ar  430  HEM430      0.0000
     20  C3B       38.2610   11.5070   90.5840 C.ar  430  HEM430      0.0000
     21  C4B       38.3410   11.9790   89.2270 C.ar  430  HEM430      0.0000
     22  CMB       36.3260   11.2360   92.2690 C.3   430  HEM430      0.0000
     23  CAB       39.3550   11.1300   91.3580 C.3   430  HEM430      0.0000
     24  CBB       39.4910   10.0760   92.3370 C.3   430  HEM430      0.0000
     25  NC        38.6120   13.0700   86.4780 N.2   430  HEM430      0.0000
     26  C1C       39.6500   12.5170   87.1940 C.2   430  HEM430      0.0000
     27  C2C       40.9190   12.5980   86.4800 C.2   430  HEM430      0.0000
     28  C3C       40.6560   13.2610   85.3330 C.2   430  HEM430      0.0000
     29  C4C       39.2280   13.5420   85.3420 C.2   430  HEM430      0.0000
     30  CMC       42.2290   12.0320   86.9760 C.3   430  HEM430      0.0000
     31  CAC       41.5430   13.7240   84.3570 C.3   430  HEM430      0.0000
     32  CBC       42.4440   12.9110   83.5670 C.3   430  HEM430      0.0000
     33  ND        36.3320   13.8970   85.2240 N.ar  430  HEM430      0.0000
     34  C1D       37.2130   14.2520   84.2250 C.ar  430  HEM430      0.0000
     35  C2D       36.5370   14.8180   83.0770 C.ar  430  HEM430      0.0000
     36  C3D       35.2330   14.8030   83.3670 C.ar  430  HEM430      0.0000
     37  C4D       35.1000   14.2780   84.7200 C.ar  430  HEM430      0.0000
     38  CMD       37.1410   15.3290   81.7660 C.3   430  HEM430      0.0000
     39  CAD       34.1180   15.1920   82.3930 C.3   430  HEM430      0.0000
     40  CBD       33.6190   14.0200   81.5370 C.3   430  HEM430      0.0000
     41  CGD       32.4200   14.3760   80.6790 C.2   430  HEM430      0.0000
     42  O1D       32.2650   13.7500   79.6380 O.co2 430  HEM430      0.0000
     43  O2D       31.6280   15.2640   80.9780 O.co2 430  HEM430      0.0000
@<TRIPOS>BOND
     1    42    41   ar
     2    41    43   ar
     3    41    40    1
     4    40    39    1
     5    38    35    1
     6    39    36    1
     7    35    36   ar
     8    35    34   ar
     9    36    37   ar
    10    32    31    1
    11    34     5    2
    12    34    33   ar
    13     5    29    1
    14    31    28    1
    15    37    33   ar
    16    37     2    2
    17    33     1    1
    18    28    29    1
    19    28    27    2
    20    29    25    2
    21     2     7    1
    22    16    14   ar
    23    15    14   ar
    24    14    13    1
    25    13    12    1
    26    25     1    1
    27    25    26    1
    28    27    30    1
    29    27    26    1
    30     7     8    1
    31     7     6    2
    32    12     8    1
    33     1     6    1
    34     1    17    1
    35    26     4    2
    36     8     9    2
    37     6    10    1
    38     4    21    1
    39     9    10    1
    40     9    11    1
    41    10     3    2
    42    17    21   ar
    43    17    18   ar
    44    21    20   ar
    45     3    18    1
    46    18    19   ar
    47    20    19   ar
    48    20    23    1
    49    19    22    1
    50    23    24    1
