@<TRIPOS>MOLECULE
1cpu_HMC_A_1.pdb
 11 11 0 0 0
SMALL
GASTEIGER

@<TRIPOS>ATOM
      1  C1        10.1990   17.6650   45.0270 C.3   503  HMC503      0.0358
      2  C2        11.1300   18.8500   44.8470 C.3   503  HMC503      0.1847
      3  O2        10.4460   20.0500   45.0200 O.3   503  HMC503     -0.2203
      4  C3        11.6980   18.8040   43.3890 C.3   503  HMC503      0.2122
      5  O3        12.5430   19.9120   43.1910 O.3   503  HMC503     -0.2177
      6  C4        12.5390   17.5200   43.1270 C.3   503  HMC503      0.1871
      7  O4        12.6720   17.2390   41.7540 O.3   503  HMC503     -0.2202
      8  C5        12.0740   16.2210   43.8770 C.3   503  HMC503      0.0662
      9  C6        11.1660   16.4840   44.8860 C.3   503  HMC503      0.0079
     10  C7        12.9750   15.0640   43.9830 C.3   503  HMC503      0.1846
     11  O7        13.9650   15.2620   45.0140 O.3   503  HMC503     -0.2203
@<TRIPOS>BOND
     1     7     6    1
     2     6     4    1
     3     6     8    1
     4     5     4    1
     5     4     2    1
     6     8    10    1
     7     8     9    1
     8    10    11    1
     9     2     3    1
    10     2     1    1
    11     9     1    1
