@<TRIPOS>MOLECULE
1cpu_AGL_A_1.pdb
 10 10 0 0 0
SMALL
GASTEIGER

@<TRIPOS>ATOM
      1  C1         6.5320   14.8930   42.0400 C.3   502  AGL502      0.1775
      2  C2         6.8580   14.6150   43.5380 C.3   502  AGL502      0.2130
      3  C3         7.3740   15.8660   44.2840 C.3   502  AGL502      0.2044
      4  C4         8.4950   16.5200   43.4410 C.3   502  AGL502      0.1517
      5  C5         7.8840   16.8890   42.0620 C.3   502  AGL502      0.1355
      6  C6         8.9030   17.6570   41.2100 C.3   502  AGL502      0.0337
      7  O2         5.6920   14.1260   44.1660 O.3   502  AGL502     -0.2177
      8  O3         7.9020   15.4560   45.5260 O.3   502  AGL502     -0.2187
      9  N4         8.9990   17.7480   44.1020 N.3   502  AGL502     -0.1276
     10  O5         7.5140   15.6820   41.3840 O.3   502  AGL502     -0.3519
@<TRIPOS>BOND
     1     6     5    1
     2    10     1    1
     3    10     5    1
     4     1     2    1
     5     5     4    1
     6     4     9    1
     7     4     3    1
     8     2     7    1
     9     2     3    1
    10     3     8    1
