@<TRIPOS>MOLECULE
1cpu_GLC_A_1.pdb
 12 12 0 0 0
SMALL
GASTEIGER

@<TRIPOS>ATOM
      1  C1         1.6510   14.8080   39.8590 C.3   501  GLC501      0.3024
      2  C2         1.8540   14.2020   41.2690 C.3   501  GLC501      0.2434
      3  C3         3.0110   14.8820   42.0000 C.3   501  GLC501      0.2199
      4  C4         4.3120   14.8080   41.2000 C.3   501  GLC501      0.2144
      5  C5         4.0290   15.4820   39.8180 C.3   501  GLC501      0.1836
      6  C6         5.2540   15.4120   38.8800 C.3   501  GLC501      0.2142
      7  O1         1.0690   16.0960   39.8990 O.3   501  GLC501     -0.1869
      8  O2         0.6880   14.3550   42.0570 O.3   501  GLC501     -0.2148
      9  O3         3.1760   14.2710   43.2650 O.3   501  GLC501     -0.2174
     10  O4         5.2910   15.5460   41.9100 O.3   501  GLC501     -0.2176
     11  O5         2.9100   14.8480   39.1560 O.3   501  GLC501     -0.3236
     12  O6         5.6840   14.0720   38.7100 O.3   501  GLC501     -0.2176
@<TRIPOS>BOND
     1    12     6    1
     2     6     5    1
     3    11     5    1
     4    11     1    1
     5     5     4    1
     6     1     7    1
     7     1     2    1
     8     4    10    1
     9     4     3    1
    10     2     3    1
    11     2     8    1
    12     3     9    1
