@<TRIPOS>MOLECULE
1cpw_HEM_A_1.pdb
 43 50 0 0 0
SMALL
GASTEIGER

@<TRIPOS>ATOM
      1 FE         35.4250    4.1650   10.2230 Fe    154  HEM154      0.0000
      2  CHA       38.0150    2.2560   11.4580 C.2   154  HEM154      0.0000
      3  CHB       37.4440    5.2750    7.6820 C.2   154  HEM154      0.0000
      4  CHC       32.8760    6.1820    9.0680 C.2   154  HEM154      0.0000
      5  CHD       33.4360    3.1610   12.8500 C.2   154  HEM154      0.0000
      6  NA        37.3350    3.9340    9.7630 N.ar  154  HEM154      0.0000
      7  C1A       38.2150    3.0420   10.3430 C.ar  154  HEM154      0.0000
      8  C2A       39.4340    2.9980    9.5640 C.ar  154  HEM154      0.0000
      9  C3A       39.2710    3.8350    8.5100 C.ar  154  HEM154      0.0000
     10  C4A       37.9380    4.3950    8.6140 C.ar  154  HEM154      0.0000
     11  CMA       40.2540    4.1740    7.3900 C.3   154  HEM154      0.0000
     12  CAA       40.6460    2.1020    9.8650 C.3   154  HEM154      0.0000
     13  CBA       40.7750    0.8370    8.9770 C.3   154  HEM154      0.0000
     14  CGA       39.4620    0.0630    8.8530 C.2   154  HEM154      0.0000
     15  O1A       39.0480   -0.4880    9.8970 O.co2 154  HEM154      0.0000
     16  O2A       38.9190    0.0530    7.7330 O.co2 154  HEM154      0.0000
     17  NB        35.2510    5.5350    8.7990 N.2   154  HEM154      0.0000
     18  C1B       36.1850    5.8110    7.8250 C.2   154  HEM154      0.0000
     19  C2B       35.6450    6.7790    6.8960 C.2   154  HEM154      0.0000
     20  C3B       34.3660    7.0470    7.2840 C.2   154  HEM154      0.0000
     21  C4B       34.1070    6.2190    8.4530 C.2   154  HEM154      0.0000
     22  CMB       36.4170    7.3540    5.7050 C.3   154  HEM154      0.0000
     23  CAB       33.3260    7.8850    6.8010 C.3   154  HEM154      0.0000
     24  CBB       33.5340    9.1420    6.1590 C.3   154  HEM154      0.0000
     25  NC        33.5730    4.5420   10.7960 N.ar  154  HEM154      0.0000
     26  C1C       32.6820    5.3900   10.1790 C.ar  154  HEM154      0.0000
     27  C2C       31.4090    5.3310   10.8730 C.ar  154  HEM154      0.0000
     28  C3C       31.6150    4.6260   12.0230 C.ar  154  HEM154      0.0000
     29  C4C       32.9470    4.0450   11.9170 C.ar  154  HEM154      0.0000
     30  CMC       30.1330    5.9770   10.3510 C.3   154  HEM154      0.0000
     31  CAC       30.8660    4.3770   13.2110 C.3   154  HEM154      0.0000
     32  CBC       29.6660    5.1320   13.5050 C.3   154  HEM154      0.0000
     33  ND        35.6600    2.9660   11.7770 N.2   154  HEM154      0.0000
     34  C1D       34.7240    2.6860   12.7520 C.2   154  HEM154      0.0000
     35  C2D       35.3080    1.7990   13.7370 C.2   154  HEM154      0.0000
     36  C3D       36.6190    1.6530   13.4130 C.2   154  HEM154      0.0000
     37  C4D       36.8200    2.3120   12.1400 C.2   154  HEM154      0.0000
     38  CMD       34.5620    1.1950   14.9300 C.3   154  HEM154      0.0000
     39  CAD       37.7320    0.9890   14.2320 C.2   154  HEM154      0.0000
     40  CBD       38.3620    1.8340   15.3530 C.2   154  HEM154      0.0000
     41  CGD       39.5230    1.1870   16.0810 C.2   154  HEM154      0.0000
     42  O1D       39.2650    0.6300   17.1730 O.co2 154  HEM154      0.0000
     43  O2D       40.6400    1.2620   15.5300 O.co2 154  HEM154      0.0000
@<TRIPOS>BOND
     1    22    19    1
     2    24    23    1
     3    23    20    1
     4    19    20    2
     5    19    18    1
     6    20    21    1
     7    11     9    1
     8     3    18    1
     9     3    10    2
    10    16    14   ar
    11    18    17    2
    12    21    17    1
    13    21     4    2
    14     9    10   ar
    15     9     8   ar
    16    10     6   ar
    17    17     1    1
    18    14    13    1
    19    14    15   ar
    20    13    12    1
    21     4    26    1
    22     8    12    1
    23     8     7   ar
    24     6     1    1
    25     6     7   ar
    26    26    25   ar
    27    26    27   ar
    28     1    25    1
    29     1    33    1
    30     7     2    2
    31    30    27    1
    32    25    29   ar
    33    27    28   ar
    34     2    37    1
    35    33    37    2
    36    33    34    1
    37    29    28   ar
    38    29     5    1
    39    28    31    1
    40    37    36    1
    41    34     5    2
    42    34    35    1
    43    31    32    1
    44    36    35    2
    45    36    39    1
    46    35    38    1
    47    39    40    2
    48    40    41    1
    49    43    41   ar
    50    41    42   ar
