@<TRIPOS>MOLECULE
1cq1_PQQ_A_1.pdb
 24 26 0 0 0
SMALL
GASTEIGER

@<TRIPOS>ATOM
      1  N1        18.9250   51.3310   66.9330 N.2   504  PQQ504     -0.3986
      2  C2        18.3120   50.1660   66.5860 C.2   504  PQQ504      0.2104
      3  C2X       18.6490   49.5460   65.3910 C.2   504  PQQ504      0.4168
      4  O2A       19.3020   50.1680   64.5290 O.co2 504  PQQ504     -0.2377
      5  O2B       18.3390   48.4060   65.1020 O.co2 504  PQQ504     -0.2377
      6  C3        17.3920   49.8350   67.5690 C.2   504  PQQ504      0.0444
      7  C3A       17.4450   50.7930   68.5310 C.2   504  PQQ504      0.0711
      8  C1A       18.3840   51.7140   68.1410 C.2   504  PQQ504      0.1232
      9  C4        16.7690   50.9190   69.7490 C.2   504  PQQ504      0.2387
     10  O4        15.8280   50.0040   70.1880 O.2   504  PQQ504     -0.2830
     11  C5        17.0480   51.9730   70.5840 C.2   504  PQQ504      0.2601
     12  O5        16.3850   52.0770   71.7720 O.2   504  PQQ504     -0.2807
     13  C6A       18.0090   52.9360   70.2050 C.2   504  PQQ504      0.1617
     14  N6        18.1660   53.8790   71.1460 N.2   504  PQQ504     -0.3954
     15  C7        19.0870   54.8010   70.9160 C.2   504  PQQ504      0.2103
     16  C7X       19.2420   55.6740   72.0170 C.2   504  PQQ504      0.4168
     17  O7A       18.6010   55.4670   73.0910 O.co2 504  PQQ504     -0.2377
     18  O7B       20.0300   56.6600   71.9470 O.co2 504  PQQ504     -0.2377
     19  C8        19.7990   54.8010   69.7370 C.2   504  PQQ504      0.0420
     20  C9        19.6090   53.8290   68.7450 C.2   504  PQQ504      0.0734
     21  C9X       20.3170   53.9180   67.5050 C.2   504  PQQ504      0.3847
     22  O9A       21.4620   54.3820   67.4110 O.co2 504  PQQ504     -0.2409
     23  O9B       19.8530   53.5510   66.4320 O.co2 504  PQQ504     -0.2409
     24  C9A       18.6930   52.8240   68.9640 C.3   504  PQQ504      0.1366
@<TRIPOS>BOND
     1     4     3   ar
     2     5     3   ar
     3     3     2    1
     4    23    21   ar
     5     2     1    2
     6     2     6    1
     7     1     8    2
     8    22    21   ar
     9    21    20    1
    10     6     7    2
    11     8     7    1
    12     8    24    1
    13     7     9    1
    14    20    24    1
    15    20    19    2
    16    24    13    1
    17    19    15    1
    18     9    10    1
    19     9    11    2
    20    13    11    1
    21    13    14    2
    22    11    12    1
    23    15    14    2
    24    15    16    1
    25    18    16   ar
    26    16    17   ar
