@<TRIPOS>MOLECULE
1cq1_BGC_A_1.pdb
 12 12 0 0 0
SMALL
GASTEIGER

@<TRIPOS>ATOM
      1  C2        14.2180   53.6300   67.8420 C.3   455  BGC455      0.2434
      2  C3        15.2390   54.2690   66.8940 C.3   455  BGC455      0.2199
      3  C4        15.3170   55.7260   67.3180 C.3   455  BGC455      0.2144
      4  C5        15.8810   55.8410   68.7520 C.3   455  BGC455      0.1836
      5  C6        15.7510   57.2100   69.4010 C.3   455  BGC455      0.2142
      6  C1        14.7500   53.7910   69.3020 C.3   455  BGC455      0.3024
      7  O1        13.7430   53.3070   70.2090 O.3   455  BGC455     -0.1869
      8  O2        14.0730   52.2440   67.4410 O.3   455  BGC455     -0.2148
      9  O3        14.6560   54.3410   65.5700 O.3   455  BGC455     -0.2174
     10  O4        16.2460   56.4100   66.5350 O.3   455  BGC455     -0.2176
     11  O5        14.9120   55.1910   69.6520 O.3   455  BGC455     -0.3236
     12  O6        14.4710   57.7780   69.3600 O.3   455  BGC455     -0.2176
@<TRIPOS>BOND
     1     9     2    1
     2    10     3    1
     3     2     3    1
     4     2     1    1
     5     3     4    1
     6     8     1    1
     7     1     6    1
     8     4     5    1
     9     4    11    1
    10     6    11    1
    11     6     7    1
    12    12     5    1
