@<TRIPOS>MOLECULE
1cq6_PY4_A_1.pdb
 22 22 0 0 0
SMALL
GASTEIGER

@<TRIPOS>ATOM
      1  N1        26.6660    4.8700  -14.7930 N.ar  413  PY4413     -0.2452
      2  C2        26.3450    6.0740  -15.3810 C.ar  413  PY4413      0.0978
      3  C2A       27.1000    6.1970  -16.6950 C.3   413  PY4413      0.0555
      4  C3        25.4050    6.9530  -14.6940 C.ar  413  PY4413      0.2062
      5  O3        25.1830    8.0930  -15.3960 O.3   413  PY4413     -0.2856
      6  C4        24.8170    6.6330  -13.4730 C.ar  413  PY4413      0.0353
      7  C4A       23.8280    7.5600  -12.7500 C.3   413  PY4413      0.1186
      8  C5        25.2590    5.3530  -12.9980 C.ar  413  PY4413      0.0275
      9  C6        26.1470    4.4980  -13.6110 C.ar  413  PY4413      0.0965
     10  C5A       24.7800    4.7720  -11.6930 C.3   413  PY4413      0.1816
     11  O4P       23.8560    5.4910  -10.9880 O.3   413  PY4413     -0.2653
     12  P         22.8420    4.7780  -10.0380 P.3   413  PY4413      0.5329
     13  O1P       22.3450    3.5810  -10.6420 O.2   413  PY4413     -0.2224
     14  O2P       21.9460    5.8610   -9.4990 O.3   413  PY4413     -0.1145
     15  O3P       23.7120    4.2650   -8.9430 O.3   413  PY4413     -0.1145
     16  N         23.7740    8.8460  -13.5780 N.3   413  PY4413     -0.2034
     17  CA        24.0360   10.0500  -12.7070 C.3   413  PY4413      0.1760
     18  C         23.9820   11.3390  -13.5270 C.2   413  PY4413      0.3803
     19  O         24.1820   11.0850  -14.8370 O.co2 413  PY4413     -0.2441
     20  CB        23.1020   10.1040  -11.5050 C.3   413  PY4413      0.0289
     21  CG        23.6870    9.4530  -10.2540 C.3   413  PY4413      0.0021
     22  OXT       23.7810   12.5280  -13.0320 O.co2 413  PY4413     -0.2441
@<TRIPOS>BOND
     1     3     2    1
     2     5     4    1
     3     2     1   ar
     4     2     4   ar
     5    19    18   ar
     6     1     9   ar
     7     4     6   ar
     8     9     8   ar
     9    16     7    1
    10    16    17    1
    11    18    22   ar
    12    18    17    1
    13     6     8   ar
    14     6     7    1
    15     8    10    1
    16    17    20    1
    17    10    11    1
    18    20    21    1
    19    11    12    1
    20    13    12    2
    21    12    14    1
    22    12    15    1
