@<TRIPOS>MOLECULE
1cq7_PY5_A_1.pdb
 23 23 0 0 0
SMALL
GASTEIGER

@<TRIPOS>ATOM
      1  N1        26.6910    3.7390  -15.1030 N.ar  413  PY5413     -0.2452
      2  C2        26.4040    4.8670  -15.8340 C.ar  413  PY5413      0.0978
      3  C2A       27.1130    4.7940  -17.1700 C.3   413  PY5413      0.0555
      4  C3        25.5410    5.8720  -15.2470 C.ar  413  PY5413      0.2062
      5  O3        25.3570    6.9120  -16.0960 O.3   413  PY5413     -0.2856
      6  C4        24.9650    5.7550  -13.9740 C.ar  413  PY5413      0.0353
      7  C4A       24.0540    6.8460  -13.3830 C.3   413  PY5413      0.1186
      8  C5        25.3560    4.5240  -13.3250 C.ar  413  PY5413      0.0275
      9  C6        26.1760    3.5380  -13.8610 C.ar  413  PY5413      0.0965
     10  C5A       24.8670    4.1260  -11.9270 C.3   413  PY5413      0.1816
     11  O4P       23.6660    4.6350  -11.5060 O.3   413  PY5413     -0.2653
     12  P         22.7700    3.9770  -10.3960 P.3   413  PY5413      0.5329
     13  O1P       22.2830    2.7040  -10.8020 O.2   413  PY5413     -0.2224
     14  O2P       21.8500    5.0840   -9.9480 O.3   413  PY5413     -0.1145
     15  O3P       23.7280    3.6560   -9.2860 O.3   413  PY5413     -0.1145
     16  N         24.5220    8.1510  -14.0480 N.3   413  PY5413     -0.2034
     17  CA        23.4470    9.2210  -13.9680 C.3   413  PY5413      0.1760
     18  C         23.9370   10.5050  -14.6380 C.2   413  PY5413      0.3803
     19  O         24.5770   10.2430  -15.7950 O.co2 413  PY5413     -0.2441
     20  CB        23.0610    9.4870  -12.5180 C.3   413  PY5413      0.0289
     21  CG        24.2000    9.9650  -11.6310 C.3   413  PY5413      0.0020
     22  CD        23.8750    9.8710  -10.1520 C.3   413  PY5413      0.0001
     23  OXT       23.7600   11.6990  -14.1550 O.co2 413  PY5413     -0.2441
@<TRIPOS>BOND
     1     3     2    1
     2     5     4    1
     3     2     4   ar
     4     2     1   ar
     5    19    18   ar
     6     4     6   ar
     7     1     9   ar
     8    18    23   ar
     9    18    17    1
    10    16    17    1
    11    16     7    1
    12     6     7    1
    13     6     8   ar
    14    17    20    1
    15     9     8   ar
    16     8    10    1
    17    20    21    1
    18    10    11    1
    19    21    22    1
    20    11    12    1
    21    13    12    2
    22    12    14    1
    23    12    15    1
