@<TRIPOS>MOLECULE
1cq8_PY6_A_1.pdb
 24 24 0 0 0
SMALL
GASTEIGER

@<TRIPOS>ATOM
      1  N1        26.6500    3.7470  -15.2440 N.ar  413  PY6413     -0.2452
      2  C2        26.3540    4.9030  -15.9440 C.ar  413  PY6413      0.0978
      3  C2A       27.0260    4.8580  -17.3090 C.3   413  PY6413      0.0555
      4  C3        25.5220    5.8900  -15.2980 C.ar  413  PY6413      0.2062
      5  O3        25.3230    6.9560  -16.1060 O.3   413  PY6413     -0.2856
      6  C4        24.9910    5.7350  -14.0040 C.ar  413  PY6413      0.0353
      7  C4A       24.1160    6.7920  -13.3550 C.3   413  PY6413      0.1186
      8  C5        25.3810    4.4870  -13.4040 C.ar  413  PY6413      0.0275
      9  C6        26.1760    3.5160  -13.9860 C.ar  413  PY6413      0.0965
     10  C5A       24.9310    4.0770  -12.0020 C.3   413  PY6413      0.1816
     11  O4P       23.8120    4.6820  -11.4590 O.3   413  PY6413     -0.2653
     12  P         22.8730    3.9590  -10.4050 P.3   413  PY6413      0.5329
     13  O1P       22.4420    2.6720  -10.8420 O.2   413  PY6413     -0.2224
     14  O2P       21.9170    5.0310   -9.9680 O.3   413  PY6413     -0.1145
     15  O3P       23.7820    3.6090   -9.2730 O.3   413  PY6413     -0.1145
     16  N         24.5950    8.0770  -13.9980 N.3   413  PY6413     -0.2034
     17  CA        23.5350    9.1310  -13.9200 C.3   413  PY6413      0.1760
     18  C         24.0620   10.3900  -14.5770 C.2   413  PY6413      0.3803
     19  O         24.5960   10.1090  -15.7830 O.co2 413  PY6413     -0.2441
     20  CB        23.1220    9.3880  -12.4720 C.3   413  PY6413      0.0289
     21  CG        24.2570    9.7860  -11.5350 C.3   413  PY6413      0.0020
     22  CD        23.8320    9.7440  -10.0730 C.3   413  PY6413      0.0001
     23  CE        23.8360    8.3440   -9.4820 C.3   413  PY6413      0.0000
     24  OXT       24.0110   11.5700  -14.0500 O.co2 413  PY6413     -0.2441
@<TRIPOS>BOND
     1     3     2    1
     2     5     4    1
     3     2     4   ar
     4     2     1   ar
     5    19    18   ar
     6     4     6   ar
     7     1     9   ar
     8    18    24   ar
     9    18    17    1
    10     6     8   ar
    11     6     7    1
    12    16    17    1
    13    16     7    1
    14     9     8   ar
    15    17    20    1
    16     8    10    1
    17    20    21    1
    18    10    11    1
    19    21    22    1
    20    11    12    1
    21    13    12    2
    22    12    14    1
    23    12    15    1
    24    22    23    1
