@<TRIPOS>MOLECULE
1cqe_HEM_A_1.pdb
 43 50 0 0 0
SMALL
GASTEIGER

@<TRIPOS>ATOM
      1  CHA       22.9650   44.5540  191.6060 C.2   601  HEM601      0.0000
      2  CHB       19.9250   48.3050  192.2450 C.2   601  HEM601      0.0000
      3  CHC       20.2980   47.8270  197.0490 C.2   601  HEM601      0.0000
      4  CHD       23.2020   43.9910  196.3950 C.2   601  HEM601      0.0000
      5  C1A       22.1140   45.6180  191.3810 C.ar  601  HEM601      0.0000
      6  C2A       21.7850   46.1340  190.0810 C.ar  601  HEM601      0.0000
      7  C3A       20.9120   47.1100  190.2860 C.ar  601  HEM601      0.0000
      8  C4A       20.7600   47.3090  191.6850 C.ar  601  HEM601      0.0000
      9  CMA       20.2470   47.9410  189.2270 C.3   601  HEM601      0.0000
     10  CAA       22.5270   46.0390  188.7810 C.3   601  HEM601      0.0000
     11  CBA       22.4980   44.8070  187.9050 C.3   601  HEM601      0.0000
     12  CGA       21.0950   44.4100  187.4390 C.2   601  HEM601      0.0000
     13  O1A       20.3430   45.2740  186.9190 O.co2 601  HEM601      0.0000
     14  O2A       20.7530   43.2120  187.5890 O.co2 601  HEM601      0.0000
     15  C1B       19.7620   48.5230  193.6200 C.2   601  HEM601      0.0000
     16  C2B       19.0330   49.6740  194.2500 C.2   601  HEM601      0.0000
     17  C3B       19.0990   49.5210  195.5890 C.2   601  HEM601      0.0000
     18  C4B       19.9680   48.3470  195.8000 C.2   601  HEM601      0.0000
     19  CMB       18.4720   50.9050  193.5110 C.3   601  HEM601      0.0000
     20  CAB       18.3940   50.2130  196.5380 C.3   601  HEM601      0.0000
     21  CBB       18.1220   51.6070  196.5580 C.3   601  HEM601      0.0000
     22  C1C       21.0820   46.6960  197.2460 C.ar  601  HEM601      0.0000
     23  C2C       21.3290   46.1730  198.5310 C.ar  601  HEM601      0.0000
     24  C3C       22.1510   45.1270  198.3710 C.ar  601  HEM601      0.0000
     25  C4C       22.4160   45.0050  196.9660 C.ar  601  HEM601      0.0000
     26  CMC       20.6830   46.6490  199.8360 C.3   601  HEM601      0.0000
     27  CAC       22.4520   44.2110  199.3400 C.2   601  HEM601      0.0000
     28  CBC       23.6870   44.2150  199.9320 C.2   601  HEM601      0.0000
     29  C1D       23.4760   43.8570  195.0430 C.2   601  HEM601      0.0000
     30  C2D       24.4340   42.9230  194.4720 C.2   601  HEM601      0.0000
     31  C3D       24.3650   43.1430  193.1270 C.2   601  HEM601      0.0000
     32  C4D       23.3920   44.1620  192.8650 C.2   601  HEM601      0.0000
     33  CMD       25.4060   42.0270  195.2050 C.3   601  HEM601      0.0000
     34  CAD       25.2690   42.6020  192.0380 C.3   601  HEM601      0.0000
     35  CBD       26.5400   43.4410  191.8690 C.3   601  HEM601      0.0000
     36  CGD       27.3860   43.0530  190.6610 C.2   601  HEM601      0.0000
     37  O1D       27.2270   41.9390  190.1130 O.co2 601  HEM601      0.0000
     38  O2D       28.2240   43.8760  190.2540 O.co2 601  HEM601      0.0000
     39  NA        21.5280   46.3850  192.3840 N.ar  601  HEM601      0.0000
     40  NB        20.3970   47.7420  194.5850 N.2   601  HEM601      0.0000
     41  NC        21.7340   45.9730  196.2590 N.ar  601  HEM601      0.0000
     42  ND        22.8960   44.6840  194.0560 N.2   601  HEM601      0.0000
     43 FE         21.6660   46.2130  194.3100 Fe    601  HEM601      0.0000
@<TRIPOS>BOND
     1    13    12   ar
     2    12    14   ar
     3    12    11    1
     4    11    10    1
     5    10     6    1
     6     9     7    1
     7     6     7   ar
     8     6     5   ar
     9    37    36   ar
    10    38    36   ar
    11     7     8   ar
    12    36    35    1
    13     5     1    2
    14     5    39   ar
    15     1    32    1
    16     8     2    2
    17     8    39   ar
    18    35    34    1
    19    34    31    1
    20     2    15    1
    21    39    43    1
    22    32    31    1
    23    32    42    2
    24    31    30    2
    25    19    16    1
    26    15    16    1
    27    15    40    2
    28    42    43    1
    29    42    29    1
    30    16    17    2
    31    43    40    1
    32    43    41    1
    33    30    29    1
    34    30    33    1
    35    40    18    1
    36    29     4    2
    37    17    18    1
    38    17    20    1
    39    18     3    2
    40    41    25   ar
    41    41    22   ar
    42     4    25    1
    43    20    21    1
    44    25    24   ar
    45     3    22    1
    46    22    23   ar
    47    24    23   ar
    48    24    27    1
    49    23    26    1
    50    27    28    2
