@<TRIPOS>MOLECULE
1cqe_FLP_A_1.pdb
 18 19 0 0 0
SMALL
GASTEIGER

@<TRIPOS>ATOM
      1  C         26.5930   37.4520  204.8850 C.ar  1650  FLP1650     0.0000
      2  C1        26.8680   36.8160  206.1230 C.ar  1650  FLP1650     0.0001
      3  C2        26.3510   35.5540  206.3960 C.ar  1650  FLP1650     0.0022
      4  C3        25.5580   34.9190  205.4630 C.ar  1650  FLP1650     0.0001
      5  C4        25.2860   35.4990  204.2820 C.ar  1650  FLP1650     0.0000
      6  C5        25.7840   36.7670  203.9680 C.ar  1650  FLP1650     0.0000
      7  C6        26.7030   34.9000  207.6130 C.ar  1650  FLP1650     0.0275
      8  C7        28.0470   34.8390  208.0340 C.ar  1650  FLP1650     0.0019
      9  C8        28.3870   34.1790  209.2420 C.ar  1650  FLP1650    -0.0036
     10  C9        27.4150   33.5920  210.0270 C.ar  1650  FLP1650    -0.0096
     11  C10       26.1140   33.6500  209.6430 C.ar  1650  FLP1650     0.0259
     12  C11       25.7280   34.2870  208.4610 C.ar  1650  FLP1650     0.1398
     13  C12       27.7120   32.8970  211.3730 C.3   1650  FLP1650     0.1257
     14  C13       28.9600   33.4470  212.1140 C.3   1650  FLP1650     0.0166
     15  C14       27.7420   31.4000  211.2210 C.2   1650  FLP1650     0.3683
     16  O         26.7570   30.7870  211.6650 O.co2 1650  FLP1650    -0.2453
     17  O1        28.6790   30.8490  210.5580 O.co2 1650  FLP1650    -0.2453
     18  F         24.4250   34.2780  208.1970 F     1650  FLP1650    -0.2042
@<TRIPOS>BOND
     1     6     5   ar
     2     6     1   ar
     3     5     4   ar
     4     1     2   ar
     5     4     3   ar
     6     2     3   ar
     7     3     7    1
     8     7     8   ar
     9     7    12   ar
    10     8     9   ar
    11    18    12    1
    12    12    11   ar
    13     9    10   ar
    14    11    10   ar
    15    10    13    1
    16    17    15   ar
    17    15    13    1
    18    15    16   ar
    19    13    14    1
