@<TRIPOS>MOLECULE
1cqf_GLA_A_1.pdb
 11 11 0 0 0
SMALL
GASTEIGER

@<TRIPOS>ATOM
      1  C1       -10.1270   15.8810   15.9800 C.3   180  GLA180      0.1777
      2  C2       -10.8490   15.3050   14.7540 C.3   180  GLA180      0.2141
      3  C3        -9.8650   14.5200   13.8700 C.3   180  GLA180      0.2173
      4  C4        -8.6510   15.3930   13.5280 C.3   180  GLA180      0.2142
      5  C5        -8.0360   15.9300   14.8220 C.3   180  GLA180      0.1810
      6  C6        -6.8250   16.8260   14.6250 C.3   180  GLA180      0.2141
      7  O2       -11.9030   14.4480   15.1760 O.3   180  GLA180     -0.2176
      8  O3       -10.5110   14.1000   12.6740 O.3   180  GLA180     -0.2175
      9  O4        -9.0510   16.4730   12.6960 O.3   180  GLA180     -0.2176
     10  O5        -9.0250   16.6710   15.5600 O.3   180  GLA180     -0.3481
     11  O6        -7.1880   18.1910   14.5190 O.3   180  GLA180     -0.2176
@<TRIPOS>BOND
     1     8     3    1
     2     9     4    1
     3     4     3    1
     4     4     5    1
     5     3     2    1
     6    11     6    1
     7     6     5    1
     8     2     7    1
     9     2     1    1
    10     5    10    1
    11    10     1    1
