@<TRIPOS>MOLECULE
1cqf_GAL_B_1.pdb
 11 11 0 0 0
SMALL
GASTEIGER

@<TRIPOS>ATOM
      1  C1        -4.7580   16.1230   -3.3450 C.3   271  GAL271      0.1777
      2  C2        -4.0760   17.3040   -4.0930 C.3   271  GAL271      0.2141
      3  C3        -2.8240   17.7780   -3.3360 C.3   271  GAL271      0.2173
      4  C4        -3.1810   18.0920   -1.8980 C.3   271  GAL271      0.2142
      5  C5        -3.7970   16.8440   -1.2830 C.3   271  GAL271      0.1810
      6  C6        -4.1380   17.0140    0.1740 C.3   271  GAL271      0.2141
      7  O2        -3.7140   16.9030   -5.4100 O.3   271  GAL271     -0.2176
      8  O3        -2.2490   18.9250   -3.9480 O.3   271  GAL271     -0.2175
      9  O4        -4.1190   19.1880   -1.8540 O.3   271  GAL271     -0.2176
     10  O5        -5.0050   16.4880   -1.9800 O.3   271  GAL271     -0.3481
     11  O6        -4.3670   15.7590    0.7770 O.3   271  GAL271     -0.2176
@<TRIPOS>BOND
     1     7     2    1
     2     2     1    1
     3     2     3    1
     4     8     3    1
     5     1    10    1
     6     3     4    1
     7    10     5    1
     8     4     9    1
     9     4     5    1
    10     5     6    1
    11     6    11    1
