@<TRIPOS>MOLECULE
1cqi_ADP_B_1.pdb
 27 29 0 0 0
SMALL
GASTEIGER

@<TRIPOS>ATOM
      1  PB        40.6510   32.1870   82.7140 P.3   801  ADP801      0.5373
      2  O1B       41.3830   32.0110   84.0360 O.3   801  ADP801     -0.1143
      3  O2B       39.3760   32.9660   82.9040 O.3   801  ADP801     -0.1143
      4  O3B       41.4570   32.8770   81.6260 O.2   801  ADP801     -0.2221
      5  PA        41.0680   29.8490   81.1430 P.3   801  ADP801      0.2231
      6  O1A       40.1020   29.4650   80.0940 O.2   801  ADP801     -0.5169
      7  O2A       42.3680   30.5180   80.7480 O.3   801  ADP801     -0.4370
      8  O3A       40.2630   30.7130   82.2320 O.3   801  ADP801     -0.2261
      9  O5'       41.3730   28.4950   81.9250 O.3   801  ADP801     -0.3111
     10  C5'       42.2890   28.4220   83.0650 C.3   801  ADP801      0.1813
     11  C4'       43.1550   27.1330   83.0440 C.3   801  ADP801      0.1821
     12  O4'       42.2960   25.9390   82.9870 O.3   801  ADP801     -0.3135
     13  C3'       44.0590   27.0090   81.8120 C.3   801  ADP801      0.2184
     14  O3'       45.2470   27.8190   81.9520 O.3   801  ADP801     -0.2174
     15  C2'       44.2240   25.5060   81.7160 C.3   801  ADP801      0.2570
     16  O2'       45.2450   25.0260   82.5310 O.3   801  ADP801     -0.2130
     17  C1'       42.8980   24.9540   82.1810 C.3   801  ADP801      0.3186
     18  N9        42.0110   24.6620   81.0630 N.pl3 801  ADP801     -0.1439
     19  C8        41.0610   25.4650   80.4660 C.3   801  ADP801      0.3377
     20  N7        40.4270   24.9040   79.4680 N.2   801  ADP801     -0.2095
     21  C5        40.9890   23.6430   79.3930 C.2   801  ADP801      0.2526
     22  C6        40.7630   22.5180   78.5310 C.2   801  ADP801      0.4393
     23  N6        39.8560   22.5070   77.5400 N.pl3 801  ADP801      0.2180
     24  N1        41.5180   21.3860   78.7310 N.2   801  ADP801      0.0021
     25  C2        42.4460   21.3860   79.7350 C.3   801  ADP801      0.5254
     26  N3        42.7460   22.3770   80.6080 N.2   801  ADP801     -0.0055
     27  C4        41.9800   23.4840   80.3790 C.2   801  ADP801      0.3518
@<TRIPOS>BOND
     1    23    22    1
     2    22    24    2
     3    22    21    1
     4    24    25    1
     5    21    20    2
     6    21    27    1
     7    20    19    1
     8    25    26    1
     9     6     5    2
    10    27    26    2
    11    27    18    1
    12    19    18    1
    13     7     5    1
    14    18    17    1
    15     5     9    1
    16     5     8    1
    17     4     1    2
    18    15    13    1
    19    15    17    1
    20    15    16    1
    21    13    14    1
    22    13    11    1
    23     9    10    1
    24    17    12    1
    25     8     1    1
    26     1     3    1
    27     1     2    1
    28    12    11    1
    29    11    10    1
