@<TRIPOS>MOLECULE
1cqi_COA_A_1.pdb
 48 50 0 0 0
SMALL
GASTEIGER

@<TRIPOS>ATOM
      1  N1A       31.3230   62.8550   49.6960 N.2   701  COA701      0.0021
      2  C2A       30.5710   63.9230   49.9300 C.3   701  COA701      0.5254
      3  N3A       29.3410   64.0030   50.4640 N.2   701  COA701     -0.0055
      4  C4A       28.8580   62.7850   50.7820 C.2   701  COA701      0.3518
      5  C5A       29.5090   61.5790   50.5940 C.2   701  COA701      0.2526
      6  C6A       30.8250   61.6340   50.0180 C.2   701  COA701      0.4393
      7  N6A       31.5940   60.5530   49.7830 N.pl3 701  COA701      0.2180
      8  N7A       28.7100   60.5240   51.0260 N.2   701  COA701     -0.2095
      9  C8A       27.6190   61.1060   51.4660 C.3   701  COA701      0.3377
     10  N9A       27.6380   62.4720   51.3640 N.pl3 701  COA701     -0.1439
     11  C1B       26.5850   63.4130   51.7910 C.3   701  COA701      0.3185
     12  C2B       25.1550   62.8770   51.8650 C.3   701  COA701      0.2543
     13  O2B       24.6040   62.6640   50.5710 O.3   701  COA701     -0.2131
     14  C3B       24.4730   63.9620   52.7210 C.3   701  COA701      0.1928
     15  O3B       24.0090   65.0800   51.9440 O.3   701  COA701     -0.2673
     16  P3B       22.4430   65.2250   51.5740 P.3   701  COA701      0.5327
     17  O7A       22.1700   66.6850   51.2450 O.3   701  COA701     -0.1145
     18  O8A       22.2710   64.2930   50.3590 O.2   701  COA701     -0.2224
     19  O9A       21.7560   64.7780   52.8690 O.3   701  COA701     -0.1145
     20  C4B       25.6010   64.4230   53.6500 C.3   701  COA701      0.1795
     21  O4B       26.8180   63.8090   53.1290 O.3   701  COA701     -0.3136
     22  C5B       25.4400   64.0900   55.1160 C.3   701  COA701      0.1812
     23  O5B       24.3400   64.8120   55.6760 O.3   701  COA701     -0.3112
     24  P1A       23.4620   64.1910   56.8540 P.3   701  COA701      0.2189
     25  O1A       22.3560   65.1330   57.1710 O.3   701  COA701     -0.4371
     26  O2A       23.1170   62.8120   56.4310 O.2   701  COA701     -0.5170
     27  O3A       24.5130   64.0400   58.0820 O.3   701  COA701     -0.2703
     28  P2A       24.5320   65.0200   59.3660 P.3   701  COA701      0.2188
     29  O4A       24.9250   66.3550   58.7150 O.2   701  COA701     -0.5170
     30  O5A       23.1420   64.9510   59.9940 O.3   701  COA701     -0.4371
     31  O6A       25.5720   64.4900   60.3480 O.3   701  COA701     -0.3138
     32  CBP       28.0920   64.0240   60.6630 C.3   701  COA701      0.0645
     33  CCP       26.8500   64.0930   59.8190 C.3   701  COA701      0.1519
     34  CDP       28.2600   65.3730   61.3110 C.3   701  COA701      0.0056
     35  CEP       29.1480   63.7240   59.6430 C.3   701  COA701      0.0056
     36  CAP       27.9490   62.9020   61.7110 C.3   701  COA701      0.2312
     37  OAP       28.3710   61.6000   61.1880 O.3   701  COA701     -0.2131
     38  C9P       28.8810   63.1420   62.8750 C.2   701  COA701      0.2719
     39  O9P       29.9540   62.5540   62.8860 O.2   701  COA701     -0.2706
     40  N8P       28.4940   63.9480   63.8740 N.am  701  COA701     -0.2028
     41  C7P       29.3520   64.2110   64.9950 C.3   701  COA701      0.1248
     42  C6P       28.6590   63.8930   66.3060 C.3   701  COA701      0.1102
     43  C5P       29.2650   64.6980   67.4910 C.2   701  COA701      0.2432
     44  O5P       29.7430   64.1880   68.5280 O.2   701  COA701     -0.2733
     45  N4P       29.1630   66.0060   67.1570 N.am  701  COA701     -0.2044
     46  C3P       29.6120   67.1910   67.9780 C.3   701  COA701      0.1276
     47  C2P       30.5960   68.0770   67.1630 C.3   701  COA701      0.0920
     48  S1P       32.0390   67.2270   66.3410 S.3   701  COA701     -0.0802
@<TRIPOS>BOND
     1     1     2    1
     2     1     6    2
     3     7     6    1
     4     2     3    1
     5     6     5    1
     6    18    16    2
     7     3     4    2
     8    13    12    1
     9     5     4    1
    10     5     8    2
    11     4    10    1
    12     8     9    1
    13    17    16    1
    14    10     9    1
    15    10    11    1
    16    16    15    1
    17    16    19    1
    18    11    12    1
    19    11    21    1
    20    12    14    1
    21    15    14    1
    22    14    20    1
    23    21    20    1
    24    20    22    1
    25    22    23    1
    26    23    24    1
    27    26    24    2
    28    24    25    1
    29    24    27    1
    30    27    28    1
    31    29    28    2
    32    28    30    1
    33    28    31    1
    34    35    32    1
    35    33    31    1
    36    33    32    1
    37    32    34    1
    38    32    36    1
    39    37    36    1
    40    36    38    1
    41    38    39    2
    42    38    40   am
    43    40    41    1
    44    41    42    1
    45    42    43    1
    46    48    47    1
    47    45    43   am
    48    45    46    1
    49    47    46    1
    50    43    44    2
