@<TRIPOS>MOLECULE
1cqj_COA_A_1.pdb
 48 50 0 0 0
SMALL
GASTEIGER

@<TRIPOS>ATOM
      1  N1A       31.1010   62.4700   49.6160 N.2   901  COA901      0.0021
      2  C2A       30.2930   63.5140   49.7560 C.3   901  COA901      0.5254
      3  N3A       29.1020   63.5970   50.3750 N.2   901  COA901     -0.0055
      4  C4A       28.7310   62.4080   50.8810 C.2   901  COA901      0.3518
      5  C5A       29.4540   61.2270   50.8050 C.2   901  COA901      0.2526
      6  C6A       30.7150   61.2820   50.1430 C.2   901  COA901      0.4393
      7  N6A       31.5320   60.2270   50.0290 N.pl3 901  COA901      0.2180
      8  N7A       28.7570   60.1810   51.4060 N.2   901  COA901     -0.2095
      9  C8A       27.6490   60.7510   51.8360 C.3   901  COA901      0.3377
     10  N9A       27.5810   62.0990   51.5810 N.pl3 901  COA901     -0.1439
     11  C1B       26.5320   63.0280   52.0030 C.3   901  COA901      0.3185
     12  C2B       25.0810   62.5330   52.0300 C.3   901  COA901      0.2543
     13  O2B       24.4900   62.4820   50.7450 O.3   901  COA901     -0.2131
     14  C3B       24.4280   63.5620   52.9640 C.3   901  COA901      0.1928
     15  O3B       23.9390   64.7390   52.3070 O.3   901  COA901     -0.2673
     16  P3B       22.4300   64.7650   51.7130 P.3   901  COA901      0.5327
     17  O7A       22.4230   66.0360   50.8690 O.2   901  COA901     -0.2224
     18  O8A       22.3140   63.4910   50.9080 O.3   901  COA901     -0.1145
     19  O9A       21.5370   64.7520   52.9530 O.3   901  COA901     -0.1145
     20  C4B       25.5760   63.9730   53.8830 C.3   901  COA901      0.1795
     21  O4B       26.7750   63.3610   53.3420 O.3   901  COA901     -0.3136
     22  C5B       25.3710   63.5820   55.3150 C.3   901  COA901      0.1812
     23  O5B       24.2450   64.2880   55.8120 O.3   901  COA901     -0.3112
     24  P1A       23.3730   63.7330   57.0160 P.3   901  COA901      0.2189
     25  O1A       22.4500   64.8130   57.4480 O.3   901  COA901     -0.4371
     26  O2A       22.7990   62.4390   56.4860 O.2   901  COA901     -0.5170
     27  O3A       24.4510   63.5550   58.2150 O.3   901  COA901     -0.2703
     28  P2A       24.6170   64.6280   59.4370 P.3   901  COA901      0.2188
     29  O4A       25.0530   66.0160   58.9110 O.2   901  COA901     -0.5170
     30  O5A       23.2790   64.5920   60.1880 O.3   901  COA901     -0.4371
     31  O6A       25.7440   63.9930   60.2610 O.3   901  COA901     -0.3138
     32  CBP       28.0380   63.7030   60.6380 C.3   901  COA901      0.0645
     33  CCP       26.9860   63.6430   59.6260 C.3   901  COA901      0.1519
     34  CDP       28.2860   65.1110   61.2130 C.3   901  COA901      0.0056
     35  CEP       29.1340   63.3480   59.7110 C.3   901  COA901      0.0056
     36  CAP       27.7060   62.7380   61.7450 C.3   901  COA901      0.2312
     37  OAP       27.7430   61.4180   61.2330 O.3   901  COA901     -0.2131
     38  C9P       28.7570   62.7290   62.8230 C.2   901  COA901      0.2719
     39  O9P       29.7820   62.1200   62.5280 O.2   901  COA901     -0.2706
     40  N8P       28.5620   63.3220   64.0190 N.am  901  COA901     -0.2028
     41  C7P       29.4700   63.4560   65.1950 C.3   901  COA901      0.1248
     42  C6P       30.1920   64.8390   65.0880 C.3   901  COA901      0.1102
     43  C5P       31.2330   65.2120   66.2440 C.2   901  COA901      0.2432
     44  O5P       30.6620   65.3850   67.3350 O.2   901  COA901     -0.2733
     45  N4P       32.5810   65.3780   66.1030 N.am  901  COA901     -0.2044
     46  C3P       33.5800   65.6740   67.0920 C.3   901  COA901      0.1276
     47  C2P       33.4860   67.1240   67.3980 C.3   901  COA901      0.0920
     48  S1P       34.4690   67.2850   68.9360 S.3   901  COA901     -0.0802
@<TRIPOS>BOND
     1     1     2    1
     2     1     6    2
     3     2     3    1
     4     7     6    1
     5     6     5    1
     6     3     4    2
     7    13    12    1
     8     5     4    1
     9     5     8    2
    10    17    16    2
    11     4    10    1
    12    18    16    1
    13     8     9    1
    14    10     9    1
    15    10    11    1
    16    16    15    1
    17    16    19    1
    18    11    12    1
    19    11    21    1
    20    12    14    1
    21    15    14    1
    22    14    20    1
    23    21    20    1
    24    20    22    1
    25    22    23    1
    26    23    24    1
    27    26    24    2
    28    24    25    1
    29    24    27    1
    30    27    28    1
    31    29    28    2
    32    28    30    1
    33    28    31    1
    34    33    31    1
    35    33    32    1
    36    35    32    1
    37    32    34    1
    38    32    36    1
    39    37    36    1
    40    36    38    1
    41    39    38    2
    42    38    40   am
    43    40    41    1
    44    42    41    1
    45    42    43    1
    46    45    43   am
    47    45    46    1
    48    43    44    2
    49    46    47    1
    50    47    48    1
