@<TRIPOS>MOLECULE
1cqp_803_A_1.pdb
 29 31 0 0 0
SMALL
GASTEIGER

@<TRIPOS>ATOM
      1  C1        52.4970   19.0250   23.0520 C.3   311  803311      0.1730
      2  C2        52.3930   17.4820   22.9710 C.3   311  803311      0.0483
      3  C3        52.3590   16.8340   24.3770 C.3   311  803311      0.0253
      4  C21       53.7770   16.4580   24.8570 C.3   311  803311      0.0048
      5  C4        51.6980   17.6970   25.4280 C.2   311  803311     -0.0305
      6  C24       51.2060   18.9180   25.1890 C.2   311  803311     -0.0236
      7  C5        50.5820   19.6860   26.2740 C.2   311  803311     -0.0091
      8  C6        50.1060   20.9220   26.0850 C.2   311  803311     -0.0268
      9  C7        50.1760   21.6320   24.7610 C.3   311  803311      0.0224
     10  C20       48.8680   21.5420   23.9490 C.3   311  803311      0.0047
     11  C8        51.3640   21.0580   23.9710 C.3   311  803311      0.0117
     12  C9        51.2660   19.5320   23.8230 C.3   311  803311      0.0624
     13  C10       51.4470   21.6940   22.5800 C.3   311  803311      0.0045
     14  C11       51.6710   23.2090   22.7270 C.3   311  803311      0.0437
     15  C12       52.1770   23.6960   21.3660 C.3   311  803311      0.1714
     16  C13       52.4360   25.2180   21.4380 C.3   311  803311      0.0770
     17  C14       51.5990   25.9840   20.4090 C.3   311  803311      0.1667
     18  O3        52.1580   25.8210   19.1020 O.3   311  803311     -0.2224
     19  C15       50.1960   25.3740   20.5210 C.3   311  803311      0.1424
     20  C22       50.2820   23.9780   19.9740 C.2   311  803311      0.3195
     21  O2        49.4630   23.5850   19.1560 O.2   311  803311     -0.2500
     22  O1        51.2610   23.1690   20.3890 O.3   311  803311     -0.4521
     23  O4        53.6780   19.4070   23.7720 O.3   311  803311     -0.4519
     24  C23       54.7650   19.3950   22.9950 C.2   311  803311      0.3163
     25  O5        54.7340   19.1020   21.8090 O.2   311  803311     -0.2501
     26  C16       56.0300   19.7780   23.7120 C.3   311  803311      0.0991
     27  C19       57.0590   18.6370   23.6090 C.3   311  803311      0.0116
     28  C17       56.6070   21.0700   23.1160 C.3   311  803311      0.0111
     29  C18       55.5920   22.2020   23.3600 C.3   311  803311      0.0006
@<TRIPOS>BOND
     1    18    17    1
     2    21    20    2
     3    20    22    1
     4    20    19    1
     5    22    15    1
     6    17    19    1
     7    17    16    1
     8    15    16    1
     9    15    14    1
    10    25    24    2
    11    13    14    1
    12    13    11    1
    13     2     1    1
    14     2     3    1
    15    24    26    1
    16    24    23    1
    17     1    23    1
    18     1    12    1
    19    28    29    1
    20    28    26    1
    21    27    26    1
    22    12    11    1
    23    12     6    1
    24    10     9    1
    25    11     9    1
    26     3     4    1
    27     3     5    1
    28     9     8    1
    29     6     5    2
    30     6     7    1
    31     8     7    2
