@<TRIPOS>MOLECULE
1cqs_EQU_A_1.pdb
 20 23 0 0 0
SMALL
GASTEIGER

@<TRIPOS>ATOM
      1  C1        23.5040  -34.0680  -38.1010 C.ar  801  EQU801      0.1957
      2  C2        23.0530  -32.9510  -37.3470 C.ar  801  EQU801      0.0420
      3  C3        23.7850  -31.7610  -37.3710 C.ar  801  EQU801      0.0029
      4  C4        25.0230  -31.7090  -38.1960 C.ar  801  EQU801     -0.0041
      5  C5        25.4260  -32.8720  -38.9270 C.ar  801  EQU801      0.0030
      6  C6        24.6590  -34.0310  -38.8700 C.ar  801  EQU801      0.0420
      7  C10       23.3560  -30.6070  -36.6300 C.ar  801  EQU801     -0.0002
      8  C11       24.1060  -29.4040  -36.6850 C.ar  801  EQU801     -0.0046
      9  C12       25.2860  -29.3280  -37.4770 C.ar  801  EQU801     -0.0260
     10  C13       25.7480  -30.5080  -38.2350 C.ar  801  EQU801     -0.0261
     11  C16       26.1690  -28.0140  -37.5810 C.3   801  EQU801      0.0290
     12  C17       26.9790  -27.7690  -38.9510 C.3   801  EQU801      0.0556
     13  C18       27.8020  -29.0680  -39.2610 C.3   801  EQU801      0.0119
     14  C19       27.0340  -30.3550  -39.0930 C.3   801  EQU801      0.0265
     15  C24       25.6060  -26.5830  -37.3460 C.3   801  EQU801      0.0125
     16  C25       26.8640  -25.6850  -37.6170 C.3   801  EQU801      0.0648
     17  C26       27.6990  -26.4930  -38.6290 C.2   801  EQU801      0.1502
     18  C27       26.0740  -27.4930  -40.2250 C.3   801  EQU801      0.0077
     19  O1        22.8020  -35.2010  -38.0790 O.3   801  EQU801     -0.2866
     20  O26       28.7940  -26.1580  -39.1160 O.2   801  EQU801     -0.2961
@<TRIPOS>BOND
     1    18    12    1
     2    13    14    1
     3    13    12    1
     4    20    17    2
     5    14    10    1
     6    12    17    1
     7    12    11    1
     8     5     6   ar
     9     5     4   ar
    10     6     1   ar
    11    17    16    1
    12    10     4   ar
    13    10     9   ar
    14     4     3   ar
    15     1    19    1
    16     1     2   ar
    17    16    15    1
    18    11     9    1
    19    11    15    1
    20     9     8   ar
    21     3     2   ar
    22     3     7   ar
    23     8     7   ar
