@<TRIPOS>MOLECULE
1cqx_HEM_A_1.pdb
 43 50 0 0 0
SMALL
GASTEIGER

@<TRIPOS>ATOM
      1  CHA       40.8770   25.1840   64.6720 C.2   404  HEM404      0.0000
      2  CHB       41.2370   23.8380   69.2650 C.2   404  HEM404      0.0000
      3  CHC       37.3280   21.0500   68.6680 C.2   404  HEM404      0.0000
      4  CHD       37.0530   22.2870   63.9830 C.2   404  HEM404      0.0000
      5  C1A       41.2680   25.0790   66.0030 C.2   404  HEM404      0.0000
      6  C2A       42.4110   25.7600   66.5650 C.2   404  HEM404      0.0000
      7  C3A       42.5760   25.3290   67.8090 C.2   404  HEM404      0.0000
      8  C4A       41.4610   24.4400   68.0290 C.2   404  HEM404      0.0000
      9  CMA       43.6520   25.7410   68.8210 C.3   404  HEM404      0.0000
     10  CAA       43.1630   26.9110   65.9000 C.3   404  HEM404      0.0000
     11  CBA       42.6890   28.2630   66.4360 C.3   404  HEM404      0.0000
     12  CGA       43.1040   29.4480   65.5740 C.2   404  HEM404      0.0000
     13  O1A       42.8540   30.5930   66.0280 O.co2 404  HEM404      0.0000
     14  O2A       43.6650   29.2400   64.4660 O.co2 404  HEM404      0.0000
     15  C1B       40.2180   22.9180   69.4860 C.ar  404  HEM404      0.0000
     16  C2B       40.0100   22.2240   70.7290 C.ar  404  HEM404      0.0000
     17  C3B       38.9050   21.4290   70.6140 C.ar  404  HEM404      0.0000
     18  C4B       38.4250   21.7000   69.2450 C.ar  404  HEM404      0.0000
     19  CMB       40.8260   22.4590   71.9700 C.3   404  HEM404      0.0000
     20  CAB       38.3330   20.4620   71.4780 C.3   404  HEM404      0.0000
     21  CBB       38.2410   20.4850   73.0010 C.3   404  HEM404      0.0000
     22  C1C       36.8840   21.1620   67.3540 C.2   404  HEM404      0.0000
     23  C2C       35.7550   20.4390   66.8260 C.2   404  HEM404      0.0000
     24  C3C       35.6980   20.7730   65.5060 C.2   404  HEM404      0.0000
     25  C4C       36.7890   21.7030   65.2290 C.2   404  HEM404      0.0000
     26  CMC       34.7690   19.5760   67.6290 C.3   404  HEM404      0.0000
     27  CAC       34.6230   20.5200   64.6760 C.3   404  HEM404      0.0000
     28  CBC       34.5900   19.5530   63.5100 C.3   404  HEM404      0.0000
     29  C1D       38.0870   23.2020   63.7820 C.ar  404  HEM404      0.0000
     30  C2D       38.4280   23.7450   62.4780 C.ar  404  HEM404      0.0000
     31  C3D       39.4750   24.5630   62.6610 C.ar  404  HEM404      0.0000
     32  C4D       39.8160   24.5150   64.0820 C.ar  404  HEM404      0.0000
     33  CMD       37.7740   23.4050   61.1520 C.3   404  HEM404      0.0000
     34  CAD       40.1580   25.4360   61.5990 C.3   404  HEM404      0.0000
     35  CBD       41.4710   24.8900   61.0470 C.3   404  HEM404      0.0000
     36  CGD       41.2690   23.9050   59.9050 C.2   404  HEM404      0.0000
     37  O1D       40.5660   24.2430   58.9350 O.co2 404  HEM404      0.0000
     38  O2D       41.8260   22.7910   59.9640 O.co2 404  HEM404      0.0000
     39  NA        40.6400   24.3010   66.9200 N.2   404  HEM404      0.0000
     40  NB        39.2330   22.6280   68.5640 N.ar  404  HEM404      0.0000
     41  NC        37.5190   21.9810   66.4070 N.2   404  HEM404      0.0000
     42  ND        38.9570   23.7070   64.7950 N.ar  404  HEM404      0.0000
     43 FE         38.8850   23.4620   66.7650 Fe    404  HEM404      0.0000
@<TRIPOS>BOND
     1    37    36   ar
     2    36    38   ar
     3    36    35    1
     4    35    34    1
     5    33    30    1
     6    34    31    1
     7    30    31   ar
     8    30    29   ar
     9    31    32   ar
    10    28    27    1
    11    29     4    2
    12    29    42   ar
    13     4    25    1
    14    32     1    2
    15    32    42   ar
    16    14    12   ar
    17     1     5    1
    18    27    24    1
    19    42    43    1
    20    25    24    1
    21    25    41    2
    22    24    23    2
    23    12    13   ar
    24    12    11    1
    25    10    11    1
    26    10     6    1
    27     5     6    1
    28     5    39    2
    29    41    43    1
    30    41    22    1
    31     6     7    2
    32    43    39    1
    33    43    40    1
    34    23    22    1
    35    23    26    1
    36    39     8    1
    37    22     3    2
    38     7     8    1
    39     7     9    1
    40     8     2    2
    41    40    18   ar
    42    40    15   ar
    43     3    18    1
    44    18    17   ar
    45     2    15    1
    46    15    16   ar
    47    17    16   ar
    48    17    20    1
    49    16    19    1
    50    20    21    1
