@<TRIPOS>MOLECULE
1cr1_TTP_A_1.pdb
 29 30 0 0 0
SMALL
GASTEIGER

@<TRIPOS>ATOM
      1  PA        -9.9630   29.5060   42.7830 P.3   600  TTP600      0.2189
      2  O1A       -8.8340   30.4540   42.9670 O.3   600  TTP600     -0.4371
      3  O2A      -11.0840   29.9030   41.8890 O.2   600  TTP600     -0.5170
      4  O3A       -9.4040   28.1300   42.2570 O.3   600  TTP600     -0.2700
      5  PB        -9.2080   27.6530   40.7450 P.3   600  TTP600      0.2277
      6  O1B       -8.9550   28.8790   39.9780 O.2   600  TTP600     -0.5168
      7  O2B       -8.2020   26.5730   40.7080 O.3   600  TTP600     -0.4368
      8  O3B      -10.6860   27.1130   40.3790 O.3   600  TTP600     -0.2258
      9  PG       -11.6310   26.8410   39.0160 P.3   600  TTP600      0.5373
     10  O1G      -11.3270   27.8600   37.9960 O.2   600  TTP600     -0.2221
     11  O2G      -11.5230   25.4270   38.5920 O.3   600  TTP600     -0.1143
     12  O3G      -13.1040   27.0860   39.5430 O.3   600  TTP600     -0.1143
     13  O5'      -10.6210   29.1550   44.1890 O.3   600  TTP600     -0.3112
     14  C5'      -11.9270   28.4920   44.1090 C.3   600  TTP600      0.1812
     15  C4'      -12.7340   28.6490   45.4220 C.3   600  TTP600      0.1773
     16  O4'      -12.0610   27.9780   46.4780 O.3   600  TTP600     -0.3339
     17  C3'      -12.9260   30.0950   45.8800 C.3   600  TTP600      0.1857
     18  O3'      -14.2800   30.3210   46.2590 O.3   600  TTP600     -0.2203
     19  C2'      -11.9240   30.2500   47.0350 C.3   600  TTP600      0.0874
     20  C1'      -11.8750   28.8220   47.5590 C.3   600  TTP600      0.2090
     21  N1       -10.5540   28.4700   48.2250 N.am  600  TTP600     -0.1794
     22  C2       -10.7550   28.2170   49.6140 C.1   600  TTP600      0.2844
     23  O2       -11.8850   28.2950   50.1250 O.2   600  TTP600     -0.1918
     24  N3        -9.6670   27.8740   50.3670 N.2   600  TTP600     -0.2455
     25  C4        -8.4590   27.7900   49.8230 C.1   600  TTP600      0.2134
     26  O4        -7.4470   27.4500   50.6420 O.2   600  TTP600     -0.2088
     27  C5        -8.2430   28.0490   48.4130 C.2   600  TTP600      0.0891
     28  C5M       -6.8720   27.9430   47.8180 C.3   600  TTP600      0.0462
     29  C6        -9.3240   28.3760   47.6860 C.2   600  TTP600      0.0877
@<TRIPOS>BOND
     1    10     9    2
     2    11     9    1
     3     9    12    1
     4     9     8    1
     5     6     5    2
     6     8     5    1
     7     7     5    1
     8     5     4    1
     9     3     1    2
    10     4     1    1
    11     1     2    1
    12     1    13    1
    13    14    13    1
    14    14    15    1
    15    15    17    1
    16    15    16    1
    17    17    18    1
    18    17    19    1
    19    16    20    1
    20    19    20    1
    21    20    21    1
    22    29    21    1
    23    29    27    2
    24    28    27    1
    25    21    22   am
    26    27    25    1
    27    22    23    2
    28    22    24    2
    29    25    24    2
    30    25    26    2
