@<TRIPOS>MOLECULE
1cr2_DTP_A_1.pdb
 30 32 0 0 0
SMALL
GASTEIGER

@<TRIPOS>ATOM
      1  PG       -11.7480   26.5470   38.8000 P.3   600  DTP600      0.5373
      2  O1G      -11.4830   27.6430   37.8370 O.2   600  DTP600     -0.2221
      3  O2G      -11.4120   25.3770   38.1220 O.3   600  DTP600     -0.1143
      4  O3G      -13.2200   26.5280   39.3000 O.3   600  DTP600     -0.1143
      5  PB        -9.5480   27.4820   40.7510 P.3   600  DTP600      0.2277
      6  O1B       -9.4640   28.8010   40.0140 O.2   600  DTP600     -0.5168
      7  O2B       -8.3890   26.7000   40.9010 O.3   600  DTP600     -0.4368
      8  O3B      -10.7050   26.5140   40.1410 O.3   600  DTP600     -0.2258
      9  PA       -10.6060   29.3150   42.7450 P.3   600  DTP600      0.2189
     10  O1A       -9.3470   30.0730   42.6820 O.3   600  DTP600     -0.4371
     11  O2A      -11.7320   29.9190   42.0830 O.2   600  DTP600     -0.5170
     12  O3A      -10.1020   27.8620   42.2260 O.3   600  DTP600     -0.2700
     13  O5'      -10.9800   29.0930   44.1680 O.3   600  DTP600     -0.3112
     14  C5'      -12.2480   28.4560   44.5150 C.3   600  DTP600      0.1813
     15  C4'      -12.8410   28.7450   45.9140 C.3   600  DTP600      0.1795
     16  O4'      -12.1050   28.0890   46.9700 O.3   600  DTP600     -0.3155
     17  C3'      -12.9320   30.2060   46.3160 C.3   600  DTP600      0.1883
     18  O3'      -14.2350   30.5090   46.7760 O.3   600  DTP600     -0.2202
     19  C2'      -11.8730   30.4060   47.3900 C.3   600  DTP600      0.1151
     20  C1'      -11.4630   29.0130   47.8170 C.3   600  DTP600      0.2873
     21  N9       -10.0330   28.7650   47.7060 N.pl3 600  DTP600     -0.1460
     22  C8        -9.0500   29.0220   46.8200 C.3   600  DTP600      0.3377
     23  N7        -7.8760   28.5880   47.1910 N.2   600  DTP600     -0.2095
     24  C5        -8.1070   28.0070   48.4060 C.2   600  DTP600      0.2526
     25  C6        -7.2500   27.3570   49.3360 C.2   600  DTP600      0.4393
     26  N6        -5.9510   27.1830   49.1460 N.pl3 600  DTP600      0.2180
     27  N1        -7.7990   26.8890   50.4770 N.2   600  DTP600      0.0021
     28  C2        -9.1110   27.0630   50.6730 C.3   600  DTP600      0.5254
     29  N3       -10.0010   27.6530   49.8700 N.2   600  DTP600     -0.0055
     30  C4        -9.4230   28.1180   48.7510 C.2   600  DTP600      0.3518
@<TRIPOS>BOND
     1     2     1    2
     2     3     1    1
     3     1     4    1
     4     1     8    1
     5     6     5    2
     6     8     5    1
     7     5     7    1
     8     5    12    1
     9    11     9    2
    10    12     9    1
    11    10     9    1
    12     9    13    1
    13    13    14    1
    14    14    15    1
    15    15    17    1
    16    15    16    1
    17    17    18    1
    18    17    19    1
    19    22    23    1
    20    22    21    1
    21    16    20    1
    22    23    24    2
    23    19    20    1
    24    21    20    1
    25    21    30    1
    26    24    30    1
    27    24    25    1
    28    30    29    2
    29    26    25    1
    30    25    27    2
    31    29    28    1
    32    27    28    1
