@<TRIPOS>MOLECULE
1cr4_TYD_A_1.pdb
 25 26 0 0 0
SMALL
GASTEIGER

@<TRIPOS>ATOM
      1  PA        -9.8780   29.5140   42.7360 P.3   600  TYD600      0.2231
      2  O1A       -8.7450   30.4520   42.9330 O.3   600  TYD600     -0.4370
      3  O2A      -10.9780   29.9150   41.8200 O.2   600  TYD600     -0.5169
      4  O3A       -9.3390   28.1360   42.2140 O.3   600  TYD600     -0.2261
      5  PB        -8.9150   27.7300   40.7280 P.3   600  TYD600      0.5373
      6  O1B       -8.6370   29.0000   40.0360 O.2   600  TYD600     -0.2221
      7  O2B       -7.8580   26.7120   40.8070 O.3   600  TYD600     -0.1143
      8  O3B      -10.2730   27.1220   40.1240 O.3   600  TYD600     -0.1143
      9  O5'      -10.5570   29.1610   44.1400 O.3   600  TYD600     -0.3111
     10  C5'      -11.9270   28.6260   44.0460 C.3   600  TYD600      0.1812
     11  C4'      -12.6920   28.7220   45.3910 C.3   600  TYD600      0.1773
     12  O4'      -11.9710   28.0300   46.4010 O.3   600  TYD600     -0.3339
     13  C3'      -12.8960   30.1540   45.9150 C.3   600  TYD600      0.1857
     14  O3'      -14.2540   30.3620   46.3090 O.3   600  TYD600     -0.2203
     15  C2'      -11.8970   30.2670   47.0700 C.3   600  TYD600      0.0874
     16  C1'      -11.8290   28.8090   47.5230 C.3   600  TYD600      0.2090
     17  N1       -10.5130   28.4730   48.1940 N.am  600  TYD600     -0.1794
     18  C2       -10.7260   28.2060   49.5840 C.1   600  TYD600      0.2844
     19  O2       -11.8600   28.2770   50.0980 O.2   600  TYD600     -0.1918
     20  N3        -9.6410   27.8630   50.3380 N.2   600  TYD600     -0.2455
     21  C4        -8.4360   27.7910   49.7960 C.1   600  TYD600      0.2134
     22  O4        -7.4240   27.4570   50.6220 O.2   600  TYD600     -0.2088
     23  C5        -8.2040   28.0580   48.3850 C.2   600  TYD600      0.0891
     24  C5M       -6.8230   27.9540   47.8020 C.3   600  TYD600      0.0462
     25  C6        -9.2860   28.3800   47.6560 C.2   600  TYD600      0.0877
@<TRIPOS>BOND
     1     6     5    2
     2     8     5    1
     3     5     7    1
     4     5     4    1
     5     3     1    2
     6     4     1    1
     7     1     2    1
     8     1     9    1
     9    10     9    1
    10    10    11    1
    11    11    13    1
    12    11    12    1
    13    13    14    1
    14    13    15    1
    15    12    16    1
    16    15    16    1
    17    16    17    1
    18    25    17    1
    19    25    23    2
    20    24    23    1
    21    17    18   am
    22    23    21    1
    23    18    19    2
    24    18    20    2
    25    21    20    2
    26    21    22    2
