@<TRIPOS>MOLECULE
1cr6_CPU_A_1.pdb
 19 20 0 0 0
SMALL
GASTEIGER

@<TRIPOS>ATOM
      1  C1       -46.1960 -117.2040  -33.2330 C.ar  1100  CPU1100    -0.0043
      2  C2       -47.2420 -117.6300  -34.0980 C.ar  1100  CPU1100    -0.0003
      3  C3       -48.1780 -116.6820  -34.5580 C.ar  1100  CPU1100    -0.0000
      4  C4       -48.0550 -115.3210  -34.1490 C.ar  1100  CPU1100    -0.0003
      5  C5       -46.9990 -114.8860  -33.2730 C.ar  1100  CPU1100    -0.0043
      6  C6       -46.0720 -115.8200  -32.8130 C.ar  1100  CPU1100    -0.0218
      7  N1       -43.1870 -113.4940  -29.2740 N.am  1100  CPU1100    -0.1643
      8  C7       -44.9120 -115.4690  -31.8810 C.3   1100  CPU1100     0.0325
      9  C8       -44.9130 -114.2970  -30.9330 C.3   1100  CPU1100     0.0490
     10  C9       -43.5610 -114.4830  -30.2650 C.2   1100  CPU1100     0.0642
     11  C10      -42.0260 -113.5950  -28.5970 C.2   1100  CPU1100     0.3432
     12  O1       -41.7970 -112.7000  -27.7740 O.2   1100  CPU1100    -0.2488
     13  N2       -41.1650 -114.6340  -28.8030 N.am  1100  CPU1100    -0.1887
     14  C11      -39.8600 -114.8490  -28.0930 C.3   1100  CPU1100     0.0970
     15  C12      -39.3470 -116.3060  -28.3840 C.3   1100  CPU1100     0.0217
     16  C13      -37.9780 -116.6520  -27.6610 C.3   1100  CPU1100     0.0018
     17  C14      -37.9900 -116.3180  -26.1040 C.3   1100  CPU1100     0.0001
     18  C15      -38.6350 -114.9040  -25.7700 C.3   1100  CPU1100     0.0018
     19  C16      -40.0010 -114.6530  -26.5380 C.3   1100  CPU1100     0.0217
@<TRIPOS>BOND
     1     3     4   ar
     2     3     2   ar
     3     4     5   ar
     4     2     1   ar
     5     5     6   ar
     6     1     6   ar
     7     6     8    1
     8     8     9    1
     9     9    10    1
    10    10     7    2
    11     7    11    1
    12    13    11   am
    13    13    14    1
    14    11    12    2
    15    15    14    1
    16    15    16    1
    17    14    19    1
    18    16    17    1
    19    19    18    1
    20    17    18    1
