@<TRIPOS>MOLECULE
1cr7_GAL_A_1.pdb
 11 11 0 0 0
SMALL
GASTEIGER

@<TRIPOS>ATOM
      1  C1        13.9910   97.2780   13.8000 C.3   1239  GAL1239     0.1777
      2  C2        15.4030   96.8220   14.1420 C.3   1239  GAL1239     0.2141
      3  C3        15.7640   95.5900   13.1980 C.3   1239  GAL1239     0.2173
      4  C4        14.7100   94.5080   13.5420 C.3   1239  GAL1239     0.2142
      5  C5        13.3720   95.0860   13.0410 C.3   1239  GAL1239     0.1810
      6  C6        12.2160   94.1070   12.9640 C.3   1239  GAL1239     0.2141
      7  O2        16.3040   97.8870   14.0220 O.3   1239  GAL1239    -0.2176
      8  O3        17.1040   95.1910   13.3900 O.3   1239  GAL1239    -0.2175
      9  O4        14.7000   94.1950   14.9180 O.3   1239  GAL1239    -0.2176
     10  O5        13.0960   96.1790   13.9610 O.3   1239  GAL1239    -0.3481
     11  O6        11.0100   94.7220   12.6150 O.3   1239  GAL1239    -0.2176
@<TRIPOS>BOND
     1    11     6    1
     2     6     5    1
     3     5     4    1
     4     5    10    1
     5     3     8    1
     6     3     4    1
     7     3     2    1
     8     4     9    1
     9     1    10    1
    10     1     2    1
    11     7     2    1
