@<TRIPOS>MOLECULE
1cr7_GLC_A_1.pdb
 12 12 0 0 0
SMALL
GASTEIGER

@<TRIPOS>ATOM
      1  C1         9.8850  100.6700   14.6010 C.3   1240  GLC1240     0.3024
      2  C2        10.1190   99.4260   15.5840 C.3   1240  GLC1240     0.2434
      3  C3        11.5610   98.8880   15.7680 C.3   1240  GLC1240     0.2199
      4  C4        12.3040   98.8750   14.4410 C.3   1240  GLC1240     0.2144
      5  C5        12.3120  100.3310   13.8950 C.3   1240  GLC1240     0.1836
      6  C6        13.1370  100.4900   12.6840 C.3   1240  GLC1240     0.2142
      7  O1        10.5800  101.6040   15.3700 O.3   1240  GLC1240    -0.1869
      8  O2         9.7510   99.6850   16.9570 O.3   1240  GLC1240    -0.2148
      9  O3        11.4840   97.5420   16.2930 O.3   1240  GLC1240    -0.2174
     10  O4        13.6780   98.3370   14.7090 O.3   1240  GLC1240    -0.2176
     11  O5        10.9630  100.7370   13.5670 O.3   1240  GLC1240    -0.3236
     12  O6        12.5550   99.8220   11.6090 O.3   1240  GLC1240    -0.2176
@<TRIPOS>BOND
     1    12     6    1
     2     6     5    1
     3    11     5    1
     4    11     1    1
     5     5     4    1
     6     4    10    1
     7     4     3    1
     8     1     7    1
     9     1     2    1
    10     2     3    1
    11     2     8    1
    12     3     9    1
