@<TRIPOS>MOLECULE
1crb_RTL_A_1.pdb
 21 21 0 0 0
SMALL
GASTEIGER

@<TRIPOS>ATOM
      1  C1        16.5190    7.6910    0.3220 C.3   200  RTL200      0.0183
      2  C2        16.5320    8.9960    1.1620 C.3   200  RTL200      0.0044
      3  C3        17.8550    9.6980    1.2380 C.3   200  RTL200      0.0047
      4  C4        18.9220    8.8120    1.8250 C.3   200  RTL200      0.0217
      5  C5        18.9290    7.3930    1.2080 C.2   200  RTL200     -0.0479
      6  C6        17.8840    6.8890    0.5220 C.2   200  RTL200     -0.0307
      7  C7        17.9700    5.5410   -0.0440 C.2   200  RTL200     -0.0052
      8  C8        17.2570    4.9530   -1.0150 C.2   200  RTL200     -0.0049
      9  C9        17.4330    3.5840   -1.4620 C.2   200  RTL200     -0.0258
     10  C10       16.6200    3.1530   -2.4330 C.2   200  RTL200     -0.0257
     11  C11       16.5880    1.8250   -3.0210 C.3   200  RTL200      0.0510
     12  C12       15.6530    1.6510   -3.9620 C.2   200  RTL200     -0.0298
     13  C13       15.3730    0.4290   -4.6810 C.2   200  RTL200     -0.0452
     14  C14       14.3790    0.4410   -5.5870 C.3   200  RTL200      0.0572
     15  C15       13.9120   -0.6660   -6.4080 C.3   200  RTL200      0.1864
     16  O1        12.6170   -1.0470   -5.9520 O.3   200  RTL200     -0.2201
     17  C16       16.3370    8.0900   -1.1610 C.3   200  RTL200      0.0043
     18  C17       15.3120    6.8540    0.8050 C.3   200  RTL200      0.0043
     19  C18       20.2500    6.6440    1.4780 C.3   200  RTL200      0.0260
     20  C19       18.5040    2.6560   -0.8350 C.3   200  RTL200      0.0307
     21  C20       16.1810   -0.8410   -4.3880 C.3   200  RTL200      0.0261
@<TRIPOS>BOND
     1    15    16    1
     2    15    14    1
     3    14    13    1
     4    13    21    1
     5    13    12    2
     6    12    11    1
     7    11    10    1
     8    10     9    2
     9     9     8    1
    10     9    20    1
    11    17     1    1
    12     8     7    2
    13     7     6    1
    14     1     6    1
    15     1    18    1
    16     1     2    1
    17     6     5    2
    18     2     3    1
    19     5    19    1
    20     5     4    1
    21     3     4    1
