@<TRIPOS>MOLECULE
1crc_HEM_A_1.pdb
 43 50 0 0 0
SMALL
GASTEIGER

@<TRIPOS>ATOM
      1 FE          8.4650   23.5960   12.9950 Fe    105  HEM105      0.0000
      2  CHA        6.0010   24.6150   15.1790 C.2   105  HEM105      0.0000
      3  CHB        6.6880   24.8050   10.4070 C.2   105  HEM105      0.0000
      4  CHC       11.2220   23.3830   11.0040 C.2   105  HEM105      0.0000
      5  CHD       10.0190   21.9830   15.4870 C.2   105  HEM105      0.0000
      6  NA         6.7130   24.4910   12.8330 N.ar  105  HEM105      0.0000
      7  C1A        5.8590   24.8400   13.8510 C.ar  105  HEM105      0.0000
      8  C2A        4.7600   25.5710   13.3280 C.ar  105  HEM105      0.0000
      9  C3A        4.8960   25.6800   11.9810 C.ar  105  HEM105      0.0000
     10  C4A        6.1310   24.9860   11.6540 C.ar  105  HEM105      0.0000
     11  CMA        3.9230   26.3320   10.9550 C.3   105  HEM105      0.0000
     12  CAA        3.6470   26.1150   14.2330 C.3   105  HEM105      0.0000
     13  CBA        2.2800   25.9440   13.6870 C.3   105  HEM105      0.0000
     14  CGA        1.1980   25.7170   14.6840 C.2   105  HEM105      0.0000
     15  O1A        0.3860   24.7820   14.6020 O.co2 105  HEM105      0.0000
     16  O2A        1.2450   26.5880   15.5450 O.co2 105  HEM105      0.0000
     17  NB         8.8880   24.0530   11.0930 N.2   105  HEM105      0.0000
     18  C1B        7.9730   24.4470   10.1410 C.2   105  HEM105      0.0000
     19  C2B        8.5940   24.4130    8.8470 C.2   105  HEM105      0.0000
     20  C3B        9.8710   24.0640    9.0150 C.2   105  HEM105      0.0000
     21  C4B       10.0560   23.8100   10.4370 C.2   105  HEM105      0.0000
     22  CMB        7.8160   24.7360    7.5620 C.3   105  HEM105      0.0000
     23  CAB       11.0140   23.8450    7.9920 C.2   105  HEM105      0.0000
     24  CBB       11.7050   24.9180    7.5400 C.2   105  HEM105      0.0000
     25  NC        10.2510   22.8740   13.2030 N.ar  105  HEM105      0.0000
     26  C1C       11.2420   22.7880   12.2350 C.ar  105  HEM105      0.0000
     27  C2C       12.3240   22.0060   12.7580 C.ar  105  HEM105      0.0000
     28  C3C       12.0030   21.6350   13.9980 C.ar  105  HEM105      0.0000
     29  C4C       10.7090   22.1530   14.3260 C.ar  105  HEM105      0.0000
     30  CMC       13.6030   21.7140   11.9530 C.3   105  HEM105      0.0000
     31  CAC       12.8040   20.7260   14.9790 C.2   105  HEM105      0.0000
     32  CBC       13.9310   21.1350   15.4810 C.2   105  HEM105      0.0000
     33  ND         8.0780   23.3390   14.9370 N.2   105  HEM105      0.0000
     34  C1D        8.8920   22.6660   15.8390 C.2   105  HEM105      0.0000
     35  C2D        8.3110   22.7940   17.1790 C.2   105  HEM105      0.0000
     36  C3D        7.1990   23.5120   17.0680 C.2   105  HEM105      0.0000
     37  C4D        7.0520   23.8580   15.6560 C.2   105  HEM105      0.0000
     38  CMD        8.9430   22.1470   18.4360 C.3   105  HEM105      0.0000
     39  CAD        6.2140   24.0190   18.1860 C.3   105  HEM105      0.0000
     40  CBD        7.0400   25.1310   18.9490 C.3   105  HEM105      0.0000
     41  CGD        6.4010   25.9700   20.0130 C.2   105  HEM105      0.0000
     42  O1D        5.2630   25.5220   20.3280 O.co2 105  HEM105      0.0000
     43  O2D        6.9880   26.9800   20.5380 O.co2 105  HEM105      0.0000
@<TRIPOS>BOND
     1    24    23    2
     2    22    19    1
     3    23    20    1
     4    19    20    2
     5    19    18    1
     6    20    21    1
     7    18     3    1
     8    18    17    2
     9     3    10    2
    10    21     4    2
    11    21    17    1
    12    11     9    1
    13     4    26    1
    14    17     1    1
    15    10     9   ar
    16    10     6   ar
    17    30    27    1
    18     9     8   ar
    19    26    27   ar
    20    26    25   ar
    21    27    28   ar
    22     6     1    1
    23     6     7   ar
    24     1    25    1
    25     1    33    1
    26    25    29   ar
    27     8     7   ar
    28     8    12    1
    29    13    12    1
    30    13    14    1
    31     7     2    2
    32    28    29   ar
    33    28    31    1
    34    29     5    1
    35    15    14   ar
    36    14    16   ar
    37    33    37    2
    38    33    34    1
    39    31    32    2
    40     2    37    1
    41     5    34    2
    42    37    36    1
    43    34    35    1
    44    36    35    2
    45    36    39    1
    46    35    38    1
    47    39    40    1
    48    40    41    1
    49    41    42   ar
    50    41    43   ar
