@<TRIPOS>MOLECULE
1crg_HEM_A_1.pdb
 43 50 0 0 0
SMALL
GASTEIGER

@<TRIPOS>ATOM
      1 FE          2.9600   21.0320   13.0360 Fe    104  HEM104      0.0000
      2  CHA        5.2110   18.6430   14.0830 C.2   104  HEM104      0.0000
      3  CHB        4.1530   20.8250    9.9280 C.2   104  HEM104      0.0000
      4  CHC        0.3390   22.9000   11.9760 C.2   104  HEM104      0.0000
      5  CHD        2.2500   21.8410   16.2630 C.2   104  HEM104      0.0000
      6  NA         4.4480   19.9610   12.1810 N.ar  104  HEM104      0.0000
      7  C1A        5.2470   18.9750   12.7620 C.ar  104  HEM104      0.0000
      8  C2A        5.9350   18.3040   11.7410 C.ar  104  HEM104      0.0000
      9  C3A        5.6620   18.8880   10.5290 C.ar  104  HEM104      0.0000
     10  C4A        4.7430   19.9330   10.7990 C.ar  104  HEM104      0.0000
     11  CMA        6.2320   18.4260    9.1740 C.3   104  HEM104      0.0000
     12  CAA        6.8920   17.0740   11.9490 C.3   104  HEM104      0.0000
     13  CBA        8.3110   17.7580   12.1520 C.3   104  HEM104      0.0000
     14  CGA        9.5800   17.0450   12.3540 C.2   104  HEM104      0.0000
     15  O1A       10.5010   17.7400   12.8310 O.co2 104  HEM104      0.0000
     16  O2A        9.5640   15.8270   12.0250 O.co2 104  HEM104      0.0000
     17  NB         2.3060   21.6470   11.2860 N.2   104  HEM104      0.0000
     18  C1B        3.0640   21.6020   10.1190 C.2   104  HEM104      0.0000
     19  C2B        2.3450   22.3520    9.0990 C.2   104  HEM104      0.0000
     20  C3B        1.2790   22.9290    9.6570 C.2   104  HEM104      0.0000
     21  C4B        1.2680   22.5400   11.0700 C.2   104  HEM104      0.0000
     22  CMB        2.8250   22.4330    7.6500 C.3   104  HEM104      0.0000
     23  CAB        0.2040   23.7690    9.0170 C.3   104  HEM104      0.0000
     24  CBB       -0.5870   23.0620    7.8620 C.3   104  HEM104      0.0000
     25  NC         1.5320   22.0670   13.9500 N.ar  104  HEM104      0.0000
     26  C1C        0.5510   22.8000   13.3500 C.ar  104  HEM104      0.0000
     27  C2C       -0.2020   23.5090   14.3080 C.ar  104  HEM104      0.0000
     28  C3C        0.3000   23.2320   15.5170 C.ar  104  HEM104      0.0000
     29  C4C        1.4360   22.3510   15.3010 C.ar  104  HEM104      0.0000
     30  CMC       -1.4380   24.4630   13.9660 C.3   104  HEM104      0.0000
     31  CAC       -0.0950   23.8440   16.8790 C.3   104  HEM104      0.0000
     32  CBC       -1.4910   23.8550   17.4340 C.3   104  HEM104      0.0000
     33  ND         3.6190   20.3530   14.8460 N.2   104  HEM104      0.0000
     34  C1D        3.1960   20.8110   16.0640 C.2   104  HEM104      0.0000
     35  C2D        3.8910   20.1060   17.0950 C.2   104  HEM104      0.0000
     36  C3D        4.6940   19.2170   16.4780 C.2   104  HEM104      0.0000
     37  C4D        4.4810   19.3210   15.0720 C.2   104  HEM104      0.0000
     38  CMD        3.6850   20.2700   18.6390 C.3   104  HEM104      0.0000
     39  CAD        5.5920   18.1580   17.1540 C.3   104  HEM104      0.0000
     40  CBD        4.7730   16.8720   17.3630 C.3   104  HEM104      0.0000
     41  CGD        5.3230   15.8280   18.2090 C.2   104  HEM104      0.0000
     42  O1D        6.4380   16.1180   18.7500 O.co2 104  HEM104      0.0000
     43  O2D        4.7260   14.7460   18.3290 O.co2 104  HEM104      0.0000
@<TRIPOS>BOND
     1    22    19    1
     2    24    23    1
     3    23    20    1
     4    19    20    2
     5    19    18    1
     6    11     9    1
     7    20    21    1
     8     3    18    1
     9     3    10    2
    10    18    17    2
    11     9    10   ar
    12     9     8   ar
    13    10     6   ar
    14    21    17    1
    15    21     4    2
    16    17     1    1
    17     8    12    1
    18     8     7   ar
    19    12    13    1
    20     4    26    1
    21    16    14   ar
    22    13    14    1
    23     6     7   ar
    24     6     1    1
    25    14    15   ar
    26     7     2    2
    27     1    25    1
    28     1    33    1
    29    26    25   ar
    30    26    27   ar
    31    25    29   ar
    32    30    27    1
    33     2    37    1
    34    27    28   ar
    35    33    37    2
    36    33    34    1
    37    37    36    1
    38    29    28   ar
    39    29     5    1
    40    28    31    1
    41    34     5    2
    42    34    35    1
    43    36    35    2
    44    36    39    1
    45    31    32    1
    46    35    38    1
    47    39    40    1
    48    40    41    1
    49    41    43   ar
    50    41    42   ar
