@<TRIPOS>MOLECULE
1crh_HEM_A_1.pdb
 43 50 0 0 0
SMALL
GASTEIGER

@<TRIPOS>ATOM
      1 FE          2.8920   21.0650   13.1300 Fe    104  HEM104      0.0000
      2  CHA        5.0660   18.5870   14.1350 C.2   104  HEM104      0.0000
      3  CHB        4.0200   20.7300    9.8800 C.2   104  HEM104      0.0000
      4  CHC        0.1260   22.6820   11.9430 C.2   104  HEM104      0.0000
      5  CHD        2.1580   21.8360   16.2400 C.2   104  HEM104      0.0000
      6  NA         4.2770   19.9330   12.2270 N.ar  104  HEM104      0.0000
      7  C1A        5.0710   18.9110   12.7980 C.ar  104  HEM104      0.0000
      8  C2A        5.8320   18.2920   11.7290 C.ar  104  HEM104      0.0000
      9  C3A        5.4900   18.8720   10.5660 C.ar  104  HEM104      0.0000
     10  C4A        4.5310   19.9130   10.8550 C.ar  104  HEM104      0.0000
     11  CMA        6.0220   18.6030    9.1370 C.3   104  HEM104      0.0000
     12  CAA        6.8080   17.0710   11.8760 C.3   104  HEM104      0.0000
     13  CBA        8.2600   17.5030   11.9890 C.3   104  HEM104      0.0000
     14  CGA        9.4340   16.8620   12.5790 C.2   104  HEM104      0.0000
     15  O1A       10.2710   17.5530   13.2280 O.co2 104  HEM104      0.0000
     16  O2A        9.5460   15.6230   12.3620 O.co2 104  HEM104      0.0000
     17  NB         2.1870   21.5410   11.2810 N.2   104  HEM104      0.0000
     18  C1B        2.9250   21.4930   10.1090 C.2   104  HEM104      0.0000
     19  C2B        2.2440   22.2820    9.0800 C.2   104  HEM104      0.0000
     20  C3B        1.1700   22.8310    9.6390 C.2   104  HEM104      0.0000
     21  C4B        1.1100   22.3630   11.0280 C.2   104  HEM104      0.0000
     22  CMB        2.8200   22.5100    7.6640 C.3   104  HEM104      0.0000
     23  CAB        0.1200   23.7460    9.0330 C.3   104  HEM104      0.0000
     24  CBB       -0.8680   23.0750    8.0660 C.3   104  HEM104      0.0000
     25  NC         1.4200   22.0770   13.9510 N.ar  104  HEM104      0.0000
     26  C1C        0.3630   22.7280   13.3190 C.ar  104  HEM104      0.0000
     27  C2C       -0.4240   23.4110   14.2990 C.ar  104  HEM104      0.0000
     28  C3C        0.1620   23.2280   15.4950 C.ar  104  HEM104      0.0000
     29  C4C        1.3230   22.3660   15.2940 C.ar  104  HEM104      0.0000
     30  CMC       -1.6760   24.2900   14.0300 C.3   104  HEM104      0.0000
     31  CAC       -0.2540   23.7950   16.8740 C.3   104  HEM104      0.0000
     32  CBC       -1.7110   23.8310   17.2890 C.3   104  HEM104      0.0000
     33  ND         3.4980   20.3150   14.9020 N.2   104  HEM104      0.0000
     34  C1D        3.0250   20.7590   16.1310 C.2   104  HEM104      0.0000
     35  C2D        3.6600   19.9780   17.1340 C.2   104  HEM104      0.0000
     36  C3D        4.4740   19.0900   16.5610 C.2   104  HEM104      0.0000
     37  C4D        4.3590   19.2520   15.1320 C.2   104  HEM104      0.0000
     38  CMD        3.3920   20.1130   18.6580 C.3   104  HEM104      0.0000
     39  CAD        5.3210   18.0280   17.2850 C.3   104  HEM104      0.0000
     40  CBD        5.0270   16.5840   17.1190 C.3   104  HEM104      0.0000
     41  CGD        5.2420   15.5990   18.2030 C.2   104  HEM104      0.0000
     42  O1D        6.1890   15.8090   19.0130 O.co2 104  HEM104      0.0000
     43  O2D        4.4830   14.6160   18.2000 O.co2 104  HEM104      0.0000
@<TRIPOS>BOND
     1    22    19    1
     2    24    23    1
     3    23    20    1
     4    19    20    2
     5    19    18    1
     6    11     9    1
     7    20    21    1
     8     3    18    1
     9     3    10    2
    10    18    17    2
    11     9    10   ar
    12     9     8   ar
    13    10     6   ar
    14    21    17    1
    15    21     4    2
    16    17     1    1
    17     8    12    1
    18     8     7   ar
    19    12    13    1
    20     4    26    1
    21    13    14    1
    22     6     7   ar
    23     6     1    1
    24    16    14   ar
    25    14    15   ar
    26     7     2    2
    27     1    25    1
    28     1    33    1
    29    26    25   ar
    30    26    27   ar
    31    25    29   ar
    32    30    27    1
    33     2    37    1
    34    27    28   ar
    35    33    37    2
    36    33    34    1
    37    37    36    1
    38    29    28   ar
    39    29     5    1
    40    28    31    1
    41    34     5    2
    42    34    35    1
    43    36    35    2
    44    36    39    1
    45    31    32    1
    46    40    39    1
    47    40    41    1
    48    35    38    1
    49    43    41   ar
    50    41    42   ar
