@<TRIPOS>MOLECULE
1cri_HEM_A_1.pdb
 43 50 0 0 0
SMALL
GASTEIGER

@<TRIPOS>ATOM
      1 FE          2.6490   21.0750   13.2240 Fe    104  HEM104      0.0000
      2  CHA        4.9270   18.7210   14.3780 C.2   104  HEM104      0.0000
      3  CHB        3.9120   20.7450   10.0900 C.2   104  HEM104      0.0000
      4  CHC       -0.0540   22.7250   12.0550 C.2   104  HEM104      0.0000
      5  CHD        1.7150   21.7100   16.4660 C.2   104  HEM104      0.0000
      6  NA         4.1160   19.9590   12.4260 N.ar  104  HEM104      0.0000
      7  C1A        4.9180   19.0520   13.0370 C.ar  104  HEM104      0.0000
      8  C2A        5.7790   18.4140   12.0330 C.ar  104  HEM104      0.0000
      9  C3A        5.4380   18.8880   10.8380 C.ar  104  HEM104      0.0000
     10  C4A        4.3900   19.8800   11.0440 C.ar  104  HEM104      0.0000
     11  CMA        6.0580   18.6850    9.4520 C.3   104  HEM104      0.0000
     12  CAA        6.7920   17.3380   12.4290 C.3   104  HEM104      0.0000
     13  CBA        8.1780   17.9350   12.7050 C.3   104  HEM104      0.0000
     14  CGA        9.4390   17.0930   12.6910 C.2   104  HEM104      0.0000
     15  O1A       10.5480   17.7640   12.8750 O.co2 104  HEM104      0.0000
     16  O2A        9.2790   15.8800   12.4480 O.co2 104  HEM104      0.0000
     17  NB         2.0550   21.6120   11.4630 N.2   104  HEM104      0.0000
     18  C1B        2.8120   21.5660   10.3100 C.2   104  HEM104      0.0000
     19  C2B        2.1110   22.3100    9.2710 C.2   104  HEM104      0.0000
     20  C3B        0.9840   22.7630    9.7860 C.2   104  HEM104      0.0000
     21  C4B        0.9600   22.3830   11.1770 C.2   104  HEM104      0.0000
     22  CMB        2.6990   22.3910    7.8450 C.3   104  HEM104      0.0000
     23  CAB       -0.1790   23.6160    9.2080 C.3   104  HEM104      0.0000
     24  CBB       -1.1130   22.7870    8.2670 C.3   104  HEM104      0.0000
     25  NC         1.1210   22.0290   14.0860 N.ar  104  HEM104      0.0000
     26  C1C        0.1400   22.7530   13.4270 C.ar  104  HEM104      0.0000
     27  C2C       -0.5770   23.5450   14.3810 C.ar  104  HEM104      0.0000
     28  C3C       -0.1140   23.2380   15.6120 C.ar  104  HEM104      0.0000
     29  C4C        0.9630   22.2560   15.4280 C.ar  104  HEM104      0.0000
     30  CMC       -1.7180   24.5340   14.0590 C.3   104  HEM104      0.0000
     31  CAC       -0.4690   23.8180   16.9810 C.3   104  HEM104      0.0000
     32  CBC       -1.9510   23.8720   17.4330 C.3   104  HEM104      0.0000
     33  ND         3.2130   20.3920   15.0370 N.2   104  HEM104      0.0000
     34  C1D        2.7440   20.7620   16.2780 C.2   104  HEM104      0.0000
     35  C2D        3.3950   20.0060   17.3110 C.2   104  HEM104      0.0000
     36  C3D        4.2340   19.1970   16.7320 C.2   104  HEM104      0.0000
     37  C4D        4.1790   19.4010   15.3080 C.2   104  HEM104      0.0000
     38  CMD        3.1660   20.0790   18.8650 C.3   104  HEM104      0.0000
     39  CAD        5.1710   18.1380   17.4650 C.3   104  HEM104      0.0000
     40  CBD        4.5450   16.7080   17.3070 C.3   104  HEM104      0.0000
     41  CGD        4.9510   15.7250   18.3360 C.2   104  HEM104      0.0000
     42  O1D        5.9750   15.9780   18.9830 O.co2 104  HEM104      0.0000
     43  O2D        4.2850   14.6810   18.5550 O.co2 104  HEM104      0.0000
@<TRIPOS>BOND
     1    22    19    1
     2    24    23    1
     3    23    20    1
     4    19    20    2
     5    19    18    1
     6    11     9    1
     7    20    21    1
     8     3    18    1
     9     3    10    2
    10    18    17    2
    11     9    10   ar
    12     9     8   ar
    13    10     6   ar
    14    21    17    1
    15    21     4    2
    16    17     1    1
    17     8    12    1
    18     8     7   ar
    19     4    26    1
    20     6     7   ar
    21     6     1    1
    22    12    13    1
    23    16    14   ar
    24    14    13    1
    25    14    15   ar
    26     7     2    2
    27     1    25    1
    28     1    33    1
    29    26    25   ar
    30    26    27   ar
    31    30    27    1
    32    25    29   ar
    33     2    37    1
    34    27    28   ar
    35    33    37    2
    36    33    34    1
    37    37    36    1
    38    29    28   ar
    39    29     5    1
    40    28    31    1
    41    34     5    2
    42    34    35    1
    43    36    35    2
    44    36    39    1
    45    31    32    1
    46    40    39    1
    47    40    41    1
    48    35    38    1
    49    41    43   ar
    50    41    42   ar
