@<TRIPOS>MOLECULE
1crj_HEM_A_1.pdb
 43 50 0 0 0
SMALL
GASTEIGER

@<TRIPOS>ATOM
      1 FE          2.8820   21.0460   13.1500 Fe    104  HEM104      0.0000
      2  CHA        5.2790   18.7660   14.2270 C.2   104  HEM104      0.0000
      3  CHB        4.0430   20.8000   10.0120 C.2   104  HEM104      0.0000
      4  CHC        0.1920   22.9070   12.0430 C.2   104  HEM104      0.0000
      5  CHD        2.0990   21.7810   16.3750 C.2   104  HEM104      0.0000
      6  NA         4.3810   20.0310   12.2790 N.ar  104  HEM104      0.0000
      7  C1A        5.2590   19.0910   12.8760 C.ar  104  HEM104      0.0000
      8  C2A        5.9600   18.3930   11.8330 C.ar  104  HEM104      0.0000
      9  C3A        5.6440   18.9430   10.6480 C.ar  104  HEM104      0.0000
     10  C4A        4.6660   19.9620   10.8830 C.ar  104  HEM104      0.0000
     11  CMA        6.1910   18.4990    9.2510 C.3   104  HEM104      0.0000
     12  CAA        6.9900   17.2640   12.1730 C.3   104  HEM104      0.0000
     13  CBA        8.3450   18.0460   12.5400 C.3   104  HEM104      0.0000
     14  CGA        9.6150   17.2410   12.5890 C.2   104  HEM104      0.0000
     15  O1A       10.6550   17.7420   13.0100 O.co2 104  HEM104      0.0000
     16  O2A        9.5420   16.0630   12.1670 O.co2 104  HEM104      0.0000
     17  NB         2.1760   21.7040   11.3550 N.2   104  HEM104      0.0000
     18  C1B        2.9350   21.5880   10.2010 C.2   104  HEM104      0.0000
     19  C2B        2.1910   22.2970    9.1450 C.2   104  HEM104      0.0000
     20  C3B        1.1390   22.8920    9.7100 C.2   104  HEM104      0.0000
     21  C4B        1.1640   22.5650   11.1060 C.2   104  HEM104      0.0000
     22  CMB        2.7190   22.3550    7.7070 C.3   104  HEM104      0.0000
     23  CAB        0.0360   23.7530    9.0520 C.3   104  HEM104      0.0000
     24  CBB       -0.8600   22.9730    8.0410 C.3   104  HEM104      0.0000
     25  NC         1.4380   22.1060   14.0710 N.ar  104  HEM104      0.0000
     26  C1C        0.4330   22.8740   13.4410 C.ar  104  HEM104      0.0000
     27  C2C       -0.3460   23.5810   14.4090 C.ar  104  HEM104      0.0000
     28  C3C        0.1700   23.2820   15.6060 C.ar  104  HEM104      0.0000
     29  C4C        1.3080   22.3790   15.3950 C.ar  104  HEM104      0.0000
     30  CMC       -1.5650   24.5030   14.0910 C.3   104  HEM104      0.0000
     31  CAC       -0.2140   23.9020   16.9670 C.3   104  HEM104      0.0000
     32  CBC       -1.6550   24.0140   17.4680 C.3   104  HEM104      0.0000
     33  ND         3.5530   20.3720   14.9750 N.2   104  HEM104      0.0000
     34  C1D        3.0550   20.8000   16.2080 C.2   104  HEM104      0.0000
     35  C2D        3.7670   20.0750   17.2210 C.2   104  HEM104      0.0000
     36  C3D        4.6890   19.3030   16.6220 C.2   104  HEM104      0.0000
     37  C4D        4.4770   19.3950   15.1810 C.2   104  HEM104      0.0000
     38  CMD        3.5330   20.2120   18.7600 C.3   104  HEM104      0.0000
     39  CAD        5.6240   18.2520   17.2400 C.3   104  HEM104      0.0000
     40  CBD        4.7940   16.9980   17.5060 C.3   104  HEM104      0.0000
     41  CGD        5.3870   15.9300   18.3300 C.2   104  HEM104      0.0000
     42  O1D        6.4870   16.1390   18.9370 O.co2 104  HEM104      0.0000
     43  O2D        4.6660   14.8930   18.3020 O.co2 104  HEM104      0.0000
@<TRIPOS>BOND
     1    22    19    1
     2    24    23    1
     3    23    20    1
     4    19    20    2
     5    19    18    1
     6    11     9    1
     7    20    21    1
     8     3    18    1
     9     3    10    2
    10    18    17    2
    11     9    10   ar
    12     9     8   ar
    13    10     6   ar
    14    21    17    1
    15    21     4    2
    16    17     1    1
    17     8    12    1
    18     8     7   ar
    19     4    26    1
    20    16    14   ar
    21    12    13    1
    22     6     7   ar
    23     6     1    1
    24    13    14    1
    25    14    15   ar
    26     7     2    2
    27     1    25    1
    28     1    33    1
    29    26    25   ar
    30    26    27   ar
    31    25    29   ar
    32    30    27    1
    33     2    37    1
    34    27    28   ar
    35    33    37    2
    36    33    34    1
    37    37    36    1
    38    29    28   ar
    39    29     5    1
    40    28    31    1
    41    34     5    2
    42    34    35    1
    43    36    35    2
    44    36    39    1
    45    31    32    1
    46    35    38    1
    47    39    40    1
    48    40    41    1
    49    43    41   ar
    50    41    42   ar
