@<TRIPOS>MOLECULE
1crp_GDP_A_1.pdb
 40 42 0 0 0
SMALL
GASTEIGER

@<TRIPOS>ATOM
      1  PB        62.5970   77.2260   47.7860 P.3   200  GDP200      0.5373
      2  O1B       63.7030   77.0060   46.8290 O.2   200  GDP200     -0.2221
      3  O2B       61.8400   76.0060   48.1420 O.3   200  GDP200     -0.1143
      4  O3B       61.7510   78.4000   47.4740 O.3   200  GDP200     -0.1143
      5  O3A       63.3390   77.6360   49.1570 O.3   200  GDP200     -0.2261
      6  PA        63.3970   76.5980   50.3900 P.3   200  GDP200      0.2224
      7  O1A       64.4780   77.0290   51.3040 O.3   200  GDP200     -0.4370
      8  O2A       63.4020   75.2240   49.8420 O.2   200  GDP200     -0.5170
      9  O5'       61.9860   76.8450   51.1270 O.3   200  GDP200     -0.3245
     10  C5'       61.6050   78.1600   51.5410 C.3   200  GDP200      0.0836
     11  C4'       61.3860   78.2520   53.0520 C.3   200  GDP200      0.1131
     12  O4'       60.0320   77.8930   53.3950 O.3   200  GDP200     -0.3474
     13  C3'       62.3300   77.3240   53.8060 C.3   200  GDP200      0.1133
     14  O3'       63.2130   78.0740   54.6460 O.3   200  GDP200     -0.3864
     15  C2'       61.4590   76.4090   54.6310 C.3   200  GDP200      0.1266
     16  O2'       61.7900   76.5040   56.0190 O.3   200  GDP200     -0.3849
     17  C1'       60.0220   76.8440   54.3850 C.3   200  GDP200      0.1617
     18  N9        59.2010   75.7060   53.9320 N.pl3 200  GDP200     -0.2241
     19  C8        59.2560   75.0010   52.7860 C.2   200  GDP200      0.1451
     20  N7        58.4370   74.0350   52.5860 N.2   200  GDP200     -0.3865
     21  C5        57.7000   74.0770   53.7790 C.2   200  GDP200      0.2296
     22  C6        56.6190   73.2620   54.2110 C.2   200  GDP200      0.2859
     23  O6        56.0840   72.3310   53.6180 O.2   200  GDP200     -0.2668
     24  N1        56.1680   73.6380   55.4690 N.am  200  GDP200     -0.2418
     25  C2        56.6830   74.6690   56.2280 C.2   200  GDP200      0.2395
     26  N2        56.1020   74.8700   57.4100 N.pl3 200  GDP200     -0.3206
     27  N3        57.7010   75.4450   55.8350 N.2   200  GDP200     -0.3551
     28  C4        58.1630   75.1010   54.6100 C.2   200  GDP200      0.2272
     29  H5'       60.6800   78.4350   51.0340 H     200  GDP200      0.0591
     30 H5''       62.3880   78.8620   51.2530 H     200  GDP200      0.0591
     31  H4'       61.5700   79.2770   53.3730 H     200  GDP200      0.0647
     32  H3'       62.9100   76.7330   53.0970 H     200  GDP200      0.0647
     33 HO3'       63.7140   78.6640   54.0790 H     200  GDP200      0.2100
     34  H2'       61.5890   75.3800   54.2890 H     200  GDP200      0.0663
     35 HO2'       62.6410   76.0770   56.1400 H     200  GDP200      0.2101
     36  H1'       59.6050   77.2340   55.3120 H     200  GDP200      0.0841
     37  H8        59.9970   75.2510   52.0280 H     200  GDP200      0.1149
     38  HN1       55.4270   73.1140   55.8320 H     200  GDP200      0.1589
     39 HN21       55.2590   74.3650   57.6530 H     200  GDP200      0.1459
     40 HN22       56.5040   75.5260   58.0660 H     200  GDP200      0.1459
@<TRIPOS>BOND
     1     2     1    2
     2     4     1    1
     3     1     3    1
     4     1     5    1
     5     5     6    1
     6     8     6    2
     7     6     9    1
     8     6     7    1
     9    29    10    1
    10     9    10    1
    11    30    10    1
    12    10    11    1
    13    37    19    1
    14    20    19    2
    15    20    21    2
    16    19    18    1
    17    11    31    1
    18    11    12    1
    19    11    13    1
    20    32    13    1
    21    12    17    1
    22    23    22    2
    23    21    22    1
    24    21    28    1
    25    13    15    1
    26    13    14    1
    27    18    17    1
    28    18    28    1
    29    33    14    1
    30    22    24   am
    31    34    15    1
    32    17    15    1
    33    17    36    1
    34    28    27    2
    35    15    16    1
    36    24    38    1
    37    24    25    1
    38    27    25    2
    39    16    35    1
    40    25    26    1
    41    26    39    1
    42    26    40    1
