@<TRIPOS>MOLECULE
1crq_GDP_A_1.pdb
 40 42 0 0 0
SMALL
GASTEIGER

@<TRIPOS>ATOM
      1  PB        63.2650   76.9260   48.6190 P.3   200  GDP200      0.5373
      2  O1B       64.5490   76.2710   48.2820 O.3   200  GDP200     -0.1143
      3  O2B       62.0980   76.0190   48.6150 O.3   200  GDP200     -0.1143
      4  O3B       63.0380   78.2160   47.9290 O.2   200  GDP200     -0.2221
      5  O3A       63.4330   77.3360   50.1680 O.3   200  GDP200     -0.2261
      6  PA        63.4320   76.1990   51.3070 P.3   200  GDP200      0.2224
      7  O1A       64.7970   76.1090   51.8730 O.3   200  GDP200     -0.4370
      8  O2A       62.7830   74.9900   50.7530 O.2   200  GDP200     -0.5170
      9  O5'       62.4620   76.8260   52.4290 O.3   200  GDP200     -0.3245
     10  C5'       62.3240   78.2430   52.5570 C.3   200  GDP200      0.0836
     11  C4'       61.5540   78.6260   53.8190 C.3   200  GDP200      0.1131
     12  O4'       60.1570   78.2980   53.6830 O.3   200  GDP200     -0.3474
     13  C3'       62.1010   77.8890   55.0320 C.3   200  GDP200      0.1133
     14  O3'       62.6670   78.8070   55.9740 O.3   200  GDP200     -0.3864
     15  C2'       60.9370   77.1480   55.6410 C.3   200  GDP200      0.1266
     16  O2'       60.7170   77.5650   56.9920 O.3   200  GDP200     -0.3849
     17  C1'       59.7270   77.4590   54.7740 C.3   200  GDP200      0.1617
     18  N9        59.1160   76.2160   54.2670 N.pl3 200  GDP200     -0.2241
     19  C8        59.3820   75.5080   53.1530 C.2   200  GDP200      0.1451
     20  N7        58.7230   74.4380   52.8980 N.2   200  GDP200     -0.3865
     21  C5        57.8670   74.3990   54.0090 C.2   200  GDP200      0.2296
     22  C6        56.8630   73.4540   54.3510 C.2   200  GDP200      0.2859
     23  O6        56.5230   72.4460   53.7350 O.2   200  GDP200     -0.2668
     24  N1        56.2370   73.7840   55.5460 N.am  200  GDP200     -0.2418
     25  C2        56.5330   74.8870   56.3240 C.2   200  GDP200      0.2395
     26  N2        55.8160   75.0290   57.4390 N.pl3 200  GDP200     -0.3206
     27  N3        57.4760   75.7840   56.0130 N.2   200  GDP200     -0.3551
     28  C4        58.1020   75.4860   54.8520 C.2   200  GDP200      0.2272
     29  H5'       61.7930   78.6280   51.6870 H     200  GDP200      0.0591
     30 H5''       63.3160   78.6940   52.5960 H     200  GDP200      0.0591
     31  H4'       61.6510   79.6990   53.9810 H     200  GDP200      0.0647
     32  H3'       62.8600   77.1720   54.7130 H     200  GDP200      0.0647
     33 HO3'       62.5120   78.4480   56.8510 H     200  GDP200      0.2100
     34  H2'       61.1370   76.0750   55.6120 H     200  GDP200      0.0663
     35 HO2'       60.9510   76.8270   57.5600 H     200  GDP200      0.2101
     36  H1'       58.9910   77.9970   55.3690 H     200  GDP200      0.0841
     37  H8        60.1590   75.8460   52.4670 H     200  GDP200      0.1149
     38  HN1       55.5310   73.1730   55.8440 H     200  GDP200      0.1589
     39 HN21       55.1030   74.3510   57.6710 H     200  GDP200      0.1459
     40 HN22       55.9850   75.8150   58.0510 H     200  GDP200      0.1459
@<TRIPOS>BOND
     1     4     1    2
     2     2     1    1
     3     3     1    1
     4     1     5    1
     5     5     6    1
     6     8     6    2
     7     6     7    1
     8     6     9    1
     9    29    10    1
    10     9    10    1
    11    37    19    1
    12    10    30    1
    13    10    11    1
    14    20    19    2
    15    20    21    2
    16    19    18    1
    17    12    11    1
    18    12    17    1
    19    23    22    2
    20    11    31    1
    21    11    13    1
    22    21    22    1
    23    21    28    1
    24    18    17    1
    25    18    28    1
    26    22    24   am
    27    32    13    1
    28    17    36    1
    29    17    15    1
    30    28    27    2
    31    13    15    1
    32    13    14    1
    33    24    38    1
    34    24    25    1
    35    34    15    1
    36    15    16    1
    37    14    33    1
    38    27    25    2
    39    25    26    1
    40    16    35    1
    41    26    39    1
    42    26    40    1
