@<TRIPOS>MOLECULE
1crr_GDP_A_1.pdb
 40 42 0 0 0
SMALL
GASTEIGER

@<TRIPOS>ATOM
      1  PB        62.7300   76.8450   49.1510 P.3   200  GDP200      0.5373
      2  O1B       64.0790   77.2500   48.6950 O.3   200  GDP200     -0.1143
      3  O2B       62.2630   75.5450   48.6450 O.2   200  GDP200     -0.2221
      4  O3B       61.7300   77.9290   49.0750 O.3   200  GDP200     -0.1143
      5  O3A       62.9070   76.6080   50.7390 O.3   200  GDP200     -0.2261
      6  PA        64.2420   75.9150   51.3180 P.3   200  GDP200      0.2224
      7  O1A       65.4060   76.4870   50.6050 O.2   200  GDP200     -0.5170
      8  O2A       64.0300   74.4480   51.3260 O.3   200  GDP200     -0.4370
      9  O5'       64.2880   76.4370   52.8400 O.3   200  GDP200     -0.3245
     10  C5'       63.2500   76.0950   53.7600 C.3   200  GDP200      0.0836
     11  C4'       62.4810   77.3280   54.2190 C.3   200  GDP200      0.1131
     12  O4'       61.2650   77.4690   53.4610 O.3   200  GDP200     -0.3474
     13  C3'       62.1080   77.2120   55.6900 C.3   200  GDP200      0.1133
     14  O3'       62.5720   78.3480   56.4260 O.3   200  GDP200     -0.3864
     15  C2'       60.6030   77.1180   55.7360 C.3   200  GDP200      0.1266
     16  O2'       60.0460   78.2010   56.4860 O.3   200  GDP200     -0.3849
     17  C1'       60.1320   77.1590   54.2920 C.3   200  GDP200      0.1617
     18  N9        59.5550   75.8610   53.9050 N.pl3 200  GDP200     -0.2241
     19  C8        59.9220   75.0040   52.9340 C.2   200  GDP200      0.1451
     20  N7        59.2930   73.8980   52.7820 N.2   200  GDP200     -0.3865
     21  C5        58.3430   74.0080   53.8080 C.2   200  GDP200      0.2296
     22  C6        57.3190   73.1080   54.1980 C.2   200  GDP200      0.2859
     23  O6        57.0400   72.0190   53.7120 O.2   200  GDP200     -0.2668
     24  N1        56.5900   73.5990   55.2720 N.am  200  GDP200     -0.2418
     25  C2        56.8130   74.8060   55.9010 C.2   200  GDP200      0.2395
     26  N2        56.0010   75.0970   56.9140 N.pl3 200  GDP200     -0.3206
     27  N3        57.7730   75.6640   55.5440 N.2   200  GDP200     -0.3551
     28  C4        58.4990   75.2090   54.5000 C.2   200  GDP200      0.2272
     29  H5'       63.6920   75.6070   54.6290 H     200  GDP200      0.0591
     30 H5''       62.5590   75.4030   53.2760 H     200  GDP200      0.0591
     31  H4'       63.0980   78.2140   54.0720 H     200  GDP200      0.0647
     32  H3'       62.5400   76.2990   56.1060 H     200  GDP200      0.0647
     33 HO3'       63.5050   78.2110   56.6050 H     200  GDP200      0.2100
     34  H2'       60.3140   76.1670   56.1860 H     200  GDP200      0.0663
     35 HO2'       60.3200   78.0870   57.3990 H     200  GDP200      0.2101
     36  H1'       59.3750   77.9330   54.1790 H     200  GDP200      0.0841
     37  H8        60.7580   75.2480   52.2800 H     200  GDP200      0.1149
     38  HN1       55.8670   73.0240   55.5960 H     200  GDP200      0.1589
     39 HN21       56.0340   74.5490   57.7610 H     200  GDP200      0.1459
     40 HN22       55.3500   75.8640   56.8340 H     200  GDP200      0.1459
@<TRIPOS>BOND
     1     3     1    2
     2     2     1    1
     3     4     1    1
     4     1     5    1
     5     7     6    2
     6     5     6    1
     7     6     8    1
     8     6     9    1
     9    37    19    1
    10    20    19    2
    11    20    21    2
    12     9    10    1
    13    19    18    1
    14    30    10    1
    15    12    11    1
    16    12    17    1
    17    23    22    2
    18    10    11    1
    19    10    29    1
    20    21    22    1
    21    21    28    1
    22    18    17    1
    23    18    28    1
    24    31    11    1
    25    36    17    1
    26    22    24   am
    27    11    13    1
    28    17    15    1
    29    28    27    2
    30    24    38    1
    31    24    25    1
    32    27    25    2
    33    13    15    1
    34    13    32    1
    35    13    14    1
    36    15    34    1
    37    15    16    1
    38    25    26    1
    39    14    33    1
    40    16    35    1
    41    40    26    1
    42    26    39    1
