@<TRIPOS>MOLECULE
1cru_PQQ_A_1.pdb
 24 26 0 0 0
SMALL
GASTEIGER

@<TRIPOS>ATOM
      1  N1        17.4690   51.2140   66.5660 N.2   1905  PQQ1905    -0.3954
      2  C2        16.8620   50.0380   66.2410 C.2   1905  PQQ1905     0.2105
      3  C2X       17.3250   49.3900   65.0860 C.2   1905  PQQ1905     0.4168
      4  O2A       18.0050   50.0790   64.3080 O.co2 1905  PQQ1905    -0.2377
      5  O2B       17.0510   48.2220   64.9020 O.co2 1905  PQQ1905    -0.2377
      6  C3        15.8830   49.7240   67.1510 C.2   1905  PQQ1905     0.0397
      7  C3A       15.9040   50.7020   68.0940 C.2   1905  PQQ1905     0.0431
      8  C1A       16.8520   51.6230   67.7260 C.2   1905  PQQ1905     0.1323
      9  C4        15.2010   50.8460   69.2740 C.3   1905  PQQ1905     0.2138
     10  O4        14.3810   49.8750   69.8040 O.3   1905  PQQ1905    -0.2150
     11  C5        15.1890   52.1260   70.0140 C.3   1905  PQQ1905     0.2378
     12  O5        14.9920   51.9500   71.3660 O.3   1905  PQQ1905    -0.2123
     13  C6A       16.4490   52.9060   69.7270 C.2   1905  PQQ1905     0.1443
     14  N6        16.6170   53.8330   70.7010 N.2   1905  PQQ1905    -0.4008
     15  C7        17.5300   54.7520   70.4660 C.2   1905  PQQ1905     0.1924
     16  C7X       17.7990   55.6340   71.5430 C.2   1905  PQQ1905     0.4130
     17  O7A       17.2280   55.5030   72.6680 O.co2 1905  PQQ1905    -0.2380
     18  O7B       18.6680   56.5350   71.4430 O.co2 1905  PQQ1905    -0.2380
     19  C8        18.3340   54.7160   69.3330 C.3   1905  PQQ1905     0.0991
     20  C9        18.1440   53.7200   68.3460 C.2   1905  PQQ1905     0.0695
     21  C9X       19.0260   53.7740   67.2340 C.2   1905  PQQ1905     0.3844
     22  O9A       19.9720   54.5820   67.2460 O.co2 1905  PQQ1905    -0.2409
     23  O9B       18.8810   53.0960   66.2630 O.co2 1905  PQQ1905    -0.2409
     24  C9A       17.1940   52.7490   68.5440 C.2   1905  PQQ1905     0.0601
@<TRIPOS>BOND
     1     4     3   ar
     2     5     3   ar
     3     3     2    1
     4     2     1    2
     5     2     6    1
     6    23    21   ar
     7     1     8    2
     8     6     7    2
     9    21    22   ar
    10    21    20    1
    11     8     7    1
    12     8    24    1
    13     7     9    1
    14    20    24    2
    15    20    19    1
    16    24    13    1
    17     9    10    1
    18     9    11    1
    19    19    15    1
    20    13    11    1
    21    13    14    2
    22    11    12    1
    23    15    14    2
    24    15    16    1
    25    18    16   ar
    26    16    17   ar
