@<TRIPOS>MOLECULE
1cry_HEM_A_1.pdb
 43 50 0 0 0
SMALL
GASTEIGER

@<TRIPOS>ATOM
      1 FE         20.7300  -19.1460   13.8910 Fe    108  HEM108      0.0000
      2  CHA       23.2540  -21.3700   14.3100 C.2   108  HEM108      0.0000
      3  CHB       22.8680  -16.5910   14.5870 C.2   108  HEM108      0.0000
      4  CHC       18.3440  -16.8790   12.9040 C.2   108  HEM108      0.0000
      5  CHD       18.5070  -21.6990   13.5810 C.2   108  HEM108      0.0000
      6  NA        22.6800  -18.9980   14.3770 N.2   108  HEM108      0.0000
      7  C1A       23.5870  -20.0370   14.4640 C.2   108  HEM108      0.0000
      8  C2A       24.9020  -19.5150   14.7170 C.2   108  HEM108      0.0000
      9  C3A       24.8010  -18.1850   14.7990 C.2   108  HEM108      0.0000
     10  C4A       23.4160  -17.8480   14.5850 C.2   108  HEM108      0.0000
     11  CMA       25.9270  -17.1580   15.0830 C.3   108  HEM108      0.0000
     12  CAA       26.1610  -20.4040   14.9440 C.3   108  HEM108      0.0000
     13  CBA       26.5210  -20.3900   16.4520 C.3   108  HEM108      0.0000
     14  CGA       27.7120  -21.1690   16.9080 C.2   108  HEM108      0.0000
     15  O1A       28.5040  -21.5190   15.9870 O.co2 108  HEM108      0.0000
     16  O2A       27.8150  -21.4080   18.1530 O.co2 108  HEM108      0.0000
     17  NB        20.6470  -17.1430   13.6620 N.ar  108  HEM108      0.0000
     18  C1B       21.5850  -16.2660   14.1940 C.ar  108  HEM108      0.0000
     19  C2B       21.0200  -14.9410   14.2580 C.ar  108  HEM108      0.0000
     20  C3B       19.7840  -15.0150   13.7700 C.ar  108  HEM108      0.0000
     21  C4B       19.5270  -16.3830   13.3920 C.ar  108  HEM108      0.0000
     22  CMB       21.8080  -13.7230   14.7900 C.3   108  HEM108      0.0000
     23  CAB       18.7760  -13.8260   13.6140 C.3   108  HEM108      0.0000
     24  CBB       18.9800  -13.0860   12.4770 C.3   108  HEM108      0.0000
     25  NC        18.8050  -19.2600   13.3750 N.2   108  HEM108      0.0000
     26  C1C       17.9820  -18.2100   13.0310 C.2   108  HEM108      0.0000
     27  C2C       16.6630  -18.7420   12.7460 C.2   108  HEM108      0.0000
     28  C3C       16.7150  -20.0640   12.8990 C.2   108  HEM108      0.0000
     29  C4C       18.0460  -20.4180   13.3140 C.2   108  HEM108      0.0000
     30  CMC       15.4560  -17.8820   12.2900 C.3   108  HEM108      0.0000
     31  CAC       15.5360  -21.0850   12.7240 C.2   108  HEM108      0.0000
     32  CBC       15.2730  -21.4660   11.4430 C.2   108  HEM108      0.0000
     33  ND        20.8430  -21.1600   13.9800 N.ar  108  HEM108      0.0000
     34  C1D       19.8260  -22.0790   13.7350 C.ar  108  HEM108      0.0000
     35  C2D       20.3910  -23.4070   13.6680 C.ar  108  HEM108      0.0000
     36  C3D       21.7070  -23.3120   13.8750 C.ar  108  HEM108      0.0000
     37  C4D       22.0020  -21.9100   14.0650 C.ar  108  HEM108      0.0000
     38  CMD       19.5730  -24.6870   13.4070 C.3   108  HEM108      0.0000
     39  CAD       22.7960  -24.4060   13.9310 C.2   108  HEM108      0.0000
     40  CBD       23.6750  -24.6400   12.7070 C.2   108  HEM108      0.0000
     41  CGD       24.4360  -25.9390   12.5840 C.2   108  HEM108      0.0000
     42  O1D       24.7660  -26.2770   11.4200 O.co2 108  HEM108      0.0000
     43  O2D       24.6890  -26.5800   13.6380 O.co2 108  HEM108      0.0000
@<TRIPOS>BOND
     1    42    41   ar
     2    32    31    2
     3    30    27    1
     4    24    23    1
     5    41    40    1
     6    41    43   ar
     7    40    39    2
     8    31    28    1
     9    27    28    2
    10    27    26    1
    11    28    29    1
    12     4    26    2
    13     4    21    1
    14    26    25    1
    15    29    25    2
    16    29     5    1
    17    25     1    1
    18    21    17   ar
    19    21    20   ar
    20    38    35    1
    21     5    34    2
    22    23    20    1
    23    17     1    1
    24    17    18   ar
    25    35    34   ar
    26    35    36   ar
    27    34    33   ar
    28    20    19   ar
    29    36    39    1
    30    36    37   ar
    31     1    33    1
    32     1     6    1
    33    33    37   ar
    34    37     2    2
    35    18    19   ar
    36    18     3    1
    37    19    22    1
    38     2     7    1
    39     6     7    2
    40     6    10    1
    41     7     8    1
    42    10     3    2
    43    10     9    1
    44     8     9    2
    45     8    12    1
    46     9    11    1
    47    12    13    1
    48    15    14   ar
    49    13    14    1
    50    14    16   ar
