@<TRIPOS>MOLECULE
1cs0_ADP_A_1.pdb
 27 29 0 0 0
SMALL
GASTEIGER

@<TRIPOS>ATOM
      1  PB        18.0780   29.1110   70.6950 P.3   5000  ADP5000     0.5373
      2  O1B       19.1530   30.1540   70.8530 O.3   5000  ADP5000    -0.1143
      3  O2B       18.2540   28.3230   69.4590 O.2   5000  ADP5000    -0.2221
      4  O3B       17.9840   28.2120   71.9260 O.3   5000  ADP5000    -0.1143
      5  PA        16.1180   31.1190   71.2730 P.3   5000  ADP5000     0.2231
      6  O1A       17.1670   31.8660   72.0410 O.2   5000  ADP5000    -0.5169
      7  O2A       14.9520   30.8840   72.1150 O.3   5000  ADP5000    -0.4370
      8  O3A       16.6180   29.8060   70.6340 O.3   5000  ADP5000    -0.2261
      9  O5'       15.6420   31.9490   69.9930 O.3   5000  ADP5000    -0.3111
     10  C5'       16.6100   32.4840   69.0520 C.3   5000  ADP5000     0.1813
     11  C4'       16.4200   33.9700   68.7300 C.3   5000  ADP5000     0.1821
     12  O4'       15.1340   34.1790   68.0880 O.3   5000  ADP5000    -0.3135
     13  C3'       16.4270   34.9610   69.8890 C.3   5000  ADP5000     0.2184
     14  O3'       17.8160   35.2070   70.3370 O.3   5000  ADP5000    -0.2174
     15  C2'       15.6660   36.1170   69.2270 C.3   5000  ADP5000     0.2570
     16  O2'       16.4320   37.0120   68.3510 O.3   5000  ADP5000    -0.2130
     17  C1'       14.6590   35.4260   68.3440 C.3   5000  ADP5000     0.3186
     18  N9        13.3130   35.3100   68.8940 N.pl3 5000  ADP5000    -0.1439
     19  C8        12.8110   34.4590   69.8350 C.3   5000  ADP5000     0.3377
     20  N7        11.4830   34.6040   70.0010 N.2   5000  ADP5000    -0.2095
     21  C5        11.1440   35.6490   69.1750 C.2   5000  ADP5000     0.2526
     22  C6         9.8990   36.2680   68.9490 C.2   5000  ADP5000     0.4393
     23  N6         8.7750   35.8940   69.6040 N.pl3 5000  ADP5000     0.2180
     24  N1         9.9400   37.2980   68.0390 N.2   5000  ADP5000     0.0021
     25  C2        11.1270   37.6490   67.4360 C.3   5000  ADP5000     0.5254
     26  N3        12.3100   37.1090   67.5860 N.2   5000  ADP5000    -0.0055
     27  C4        12.2570   36.1040   68.4850 C.2   5000  ADP5000     0.3518
@<TRIPOS>BOND
     1    25    26    1
     2    25    24    1
     3    26    27    2
     4    24    22    2
     5    12    17    1
     6    12    11    1
     7    17    18    1
     8    17    15    1
     9    16    15    1
    10    27    18    1
    11    27    21    1
    12    11    10    1
    13    11    13    1
    14    18    19    1
    15    22    21    1
    16    22    23    1
    17    10     9    1
    18    21    20    2
    19    15    13    1
    20     3     1    2
    21    19    20    1
    22    13    14    1
    23     9     5    1
    24     8     1    1
    25     8     5    1
    26     1     2    1
    27     1     4    1
    28     5     6    2
    29     5     7    1
