@<TRIPOS>MOLECULE
1cs1_DHD_D_1.pdb
 11 10 0 0 0
SMALL
GASTEIGER

@<TRIPOS>ATOM
      1  C1        82.0920    1.9990   -1.4410 C.2   1501  DHD1501     0.4223
      2  C2        80.9730    2.5860   -0.7110 C.2   1501  DHD1501     0.2600
      3  C3        79.8600    1.6960   -0.1820 C.3   1501  DHD1501     0.1523
      4  C4        78.8250    2.5500    0.5340 C.2   1501  DHD1501     0.2600
      5  C5        77.6510    1.9230    1.1340 C.2   1501  DHD1501     0.4223
      6  O11       82.9860    2.7130   -1.8660 O.co2 1501  DHD1501    -0.2373
      7  O12       82.1440    0.5170   -1.6700 O.co2 1501  DHD1501    -0.2373
      8  O51       76.8210    2.6090    1.7090 O.co2 1501  DHD1501    -0.2373
      9  O52       77.4650    0.4380    1.0430 O.co2 1501  DHD1501    -0.2373
     10  O4        78.9770    3.7580    0.6070 O.2   1501  DHD1501    -0.2838
     11  O2        80.9310    3.7910   -0.5250 O.2   1501  DHD1501    -0.2838
@<TRIPOS>BOND
     1     6     1   ar
     2     7     1   ar
     3     1     2    1
     4     2    11    2
     5     2     3    1
     6     3     4    1
     7     4    10    2
     8     4     5    1
     9     9     5   ar
    10     5     8   ar
