@<TRIPOS>MOLECULE
1cs4_GSP_C_1.pdb
 32 34 0 0 0
SMALL
GASTEIGER

@<TRIPOS>ATOM
      1  PG        23.6520    3.0860   28.9510 P.3   1000  GSP1000     0.4340
      2  O3B       22.5080    3.2160   27.9690 O.3   1000  GSP1000    -0.2405
      3  S1G       25.0380    4.3940   28.7440 S.3   1000  GSP1000     0.0416
      4  O2G       23.1110    3.2860   30.3250 O.3   1000  GSP1000    -0.1305
      5  O3G       24.3870    1.8320   28.6470 O.2   1000  GSP1000    -0.2423
      6  PB        21.1380    2.6220   27.7910 P.3   1000  GSP1000     0.2262
      7  O1B       21.2480    1.4720   26.8590 O.2   1000  GSP1000    -0.5168
      8  O2B       20.5520    2.4010   29.1310 O.3   1000  GSP1000    -0.4369
      9  PA        19.0760    4.4120   27.4200 P.3   1000  GSP1000     0.2189
     10  O1A       18.0400    3.4060   27.7510 O.2   1000  GSP1000    -0.5170
     11  O2A       19.3820    5.4990   28.3770 O.3   1000  GSP1000    -0.4371
     12  O3A       20.3490    3.6940   27.1020 O.3   1000  GSP1000    -0.2701
     13  O5'       18.6630    5.0930   26.0400 O.3   1000  GSP1000    -0.3112
     14  C5'       19.3570    6.2370   25.5520 C.3   1000  GSP1000     0.1813
     15  C4'       18.3820    7.2820   25.0600 C.3   1000  GSP1000     0.1799
     16  O4'       17.7250    6.8480   23.8440 O.3   1000  GSP1000    -0.3326
     17  C3'       17.2650    7.6470   26.0350 C.3   1000  GSP1000     0.2158
     18  O3'       17.0790    9.0580   26.0120 O.3   1000  GSP1000    -0.2175
     19  C2'       16.0510    6.9410   25.4550 C.3   1000  GSP1000     0.2310
     20  O2'       14.8240    7.5880   25.7100 O.3   1000  GSP1000    -0.2158
     21  C1'       16.3170    6.9660   23.9690 C.3   1000  GSP1000     0.2293
     22  N9        15.7070    5.8290   23.2880 N.pl3 1000  GSP1000    -0.2354
     23  C8        15.8110    4.5170   23.6700 C.3   1000  GSP1000     0.2246
     24  N7        15.1580    3.7010   22.8900 N.2   1000  GSP1000    -0.2322
     25  C5        14.5890    4.5230   21.9260 C.2   1000  GSP1000     0.2182
     26  C6        13.7830    4.1950   20.8210 C.1   1000  GSP1000     0.2372
     27  O6        13.4020    3.0870   20.4560 O.2   1000  GSP1000    -0.2069
     28  N1        13.4140    5.3160   20.1060 N.2   1000  GSP1000    -0.2485
     29  C2        13.7700    6.5990   20.4130 C.1   1000  GSP1000     0.2531
     30  N2        13.2840    7.5530   19.5910 N.pl3 1000  GSP1000    -0.0226
     31  N3        14.5370    6.9280   21.4480 N.2   1000  GSP1000    -0.3074
     32  C4        14.9100    5.8410   22.1580 C.2   1000  GSP1000     0.2300
@<TRIPOS>BOND
     1    30    29    1
     2    28    29    2
     3    28    26    2
     4    29    31    2
     5    27    26    2
     6    26    25    1
     7    31    32    2
     8    25    32    1
     9    25    24    2
    10    32    22    1
    11    24    23    1
    12    22    23    1
    13    22    21    1
    14    16    21    1
    15    16    15    1
    16    21    19    1
    17    15    14    1
    18    15    17    1
    19    19    20    1
    20    19    17    1
    21    14    13    1
    22    18    17    1
    23    13     9    1
    24     7     6    2
    25    12     9    1
    26    12     6    1
    27     9    10    2
    28     9    11    1
    29     6     2    1
    30     6     8    1
    31     2     1    1
    32     5     1    2
    33     3     1    1
    34     1     4    1
