@<TRIPOS>MOLECULE
1cs4_FOK_A_1.pdb
 29 31 0 0 0
SMALL
GASTEIGER

@<TRIPOS>ATOM
      1  C1        42.4040  -12.8140   52.5700 C.3   1002  FOK1002     0.1547
      2  O2        42.1460  -13.9050   51.6520 O.3   1002  FOK1002    -0.2231
      3  C2        43.3450  -13.3460   53.6460 C.3   1002  FOK1002     0.0330
      4  C3        44.7220  -13.7040   53.1280 C.3   1002  FOK1002     0.0027
      5  C4        45.4310  -12.4800   52.4690 C.3   1002  FOK1002     0.0027
      6  C5        44.4690  -11.9380   51.3610 C.3   1002  FOK1002     0.0393
      7  C6        45.0980  -10.8660   50.4320 C.3   1002  FOK1002     0.1943
      8  O3        45.4790   -9.6920   51.1370 O.3   1002  FOK1002    -0.2192
      9  C7        44.1720  -10.5450   49.2460 C.3   1002  FOK1002     0.2260
     10  O4        44.7050   -9.4180   48.4850 O.3   1002  FOK1002    -0.4470
     11  C8        42.7360  -10.1410   49.6170 C.3   1002  FOK1002     0.1639
     12  O1        42.0380  -10.1490   48.3610 O.3   1002  FOK1002    -0.3524
     13  C9        42.2000  -11.3090   50.4890 C.3   1002  FOK1002     0.2051
     14  O6        42.2750  -12.4550   49.5930 O.3   1002  FOK1002    -0.2155
     15  C10       43.0080  -11.6010   51.8110 C.3   1002  FOK1002     0.0652
     16  C11       40.6800  -11.0780   50.6160 C.2   1002  FOK1002     0.1831
     17  O7        40.1060  -10.9450   51.6880 O.2   1002  FOK1002    -0.2933
     18  C12       39.9430  -11.0460   49.3010 C.3   1002  FOK1002     0.0985
     19  C13       40.5950  -10.0850   48.2920 C.3   1002  FOK1002     0.1183
     20  C14       40.2760  -10.6200   46.9300 C.2   1002  FOK1002     0.0006
     21  C15       39.9710  -11.7510   46.5900 C.2   1002  FOK1002    -0.0025
     22  C16       40.0470   -8.6850   48.4260 C.3   1002  FOK1002     0.0346
     23  C17       42.6710   -8.7370   50.2530 C.3   1002  FOK1002     0.0365
     24  C18       46.7320  -13.0260   51.8270 C.3   1002  FOK1002     0.0001
     25  C19       45.8590  -11.4830   53.5860 C.3   1002  FOK1002     0.0001
     26  C20       42.9130  -10.4260   52.8070 C.3   1002  FOK1002     0.0056
     27  C21       45.8830   -9.5530   47.8210 C.2   1002  FOK1002     0.3176
     28  O5        46.1570  -10.5200   47.1660 O.2   1002  FOK1002    -0.2501
     29  C22       46.7690   -8.3150   48.0060 C.3   1002  FOK1002     0.1212
@<TRIPOS>BOND
     1    21    20    2
     2    20    19    1
     3    28    27    2
     4    27    29    1
     5    27    10    1
     6    19    12    1
     7    19    22    1
     8    19    18    1
     9    12    11    1
    10    10     9    1
    11     9    11    1
    12     9     7    1
    13    18    16    1
    14    14    13    1
    15    11    23    1
    16    11    13    1
    17     7     8    1
    18     7     6    1
    19    13    16    1
    20    13    15    1
    21    16    17    2
    22     6    15    1
    23     6     5    1
    24     2     1    1
    25    15     1    1
    26    15    26    1
    27    24     5    1
    28     5     4    1
    29     5    25    1
    30     1     3    1
    31     4     3    1
