@<TRIPOS>MOLECULE
1cs4_101_B_1.pdb
 22 24 0 0 0
SMALL
GASTEIGER

@<TRIPOS>ATOM
      1  P         55.0230  -10.3820   55.2600 P.3   1082  1011082     0.5326
      2  O1P       56.1060   -9.9600   56.1760 O.3   1082  1011082    -0.1145
      3  O2P       53.9310   -9.4260   54.9360 O.2   1082  1011082    -0.2224
      4  O3P       54.4020  -11.6150   55.8160 O.3   1082  1011082    -0.1145
      5  O5'       59.6900  -12.0660   53.7340 O.3   1082  1011082    -0.2176
      6  C5'       59.1170  -11.2540   52.7170 C.3   1082  1011082     0.2141
      7  C4'       57.6490  -11.5790   52.5600 C.3   1082  1011082     0.1797
      8  O4'       57.5110  -12.8680   51.9040 O.3   1082  1011082    -0.3155
      9  C3'       56.8800  -11.6740   53.8850 C.3   1082  1011082     0.1627
     10  O3'       55.6680  -10.9000   53.8670 O.3   1082  1011082    -0.2699
     11  C2'       56.5750  -13.1570   54.0180 C.3   1082  1011082     0.1124
     12  C1'       56.5270  -13.6310   52.5750 C.3   1082  1011082     0.2873
     13  N9        56.8470  -15.0550   52.4180 N.pl3 1082  1011082    -0.1460
     14  C8        58.0410  -15.6930   52.6570 C.3   1082  1011082     0.3377
     15  N7        57.9750  -16.9980   52.5360 N.2   1082  1011082    -0.2095
     16  C5        56.6560  -17.2320   52.1740 C.2   1082  1011082     0.2526
     17  C6        55.9370  -18.4210   51.9360 C.2   1082  1011082     0.4393
     18  N6        56.4710  -19.6380   52.0430 N.pl3 1082  1011082     0.2180
     19  N1        54.6330  -18.3100   51.5810 N.2   1082  1011082     0.0021
     20  C2        54.0990  -17.0880   51.4920 C.3   1082  1011082     0.5254
     21  N3        54.6710  -15.8980   51.7090 N.2   1082  1011082    -0.0055
     22  C4        55.9610  -16.0440   52.0600 C.2   1082  1011082     0.3518
@<TRIPOS>BOND
     1    20    19    1
     2    20    21    1
     3    19    17    2
     4    21    22    2
     5     8     7    1
     6     8    12    1
     7    17    18    1
     8    17    16    1
     9    22    16    1
    10    22    13    1
    11    16    15    2
    12    13    12    1
    13    13    14    1
    14    15    14    1
    15     7     6    1
    16     7     9    1
    17    12    11    1
    18     6     5    1
    19    10     9    1
    20    10     1    1
    21     9    11    1
    22     3     1    2
    23     1     4    1
    24     1     2    1
