@<TRIPOS>MOLECULE
1csb_EP0_A_1.pdb
 26 26 0 0 0
SMALL
GASTEIGER

@<TRIPOS>ATOM
      1  O1        18.9620  -10.4790   35.5070 O.2    48  EP048      -0.2473
      2  C1        20.1670  -10.1510   35.5300 C.2    48  EP048       0.3482
      3  C2        20.6700   -8.8600   36.2090 C.3    48  EP048       0.2587
      4  O2        19.9320   -8.6310   37.4280 O.3    48  EP048      -0.2105
      5  C3        20.4930   -7.6330   35.2280 C.3    48  EP048       0.1312
      6  C4        20.7870   -6.2940   35.9270 C.2    48  EP048       0.2449
      7  O4        20.0710   -5.3280   35.7050 O.2    48  EP048      -0.2732
      8  C5        21.2490  -12.3150   34.9510 C.3    48  EP048       0.2086
      9  C6        21.4040  -12.8360   33.5230 C.3    48  EP048       0.0513
     10  O5        21.2040  -10.8710   34.9440 O.3    48  EP048      -0.4468
     11  N         21.8430   -6.2450   36.7420 N.am   48  EP048      -0.1978
     12  CA        22.2190   -5.0620   37.5400 C.3    48  EP048       0.1712
     13  C         22.4300   -3.6620   36.9120 C.2    48  EP048       0.2458
     14  O         22.9870   -3.5340   35.8180 O.2    48  EP048      -0.2730
     15  CB        23.4840   -5.3590   38.4270 C.3    48  EP048       0.0289
     16  CG1       24.7310   -5.5290   37.5400 C.3    48  EP048       0.0022
     17  CG2       23.2550   -6.6070   39.3070 C.3    48  EP048       0.0023
     18  CD1       26.0240   -5.6140   38.3250 C.3    48  EP048       0.0001
     19  N2        21.9280   -2.6040   37.5900 N.am   48  EP048      -0.2699
     20  CA1       22.0320   -1.1910   37.1860 C.3    48  EP048       0.1791
     21  C7        23.3450   -0.5910   37.7590 C.2    48  EP048       0.3825
     22  O3        24.0120   -1.2680   38.5770 O.co2  48  EP048      -0.2438
     23  CB1       20.8180   -0.5420   37.8690 C.3    48  EP048       0.0332
     24  CG3       19.8860   -1.7000   38.1690 C.3    48  EP048       0.0238
     25  CD3       20.8680   -2.7560   38.6070 C.3    48  EP048       0.0940
     26  OXT       23.6900    0.5670   37.4370 O.co2  48  EP048      -0.2438
@<TRIPOS>BOND
     1     9     8    1
     2    10     8    1
     3    10     2    1
     4     5     6    1
     5     5     3    1
     6     1     2    2
     7     2     3    1
     8     7     6    2
     9    14    13    2
    10     6    11   am
    11     3     4    1
    12    11    12    1
    13    13    12    1
    14    13    19   am
    15    20    19    1
    16    20    21    1
    17    20    23    1
    18    26    21   ar
    19    16    18    1
    20    16    15    1
    21    12    15    1
    22    19    25    1
    23    21    22   ar
    24    23    24    1
    25    24    25    1
    26    15    17    1
