@<TRIPOS>MOLECULE
1csm_TRP_A_1.pdb
 19 20 0 0 0
SMALL
GASTEIGER

@<TRIPOS>ATOM
      1  N          4.2750   44.8230   20.3720 N.4   502  TRP502      0.3891
      2  CA         4.0930   46.2970   20.6320 C.3   502  TRP502      0.0448
      3  C          2.6150   46.6520   20.8080 C.2   502  TRP502      0.3451
      4  O          2.2830   47.7290   21.3590 O.co2 502  TRP502     -0.2480
      5  CB         4.6710   47.1020   19.4750 C.3   502  TRP502      0.0171
      6  CG         4.0340   46.8050   18.1380 C.ar  502  TRP502     -0.0054
      7  CD1        4.3730   45.8080   17.2650 C.ar  502  TRP502      0.0680
      8  CD2        2.9970   47.5590   17.5030 C.ar  502  TRP502      0.0130
      9  NE1        3.6100   45.9030   16.1200 N.ar  502  TRP502     -0.3523
     10  CE2        2.7640   46.9740   16.2420 C.ar  502  TRP502      0.0563
     11  CE3        2.2450   48.6790   17.8780 C.ar  502  TRP502      0.0012
     12  CZ2        1.8180   47.4680   15.3560 C.ar  502  TRP502      0.0170
     13  CZ3        1.3050   49.1660   16.9920 C.ar  502  TRP502      0.0001
     14  CH2        1.1010   48.5610   15.7470 C.ar  502  TRP502      0.0015
     15  OXT        1.7920   45.8400   20.3490 O.co2 502  TRP502     -0.2480
     16  H1         3.6620   44.5240   19.5910 H     502  TRP502     -0.0885
     17  H2         5.2610   44.5450   20.1870 H     502  TRP502     -0.0885
     18  H3         3.9230   44.3520   21.2320 H     502  TRP502     -0.0885
     19  HE1        3.6620   45.2870   15.3440 H     502  TRP502      0.1660
@<TRIPOS>BOND
     1    19     9    1
     2    12    14   ar
     3    12    10   ar
     4    14    13   ar
     5     9    10   ar
     6     9     7   ar
     7    10     8   ar
     8    13    11   ar
     9     7     6   ar
    10     8    11   ar
    11     8     6   ar
    12     6     5    1
    13     5     2    1
    14    16     1    1
    15    17     1    1
    16    15     3   ar
    17     1     2    1
    18     1    18    1
    19     2     3    1
    20     3     4   ar
