@<TRIPOS>MOLECULE
1csn_ATP_A_1.pdb
 31 33 0 0 0
SMALL
GASTEIGER

@<TRIPOS>ATOM
      1  PG       -20.3880   44.1110   54.6140 P.3   299  ATP299      0.5373
      2  O1G      -19.2750   45.0130   54.1870 O.3   299  ATP299     -0.1143
      3  O2G      -20.3790   43.5790   55.9850 O.3   299  ATP299     -0.1143
      4  O3G      -20.7910   43.2250   53.4930 O.2   299  ATP299     -0.2221
      5  PB       -22.7300   45.7160   55.6090 P.3   299  ATP299      0.2277
      6  O1B      -23.5850   44.6010   56.1210 O.2   299  ATP299     -0.5168
      7  O2B      -22.1050   46.6390   56.5730 O.3   299  ATP299     -0.4368
      8  O3B      -21.6170   45.1630   54.5230 O.3   299  ATP299     -0.2258
      9  PA       -22.8280   47.8220   53.7620 P.3   299  ATP299      0.2189
     10  O1A      -23.0320   49.0100   54.5910 O.3   299  ATP299     -0.4371
     11  O2A      -21.4370   47.5110   53.2660 O.2   299  ATP299     -0.5170
     12  O3A      -23.4690   46.5450   54.4450 O.3   299  ATP299     -0.2700
     13  O5'      -23.6300   47.8870   52.4100 O.3   299  ATP299     -0.3112
     14  C5'      -23.7120   46.8170   51.4930 C.3   299  ATP299      0.1813
     15  C4'      -23.9750   47.2950   50.0600 C.3   299  ATP299      0.1821
     16  O4'      -25.1220   48.1490   49.8950 O.3   299  ATP299     -0.3135
     17  C3'      -22.8690   48.2060   49.6650 C.3   299  ATP299      0.2184
     18  O3'      -21.7000   47.4020   49.4310 O.3   299  ATP299     -0.2174
     19  C2'      -23.4730   48.8330   48.4140 C.3   299  ATP299      0.2570
     20  O2'      -23.6280   47.8320   47.4100 O.3   299  ATP299     -0.2130
     21  C1'      -24.8590   49.2000   48.9370 C.3   299  ATP299      0.3186
     22  N9       -24.9390   50.5210   49.6590 N.pl3 299  ATP299     -0.1439
     23  C8       -24.6050   50.8170   50.9640 C.3   299  ATP299      0.3377
     24  N7       -24.8540   52.0370   51.3330 N.2   299  ATP299     -0.2095
     25  C5       -25.3910   52.6080   50.2030 C.2   299  ATP299      0.2526
     26  C6       -25.8480   53.8880   49.9560 C.2   299  ATP299      0.4393
     27  N6       -25.6900   54.8480   50.8650 N.pl3 299  ATP299      0.2180
     28  N1       -26.3360   54.1370   48.7220 N.2   299  ATP299      0.0021
     29  C2       -26.3520   53.1860   47.7990 C.3   299  ATP299      0.5254
     30  N3       -25.9260   51.9510   47.9350 N.2   299  ATP299     -0.0055
     31  C4       -25.4540   51.7160   49.1730 C.2   299  ATP299      0.3518
@<TRIPOS>BOND
     1    20    19    1
     2    29    30    1
     3    29    28    1
     4    30    31    2
     5    19    21    1
     6    19    17    1
     7    28    26    2
     8    21    22    1
     9    21    16    1
    10    31    22    1
    11    31    25    1
    12    18    17    1
    13    22    23    1
    14    17    15    1
    15    16    15    1
    16    26    25    1
    17    26    27    1
    18    15    14    1
    19    25    24    2
    20    23    24    1
    21    14    13    1
    22    13     9    1
    23    11     9    2
    24     4     1    2
    25     9    12    1
    26     9    10    1
    27     2     1    1
    28    12     5    1
    29     8     1    1
    30     8     5    1
    31     1     3    1
    32     5     6    2
    33     5     7    1
