@<TRIPOS>MOLECULE
1csu_HEM_A_1.pdb
 43 50 0 0 0
SMALL
GASTEIGER

@<TRIPOS>ATOM
      1 FE          2.8010   20.9790   13.1260 Fe    104  HEM104      0.0000
      2  CHA        5.0400   18.6360   14.1920 C.2   104  HEM104      0.0000
      3  CHB        3.9860   20.7530    9.9710 C.2   104  HEM104      0.0000
      4  CHC        0.1470   22.8460   12.0680 C.2   104  HEM104      0.0000
      5  CHD        2.0640   21.7490   16.3680 C.2   104  HEM104      0.0000
      6  NA         4.2550   19.9110   12.2630 N.ar  104  HEM104      0.0000
      7  C1A        5.0390   18.9110   12.8170 C.ar  104  HEM104      0.0000
      8  C2A        5.7810   18.2330   11.7800 C.ar  104  HEM104      0.0000
      9  C3A        5.5230   18.8450   10.6370 C.ar  104  HEM104      0.0000
     10  C4A        4.5350   19.8820   10.8840 C.ar  104  HEM104      0.0000
     11  CMA        6.0460   18.4900    9.2200 C.3   104  HEM104      0.0000
     12  CAA        6.7960   17.0790   12.0370 C.3   104  HEM104      0.0000
     13  CBA        8.2150   17.7500   12.1130 C.3   104  HEM104      0.0000
     14  CGA        9.4070   16.8840   12.4050 C.2   104  HEM104      0.0000
     15  O1A       10.4190   17.5530   12.6570 O.co2 104  HEM104      0.0000
     16  O2A        9.3400   15.6460   12.3670 O.co2 104  HEM104      0.0000
     17  NB         2.1450   21.6310   11.3440 N.2   104  HEM104      0.0000
     18  C1B        2.8640   21.5370   10.1710 C.2   104  HEM104      0.0000
     19  C2B        2.1150   22.2660    9.1510 C.2   104  HEM104      0.0000
     20  C3B        1.0690   22.8590    9.7290 C.2   104  HEM104      0.0000
     21  C4B        1.0880   22.4640   11.1360 C.2   104  HEM104      0.0000
     22  CMB        2.6260   22.3880    7.6810 C.3   104  HEM104      0.0000
     23  CAB       -0.0270   23.7150    9.0750 C.3   104  HEM104      0.0000
     24  CBB       -1.0080   22.9270    8.1430 C.3   104  HEM104      0.0000
     25  NC         1.3680   22.0610   14.0350 N.ar  104  HEM104      0.0000
     26  C1C        0.3930   22.8200   13.4540 C.ar  104  HEM104      0.0000
     27  C2C       -0.3540   23.5670   14.4220 C.ar  104  HEM104      0.0000
     28  C3C        0.1640   23.2290   15.6400 C.ar  104  HEM104      0.0000
     29  C4C        1.2690   22.3220   15.4030 C.ar  104  HEM104      0.0000
     30  CMC       -1.5230   24.5040   14.0960 C.3   104  HEM104      0.0000
     31  CAC       -0.2390   23.8360   16.9850 C.3   104  HEM104      0.0000
     32  CBC       -1.7810   23.9150   17.2630 C.3   104  HEM104      0.0000
     33  ND         3.4370   20.3290   14.9690 N.2   104  HEM104      0.0000
     34  C1D        3.0040   20.7890   16.1940 C.2   104  HEM104      0.0000
     35  C2D        3.7010   20.0510   17.2110 C.2   104  HEM104      0.0000
     36  C3D        4.5730   19.2310   16.6000 C.2   104  HEM104      0.0000
     37  C4D        4.3480   19.3280   15.1600 C.2   104  HEM104      0.0000
     38  CMD        3.5170   20.2290   18.7500 C.3   104  HEM104      0.0000
     39  CAD        5.5230   18.1790   17.2110 C.3   104  HEM104      0.0000
     40  CBD        4.7880   16.8420   17.3100 C.3   104  HEM104      0.0000
     41  CGD        5.3210   15.7890   18.2500 C.2   104  HEM104      0.0000
     42  O1D        6.4620   15.9000   18.7300 O.co2 104  HEM104      0.0000
     43  O2D        4.4920   14.8620   18.3930 O.co2 104  HEM104      0.0000
@<TRIPOS>BOND
     1    22    19    1
     2    24    23    1
     3    23    20    1
     4    19    20    2
     5    19    18    1
     6    11     9    1
     7    20    21    1
     8     3    18    1
     9     3    10    2
    10    18    17    2
    11     9    10   ar
    12     9     8   ar
    13    10     6   ar
    14    21    17    1
    15    21     4    2
    16    17     1    1
    17     8    12    1
    18     8     7   ar
    19    12    13    1
    20     4    26    1
    21    13    14    1
    22     6     7   ar
    23     6     1    1
    24    16    14   ar
    25    14    15   ar
    26     7     2    2
    27     1    25    1
    28     1    33    1
    29    26    25   ar
    30    26    27   ar
    31    25    29   ar
    32    30    27    1
    33     2    37    1
    34    27    28   ar
    35    33    37    2
    36    33    34    1
    37    37    36    1
    38    29    28   ar
    39    29     5    1
    40    28    31    1
    41    34     5    2
    42    34    35    1
    43    36    35    2
    44    36    39    1
    45    31    32    1
    46    35    38    1
    47    39    40    1
    48    40    41    1
    49    41    43   ar
    50    41    42   ar
