@<TRIPOS>MOLECULE
1csv_HEM_A_1.pdb
 43 50 0 0 0
SMALL
GASTEIGER

@<TRIPOS>ATOM
      1 FE          2.5700   21.0180   13.2800 Fe    104  HEM104      0.0000
      2  CHA        4.7870   18.6150   14.3790 C.2   104  HEM104      0.0000
      3  CHB        3.8280   20.6970   10.1350 C.2   104  HEM104      0.0000
      4  CHC       -0.0760   22.7890   12.0770 C.2   104  HEM104      0.0000
      5  CHD        1.6640   21.6440   16.4570 C.2   104  HEM104      0.0000
      6  NA         4.0220   19.9050   12.4570 N.ar  104  HEM104      0.0000
      7  C1A        4.8200   18.9130   13.0350 C.ar  104  HEM104      0.0000
      8  C2A        5.6400   18.2680   11.9850 C.ar  104  HEM104      0.0000
      9  C3A        5.3470   18.8900   10.8400 C.ar  104  HEM104      0.0000
     10  C4A        4.3160   19.8740   11.0860 C.ar  104  HEM104      0.0000
     11  CMA        5.8360   18.6930    9.3630 C.3   104  HEM104      0.0000
     12  CAA        6.6630   17.1440   12.2190 C.3   104  HEM104      0.0000
     13  CBA        8.0270   17.7470   12.6590 C.3   104  HEM104      0.0000
     14  CGA        9.2450   16.9180   12.5710 C.2   104  HEM104      0.0000
     15  O1A       10.3520   17.4760   12.8010 O.co2 104  HEM104      0.0000
     16  O2A        9.1320   15.6370   12.3950 O.co2 104  HEM104      0.0000
     17  NB         1.9390   21.5770   11.4470 N.2   104  HEM104      0.0000
     18  C1B        2.7120   21.4830   10.3290 C.2   104  HEM104      0.0000
     19  C2B        2.0250   22.2230    9.2230 C.2   104  HEM104      0.0000
     20  C3B        0.9690   22.7830    9.7580 C.2   104  HEM104      0.0000
     21  C4B        0.8830   22.3650   11.1580 C.2   104  HEM104      0.0000
     22  CMB        2.6680   22.2440    7.8030 C.3   104  HEM104      0.0000
     23  CAB       -0.1380   23.6220    9.1640 C.3   104  HEM104      0.0000
     24  CBB       -1.3290   22.7840    8.6770 C.3   104  HEM104      0.0000
     25  NC         1.0640   21.9940   14.1160 N.ar  104  HEM104      0.0000
     26  C1C        0.1280   22.7790   13.4630 C.ar  104  HEM104      0.0000
     27  C2C       -0.5120   23.6290   14.4220 C.ar  104  HEM104      0.0000
     28  C3C       -0.0600   23.2810   15.6430 C.ar  104  HEM104      0.0000
     29  C4C        0.9510   22.2680   15.4600 C.ar  104  HEM104      0.0000
     30  CMC       -1.6160   24.6500   14.0660 C.3   104  HEM104      0.0000
     31  CAC       -0.4330   23.8880   17.0030 C.3   104  HEM104      0.0000
     32  CBC       -1.8890   23.8140   17.4550 C.3   104  HEM104      0.0000
     33  ND         3.1180   20.2740   15.1030 N.2   104  HEM104      0.0000
     34  C1D        2.6050   20.6810   16.3050 C.2   104  HEM104      0.0000
     35  C2D        3.2730   19.9300   17.3740 C.2   104  HEM104      0.0000
     36  C3D        4.1450   19.1270   16.7950 C.2   104  HEM104      0.0000
     37  C4D        4.0620   19.3220   15.3290 C.2   104  HEM104      0.0000
     38  CMD        2.9910   20.0680   18.8940 C.3   104  HEM104      0.0000
     39  CAD        5.0790   18.0700   17.4350 C.3   104  HEM104      0.0000
     40  CBD        4.4850   16.6710   17.5810 C.3   104  HEM104      0.0000
     41  CGD        5.1040   15.7770   18.6110 C.2   104  HEM104      0.0000
     42  O1D        6.2240   16.1120   19.0980 O.co2 104  HEM104      0.0000
     43  O2D        4.4260   14.7650   18.8990 O.co2 104  HEM104      0.0000
@<TRIPOS>BOND
     1    22    19    1
     2    24    23    1
     3    23    20    1
     4    19    20    2
     5    19    18    1
     6    11     9    1
     7    20    21    1
     8     3    18    1
     9     3    10    2
    10    18    17    2
    11     9    10   ar
    12     9     8   ar
    13    10     6   ar
    14    21    17    1
    15    21     4    2
    16    17     1    1
    17     8    12    1
    18     8     7   ar
    19     4    26    1
    20    12    13    1
    21    16    14   ar
    22     6     7   ar
    23     6     1    1
    24    14    13    1
    25    14    15   ar
    26     7     2    2
    27     1    25    1
    28     1    33    1
    29    26    25   ar
    30    26    27   ar
    31    30    27    1
    32    25    29   ar
    33     2    37    1
    34    27    28   ar
    35    33    37    2
    36    33    34    1
    37    37    36    1
    38    29    28   ar
    39    29     5    1
    40    28    31    1
    41    34     5    2
    42    34    35    1
    43    36    35    2
    44    36    39    1
    45    31    32    1
    46    35    38    1
    47    39    40    1
    48    40    41    1
    49    41    43   ar
    50    41    42   ar
