@<TRIPOS>MOLECULE
1csw_HEM_A_1.pdb
 43 50 0 0 0
SMALL
GASTEIGER

@<TRIPOS>ATOM
      1 FE          2.8290   20.9200   13.1950 Fe    104  HEM104      0.0000
      2  CHA        4.9820   18.5310   14.2310 C.2   104  HEM104      0.0000
      3  CHB        3.9850   20.6710   10.0370 C.2   104  HEM104      0.0000
      4  CHC        0.1710   22.7710   12.0820 C.2   104  HEM104      0.0000
      5  CHD        2.0550   21.6680   16.4120 C.2   104  HEM104      0.0000
      6  NA         4.2560   19.8540   12.3210 N.ar  104  HEM104      0.0000
      7  C1A        4.9880   18.8230   12.8940 C.ar  104  HEM104      0.0000
      8  C2A        5.7260   18.1380   11.8350 C.ar  104  HEM104      0.0000
      9  C3A        5.4930   18.7780   10.6860 C.ar  104  HEM104      0.0000
     10  C4A        4.5360   19.7980   10.9190 C.ar  104  HEM104      0.0000
     11  CMA        6.0750   18.3690    9.2760 C.3   104  HEM104      0.0000
     12  CAA        6.7560   17.0220   12.1160 C.3   104  HEM104      0.0000
     13  CBA        8.1560   17.7230   12.2920 C.3   104  HEM104      0.0000
     14  CGA        9.3400   16.8310   12.4870 C.2   104  HEM104      0.0000
     15  O1A       10.3830   17.5030   12.6280 O.co2 104  HEM104      0.0000
     16  O2A        9.3140   15.5720   12.4530 O.co2 104  HEM104      0.0000
     17  NB         2.1400   21.5280   11.3850 N.2   104  HEM104      0.0000
     18  C1B        2.8990   21.4790   10.2460 C.2   104  HEM104      0.0000
     19  C2B        2.1780   22.2220    9.1920 C.2   104  HEM104      0.0000
     20  C3B        1.1160   22.7900    9.7380 C.2   104  HEM104      0.0000
     21  C4B        1.1380   22.4070   11.1700 C.2   104  HEM104      0.0000
     22  CMB        2.6870   22.3370    7.7210 C.3   104  HEM104      0.0000
     23  CAB        0.0310   23.6880    9.1510 C.3   104  HEM104      0.0000
     24  CBB       -1.0710   23.0490    8.2060 C.3   104  HEM104      0.0000
     25  NC         1.3940   21.9940   14.0880 N.ar  104  HEM104      0.0000
     26  C1C        0.4130   22.7650   13.4620 C.ar  104  HEM104      0.0000
     27  C2C       -0.3490   23.4580   14.4180 C.ar  104  HEM104      0.0000
     28  C3C        0.1680   23.1650   15.6210 C.ar  104  HEM104      0.0000
     29  C4C        1.2720   22.2400   15.4160 C.ar  104  HEM104      0.0000
     30  CMC       -1.5350   24.4140   14.0950 C.3   104  HEM104      0.0000
     31  CAC       -0.2410   23.7440   16.9860 C.3   104  HEM104      0.0000
     32  CBC       -1.7770   23.7670   17.2640 C.3   104  HEM104      0.0000
     33  ND         3.4050   20.2000   15.0160 N.2   104  HEM104      0.0000
     34  C1D        3.0100   20.6850   16.2400 C.2   104  HEM104      0.0000
     35  C2D        3.7350   19.9840   17.2760 C.2   104  HEM104      0.0000
     36  C3D        4.5900   19.1500   16.6610 C.2   104  HEM104      0.0000
     37  C4D        4.3320   19.2290   15.2300 C.2   104  HEM104      0.0000
     38  CMD        3.6160   20.2010   18.8220 C.3   104  HEM104      0.0000
     39  CAD        5.5600   18.1570   17.3400 C.3   104  HEM104      0.0000
     40  CBD        4.8760   16.8010   17.4350 C.3   104  HEM104      0.0000
     41  CGD        5.3440   15.7590   18.3480 C.2   104  HEM104      0.0000
     42  O1D        6.4500   15.9450   18.9210 O.co2 104  HEM104      0.0000
     43  O2D        4.5770   14.7400   18.4160 O.co2 104  HEM104      0.0000
@<TRIPOS>BOND
     1    22    19    1
     2    24    23    1
     3    23    20    1
     4    19    20    2
     5    19    18    1
     6    11     9    1
     7    20    21    1
     8     3    18    1
     9     3    10    2
    10    18    17    2
    11     9    10   ar
    12     9     8   ar
    13    10     6   ar
    14    21    17    1
    15    21     4    2
    16    17     1    1
    17     8    12    1
    18     8     7   ar
    19     4    26    1
    20    12    13    1
    21    13    14    1
    22     6     7   ar
    23     6     1    1
    24    16    14   ar
    25    14    15   ar
    26     7     2    2
    27     1    25    1
    28     1    33    1
    29    26    25   ar
    30    26    27   ar
    31    25    29   ar
    32    30    27    1
    33     2    37    1
    34    27    28   ar
    35    33    37    2
    36    33    34    1
    37    37    36    1
    38    29    28   ar
    39    29     5    1
    40    28    31    1
    41    34     5    2
    42    34    35    1
    43    36    35    2
    44    36    39    1
    45    31    32    1
    46    35    38    1
    47    39    40    1
    48    40    41    1
    49    41    43   ar
    50    41    42   ar
