@<TRIPOS>MOLECULE
1csx_HEM_A_1.pdb
 43 50 0 0 0
SMALL
GASTEIGER

@<TRIPOS>ATOM
      1 FE          2.8190   21.0420   13.1080 Fe    104  HEM104      0.0000
      2  CHA        5.0830   18.7740   14.1890 C.2   104  HEM104      0.0000
      3  CHB        3.9230   20.6730    9.9580 C.2   104  HEM104      0.0000
      4  CHC        0.0550   22.7670   11.9970 C.2   104  HEM104      0.0000
      5  CHD        2.1010   21.8690   16.3000 C.2   104  HEM104      0.0000
      6  NA         4.2780   19.9930   12.2480 N.ar  104  HEM104      0.0000
      7  C1A        5.0500   19.0240   12.8550 C.ar  104  HEM104      0.0000
      8  C2A        5.7660   18.2530   11.8410 C.ar  104  HEM104      0.0000
      9  C3A        5.4530   18.7650   10.6410 C.ar  104  HEM104      0.0000
     10  C4A        4.5530   19.8670   10.8490 C.ar  104  HEM104      0.0000
     11  CMA        6.0220   18.2690    9.2760 C.3   104  HEM104      0.0000
     12  CAA        6.7580   17.1400   12.2440 C.3   104  HEM104      0.0000
     13  CBA        8.1570   17.7310   12.6100 C.3   104  HEM104      0.0000
     14  CGA        9.3810   16.9030   12.4490 C.2   104  HEM104      0.0000
     15  O1A       10.4850   17.5420   12.5650 O.co2 104  HEM104      0.0000
     16  O2A        9.4520   15.6420   12.3230 O.co2 104  HEM104      0.0000
     17  NB         2.0730   21.5970   11.3000 N.2   104  HEM104      0.0000
     18  C1B        2.7820   21.4570   10.1200 C.2   104  HEM104      0.0000
     19  C2B        2.0770   22.2000    9.0740 C.2   104  HEM104      0.0000
     20  C3B        1.0110   22.7850    9.6470 C.2   104  HEM104      0.0000
     21  C4B        1.0120   22.4140   11.0650 C.2   104  HEM104      0.0000
     22  CMB        2.5980   22.3080    7.6160 C.3   104  HEM104      0.0000
     23  CAB       -0.0640   23.6680    9.0490 C.3   104  HEM104      0.0000
     24  CBB       -1.1880   23.0190    8.2170 C.3   104  HEM104      0.0000
     25  NC         1.3080   22.0340   13.9880 N.ar  104  HEM104      0.0000
     26  C1C        0.3160   22.7860   13.3540 C.ar  104  HEM104      0.0000
     27  C2C       -0.3660   23.5920   14.3400 C.ar  104  HEM104      0.0000
     28  C3C        0.1840   23.3230   15.5300 C.ar  104  HEM104      0.0000
     29  C4C        1.2570   22.3820   15.3220 C.ar  104  HEM104      0.0000
     30  CMC       -1.5550   24.5210   13.9930 C.3   104  HEM104      0.0000
     31  CAC       -0.1780   23.8960   16.9310 C.3   104  HEM104      0.0000
     32  CBC       -1.6950   23.8130   17.3380 C.3   104  HEM104      0.0000
     33  ND         3.4690   20.4350   14.9360 N.2   104  HEM104      0.0000
     34  C1D        3.0460   20.8840   16.1450 C.2   104  HEM104      0.0000
     35  C2D        3.6700   20.0760   17.1810 C.2   104  HEM104      0.0000
     36  C3D        4.5020   19.2000   16.5830 C.2   104  HEM104      0.0000
     37  C4D        4.3500   19.4120   15.1620 C.2   104  HEM104      0.0000
     38  CMD        3.4140   20.1940   18.7110 C.3   104  HEM104      0.0000
     39  CAD        5.4100   18.1250   17.2310 C.2   104  HEM104      0.0000
     40  CBD        4.7560   16.7340   17.4070 C.2   104  HEM104      0.0000
     41  CGD        5.3620   15.7270   18.2880 C.2   104  HEM104      0.0000
     42  O1D        6.4840   15.9900   18.8070 O.co2 104  HEM104      0.0000
     43  O2D        4.7460   14.6030   18.5000 O.co2 104  HEM104      0.0000
@<TRIPOS>BOND
     1    22    19    1
     2    24    23    1
     3    23    20    1
     4    19    20    2
     5    19    18    1
     6    11     9    1
     7    20    21    1
     8     3    18    1
     9     3    10    2
    10    18    17    2
    11     9    10   ar
    12     9     8   ar
    13    10     6   ar
    14    21    17    1
    15    21     4    2
    16    17     1    1
    17     8    12    1
    18     8     7   ar
    19     4    26    1
    20    12    13    1
    21     6     7   ar
    22     6     1    1
    23    16    14   ar
    24    14    15   ar
    25    14    13    1
    26     7     2    2
    27     1    25    1
    28     1    33    1
    29    26    25   ar
    30    26    27   ar
    31    25    29   ar
    32    30    27    1
    33     2    37    1
    34    27    28   ar
    35    33    37    2
    36    33    34    1
    37    37    36    1
    38    29    28   ar
    39    29     5    1
    40    28    31    1
    41    34     5    2
    42    34    35    1
    43    36    35    2
    44    36    39    1
    45    31    32    1
    46    35    38    1
    47    39    40    2
    48    40    41    1
    49    41    43   ar
    50    41    42   ar
