@<TRIPOS>MOLECULE
1ct1_SIA_F_1.pdb
 20 20 0 0 0
SMALL
GASTEIGER

@<TRIPOS>ATOM
      1  C1        -4.0630   32.4010   59.4280 C.2   108  SIA108      0.3914
      2  C2        -4.6830   32.8920   58.1170 C.3   108  SIA108      0.2203
      3  C3        -5.4790   34.1730   58.3710 C.3   108  SIA108      0.0760
      4  C4        -4.5060   35.2910   58.7180 C.3   108  SIA108      0.1773
      5  C5        -3.5390   35.5490   57.5380 C.3   108  SIA108      0.1552
      6  C6        -2.7430   34.2350   57.4000 C.3   108  SIA108      0.1710
      7  C7        -1.6450   34.2260   56.3250 C.3   108  SIA108      0.2134
      8  C8        -0.9060   32.8200   56.3570 C.3   108  SIA108      0.2173
      9  C9         0.2880   32.7980   55.3770 C.3   108  SIA108      0.2175
     10  C10       -2.0210   37.4630   57.0050 C.2   108  SIA108      0.2420
     11  C11       -1.2600   38.6400   57.6150 C.3   108  SIA108      0.0964
     12  N5        -2.7260   36.7230   57.8630 N.am  108  SIA108     -0.2020
     13  O1A       -3.1490   31.5490   59.3400 O.co2 108  SIA108     -0.2430
     14  O1B       -4.5020   32.8250   60.5270 O.co2 108  SIA108     -0.2430
     15  O4        -5.2330   36.4420   58.9970 O.3   108  SIA108     -0.2211
     16  O6        -3.6940   33.1660   57.0970 O.3   108  SIA108     -0.3429
     17  O7        -2.3500   34.4560   55.0850 O.3   108  SIA108     -0.2176
     18  O8        -0.4330   32.3470   57.6320 O.3   108  SIA108     -0.2175
     19  O9         0.8120   31.4810   55.1590 O.3   108  SIA108     -0.2175
     20  O10       -1.9580   37.2250   55.7950 O.2   108  SIA108     -0.2733
@<TRIPOS>BOND
     1    17     7    1
     2    19     9    1
     3     9     8    1
     4    20    10    2
     5     7     8    1
     6     7     6    1
     7     8    18    1
     8    10    11    1
     9    10    12   am
    10    16     6    1
    11    16     2    1
    12     6     5    1
    13     5    12    1
    14     5     4    1
    15     2     3    1
    16     2     1    1
    17     3     4    1
    18     4    15    1
    19    13     1   ar
    20     1    14   ar
