@<TRIPOS>MOLECULE
1ct1_GAL_F_1.pdb
 11 11 0 0 0
SMALL
GASTEIGER

@<TRIPOS>ATOM
      1  C1        -0.2780   27.7650   58.0450 C.3   104  GAL104      0.1777
      2  C2        -0.0930   26.3680   58.6950 C.3   104  GAL104      0.2141
      3  C3         1.0760   26.6320   59.7330 C.3   104  GAL104      0.2173
      4  C4         2.3500   27.2340   59.1230 C.3   104  GAL104      0.2142
      5  C5         1.9680   28.5340   58.3010 C.3   104  GAL104      0.1810
      6  C6         3.1090   29.2790   57.5090 C.3   104  GAL104      0.2141
      7  O2        -1.3660   25.9300   59.2620 O.3   104  GAL104     -0.2176
      8  O3         1.5000   25.4840   60.3920 O.3   104  GAL104     -0.2175
      9  O4         3.0200   26.2890   58.3260 O.3   104  GAL104     -0.2176
     10  O5         0.9330   28.1600   57.3920 O.3   104  GAL104     -0.3481
     11  O6         2.7240   30.6190   57.1680 O.3   104  GAL104     -0.2176
@<TRIPOS>BOND
     1    11     6    1
     2    10     1    1
     3    10     5    1
     4     6     5    1
     5     1     2    1
     6     5     4    1
     7     9     4    1
     8     2     7    1
     9     2     3    1
    10     4     3    1
    11     3     8    1
