@<TRIPOS>MOLECULE
1ct5_PLP_A_1.pdb
 15 15 0 0 0
SMALL
GASTEIGER

@<TRIPOS>ATOM
      1  N1        19.3150   25.3600   16.3410 N.ar  258  PLP258     -0.2452
      2  C2        20.3460   25.0370   17.1680 C.ar  258  PLP258      0.0978
      3  C2A       20.9770   26.0360   18.2010 C.3   258  PLP258      0.0555
      4  C3        20.8170   23.7010   17.1380 C.ar  258  PLP258      0.2049
      5  O3        21.8520   23.2990   17.9390 O.3   258  PLP258     -0.2857
      6  C4        20.2570   22.7890   16.2150 C.ar  258  PLP258      0.0182
      7  C4A       20.9250   21.3550   16.2200 C.3   258  PLP258      0.0342
      8  C5        19.2550   23.2010   15.3230 C.ar  258  PLP258      0.0261
      9  C6        18.7820   24.4690   15.3990 C.ar  258  PLP258      0.0965
     10  C5A       18.5680   22.1390   14.2970 C.3   258  PLP258      0.1815
     11  O4P       17.8160   21.1150   15.1120 O.3   258  PLP258     -0.2653
     12  P         16.7810   20.0750   14.2850 P.3   258  PLP258      0.5329
     13  O1P       16.0760   20.8600   13.2170 O.2   258  PLP258     -0.2224
     14  O2P       15.8430   19.4900   15.3440 O.3   258  PLP258     -0.1145
     15  O3P       17.7920   19.1150   13.7520 O.3   258  PLP258     -0.1145
@<TRIPOS>BOND
     1    13    12    2
     2    15    12    1
     3    12    11    1
     4    12    14    1
     5    10    11    1
     6    10     8    1
     7     8     9   ar
     8     8     6   ar
     9     9     1   ar
    10     6     7    1
    11     6     4   ar
    12     1     2   ar
    13     4     2   ar
    14     4     5    1
    15     2     3    1
