@<TRIPOS>MOLECULE
1ct8_TAA_B_1.pdb
 37 38 0 0 0
SMALL
GASTEIGER

@<TRIPOS>ATOM
      1  P1        47.0360   30.8320   30.4320 P.3   550  TAA550      0.3743
      2  O1        47.8070   32.0770   31.0240 O.3   550  TAA550     -0.2886
      3  O2        46.7680   29.8520   31.4750 O.3   550  TAA550     -0.1395
      4  O3        47.7230   30.3170   29.2320 O.2   550  TAA550     -0.2551
      5  C1        45.5930   31.6310   29.9990 C.3   550  TAA550      0.1444
      6  C2        44.6430   30.7380   29.3360 C.ar  550  TAA550     -0.0099
      7  C3        44.8640   30.4350   27.9880 C.ar  550  TAA550     -0.0023
      8  C7        43.5640   30.1810   30.0600 C.ar  550  TAA550     -0.0023
      9  C4        44.0170   29.5780   27.3410 C.ar  550  TAA550      0.0163
     10  C5        42.9330   29.0080   28.0190 C.ar  550  TAA550      0.0736
     11  C6        42.7040   29.3090   29.3950 C.ar  550  TAA550      0.0163
     12  N1        42.0410   28.1650   27.2010 N.am  550  TAA550     -0.1721
     13  C8        41.1580   27.3440   27.8130 C.2   550  TAA550      0.3409
     14  O4        40.9900   27.1870   29.0390 O.2   550  TAA550     -0.2638
     15  C9        40.2750   26.5620   26.8290 C.3   550  TAA550      0.4715
     16  F1        40.3190   27.1320   25.5360 F     550  TAA550     -0.1620
     17  F2        38.9550   26.6190   27.2900 F     550  TAA550     -0.1620
     18  F3        40.7640   25.2420   26.8320 F     550  TAA550     -0.1620
     19  C10       49.0920   31.9390   31.6530 C.3   550  TAA550      0.1686
     20  C11       49.8050   33.1140   31.1700 C.3   550  TAA550      0.1599
     21  C12       50.4270   32.8710   29.8130 C.3   550  TAA550      0.2064
     22  O5        51.1490   34.0070   29.4060 O.3   550  TAA550     -0.2184
     23  N2        49.1510   34.3900   31.3580 N.am  550  TAA550     -0.1995
     24  C13       49.7960   35.3790   32.0220 C.2   550  TAA550      0.2720
     25  O6        50.9470   35.2360   32.4920 O.2   550  TAA550     -0.2706
     26  C14       49.0740   36.6930   32.1550 C.3   550  TAA550      0.2356
     27 CL1        48.8810   36.9380   33.8750 Cl    550  TAA550     -0.0870
     28 CL2        50.1380   37.9610   31.4780 Cl    550  TAA550     -0.0870
     29  C15       49.0480   31.7900   33.1560 C.ar  550  TAA550      0.0069
     30  C16       49.8940   30.9220   33.7920 C.ar  550  TAA550     -0.0002
     31  C20       48.1080   32.5540   33.8380 C.ar  550  TAA550     -0.0002
     32  C17       49.8020   30.7960   35.1510 C.ar  550  TAA550      0.0238
     33  C18       48.8460   31.5560   35.8740 C.ar  550  TAA550      0.1429
     34  C19       47.9910   32.4560   35.1790 C.ar  550  TAA550      0.0238
     35  N3        48.6830   31.3810   37.3540 N.pl3 550  TAA550      0.0577
     36  O7        47.9580   32.2220   37.9760 O.2   550  TAA550     -0.1261
     37  O8        49.2520   30.4130   37.9380 O.2   550  TAA550     -0.1261
@<TRIPOS>BOND
     1    16    15    1
     2    15    18    1
     3    15    17    1
     4    15    13    1
     5    12    13   am
     6    12    10    1
     7     9     7   ar
     8     9    10   ar
     9    13    14    2
    10     7     6   ar
    11    10    11   ar
    12     4     1    2
    13     6     5    1
    14     6     8   ar
    15    11     8   ar
    16    22    21    1
    17    21    20    1
    18     5     1    1
    19     1     2    1
    20     1     3    1
    21     2    19    1
    22    20    23    1
    23    20    19    1
    24    23    24   am
    25    28    26    1
    26    19    29    1
    27    24    26    1
    28    24    25    2
    29    26    27    1
    30    29    30   ar
    31    29    31   ar
    32    30    32   ar
    33    31    34   ar
    34    32    33   ar
    35    34    33   ar
    36    33    35    1
    37    35    37    2
    38    35    36    2
