@<TRIPOS>MOLECULE
1ct9_GLN_A_1.pdb
 10 9 0 0 0
SMALL
GASTEIGER

@<TRIPOS>ATOM
      1  N          2.5580   63.7650  130.1170 N.3   1106  GLN1106    -0.1208
      2  CA         1.3150   64.1690  129.8990 C.3   1106  GLN1106     0.1948
      3  C          0.4200   63.0820  130.4270 C.2   1106  GLN1106     0.3819
      4  O         -0.8240   63.3080  130.4900 O.co2 1106  GLN1106    -0.2441
      5  CB         1.0400   64.2850  128.3840 C.3   1106  GLN1106     0.0403
      6  CG         1.5230   62.9950  127.6660 C.3   1106  GLN1106     0.0906
      7  CD         1.3050   63.0130  126.1590 C.2   1106  GLN1106     0.2608
      8  OE1        1.8850   63.8080  125.4190 O.2   1106  GLN1106    -0.2717
      9  NE2        0.4730   62.1010  125.6890 N.am  1106  GLN1106    -0.0878
     10  OXT        0.9070   61.9420  130.7700 O.co2 1106  GLN1106    -0.2441
@<TRIPOS>BOND
     1     8     7    2
     2     9     7   am
     3     7     6    1
     4     6     5    1
     5     5     2    1
     6     2     1    1
     7     2     3    1
     8     3     4   ar
     9     3    10   ar
