@<TRIPOS>MOLECULE
1ct9_AMP_A_1.pdb
 23 25 0 0 0
SMALL
GASTEIGER

@<TRIPOS>ATOM
      1  P         17.4790   53.4800  113.7340 P.3   1100  AMP1100     0.5327
      2  O1P       17.1250   52.7190  112.5070 O.2   1100  AMP1100    -0.2224
      3  O2P       16.9820   54.9770  113.6960 O.3   1100  AMP1100    -0.1145
      4  O3P       18.9300   53.3080  114.0800 O.3   1100  AMP1100    -0.1145
      5  O5'       16.5320   52.9910  114.9300 O.3   1100  AMP1100    -0.2675
      6  C5'       16.4160   53.7560  116.1480 C.3   1100  AMP1100     0.1860
      7  C4'       15.8810   52.9010  117.2840 C.3   1100  AMP1100     0.1823
      8  O4'       14.6570   52.1740  116.8930 O.3   1100  AMP1100    -0.3135
      9  C3'       16.7550   51.7620  117.7770 C.3   1100  AMP1100     0.2184
     10  O3'       18.1700   52.1150  118.1150 O.3   1100  AMP1100    -0.2174
     11  C2'       15.6980   51.0710  118.6700 C.3   1100  AMP1100     0.2570
     12  O2'       15.2470   51.6750  119.9640 O.3   1100  AMP1100    -0.2130
     13  C1'       14.4980   51.0320  117.7060 C.3   1100  AMP1100     0.3186
     14  N9        14.3910   49.8050  116.8670 N.pl3 1100  AMP1100    -0.1439
     15  C8        14.9260   49.6130  115.6230 C.3   1100  AMP1100     0.3377
     16  N7        14.7100   48.4020  115.0960 N.2   1100  AMP1100    -0.2095
     17  C5        13.9930   47.7490  116.0780 C.2   1100  AMP1100     0.2526
     18  C6        13.5080   46.4230  116.0940 C.2   1100  AMP1100     0.4393
     19  N6        13.6810   45.6090  115.0580 N.pl3 1100  AMP1100     0.2180
     20  N1        12.8400   46.0330  117.2110 N.2   1100  AMP1100     0.0021
     21  C2        12.6810   46.9620  118.2230 C.3   1100  AMP1100     0.5254
     22  N3        13.0860   48.2010  118.2950 N.2   1100  AMP1100    -0.0055
     23  C4        13.7520   48.5810  117.1710 C.2   1100  AMP1100     0.3518
@<TRIPOS>BOND
     1     2     1    2
     2     3     1    1
     3     1     4    1
     4     1     5    1
     5     5     6    1
     6    19    18    1
     7    16    15    1
     8    16    17    2
     9    15    14    1
    10    17    18    1
    11    17    23    1
    12    18    20    2
    13     6     7    1
    14    14    23    1
    15    14    13    1
    16     8     7    1
    17     8    13    1
    18    23    22    2
    19    20    21    1
    20     7     9    1
    21    13    11    1
    22     9    10    1
    23     9    11    1
    24    21    22    1
    25    11    12    1
