@<TRIPOS>MOLECULE
1ctj_HEM_A_1.pdb
 43 50 0 0 0
SMALL
GASTEIGER

@<TRIPOS>ATOM
      1 FE         13.2580   46.5860  -16.6830 Fe     91  HEM91       0.0000
      2  CHA       14.1120   48.1060  -13.7770 C.2    91  HEM91       0.0000
      3  CHB       12.3420   43.7960  -14.9830 C.2    91  HEM91       0.0000
      4  CHC       12.0620   45.2380  -19.5750 C.2    91  HEM91       0.0000
      5  CHD       14.5390   49.1790  -18.4420 C.2    91  HEM91       0.0000
      6  NA        13.2690   46.0340  -14.7370 N.2    91  HEM91       0.0000
      7  C1A       13.6920   46.8020  -13.6820 C.2    91  HEM91       0.0000
      8  C2A       13.5460   46.0340  -12.4570 C.2    91  HEM91       0.0000
      9  C3A       13.0360   44.8440  -12.7890 C.2    91  HEM91       0.0000
     10  C4A       12.8420   44.8230  -14.2250 C.2    91  HEM91       0.0000
     11  CMA       12.6740   43.6890  -11.8570 C.3    91  HEM91       0.0000
     12  CAA       14.0320   46.5070  -11.0780 C.3    91  HEM91       0.0000
     13  CBA       15.5590   46.4770  -10.9640 C.3    91  HEM91       0.0000
     14  CGA       16.1090   47.3000   -9.8070 C.2    91  HEM91       0.0000
     15  O1A       17.3030   47.0080   -9.4540 O.co2  91  HEM91       0.0000
     16  O2A       15.4140   48.1960   -9.3290 O.co2  91  HEM91       0.0000
     17  NB        12.3730   44.8670  -17.1930 N.ar   91  HEM91       0.0000
     18  C1B       12.0920   43.8170  -16.3290 C.ar   91  HEM91       0.0000
     19  C2B       11.4580   42.7470  -17.0650 C.ar   91  HEM91       0.0000
     20  C3B       11.3190   43.1780  -18.3390 C.ar   91  HEM91       0.0000
     21  C4B       11.8770   44.4960  -18.4210 C.ar   91  HEM91       0.0000
     22  CMB       11.1180   41.3730  -16.4910 C.3    91  HEM91       0.0000
     23  CAB       10.7050   42.4500  -19.5280 C.3    91  HEM91       0.0000
     24  CBB        9.2070   42.1540  -19.3400 C.3    91  HEM91       0.0000
     25  NC        13.3010   47.1150  -18.6100 N.2    91  HEM91       0.0000
     26  C1C       12.7900   46.4030  -19.6670 C.2    91  HEM91       0.0000
     27  C2C       13.1560   47.0440  -20.9320 C.2    91  HEM91       0.0000
     28  C3C       13.9200   48.0970  -20.6240 C.2    91  HEM91       0.0000
     29  C4C       13.9870   48.1680  -19.1790 C.2    91  HEM91       0.0000
     30  CMC       12.7550   46.4970  -22.3200 C.3    91  HEM91       0.0000
     31  CAC       14.7470   49.0030  -21.5450 C.3    91  HEM91       0.0000
     32  CBC       13.9150   49.7730  -22.5850 C.3    91  HEM91       0.0000
     33  ND        14.0910   48.3020  -16.2120 N.ar   91  HEM91       0.0000
     34  C1D       14.5300   49.3000  -17.0810 C.ar   91  HEM91       0.0000
     35  C2D       14.9470   50.4600  -16.3320 C.ar   91  HEM91       0.0000
     36  C3D       14.7560   50.1890  -15.0240 C.ar   91  HEM91       0.0000
     37  C4D       14.3050   48.8190  -14.9450 C.ar   91  HEM91       0.0000
     38  CMD       15.3680   51.7940  -16.9650 C.3    91  HEM91       0.0000
     39  CAD       14.9430   51.1570  -13.8550 C.3    91  HEM91       0.0000
     40  CBD       13.6610   51.9970  -13.6110 C.3    91  HEM91       0.0000
     41  CGD       13.8650   53.0090  -12.5150 C.2    91  HEM91       0.0000
     42  O1D       14.0740   52.6250  -11.3510 O.co2  91  HEM91       0.0000
     43  O2D       13.7180   54.1970  -12.8620 O.co2  91  HEM91       0.0000
@<TRIPOS>BOND
     1    32    31    1
     2    30    27    1
     3    31    28    1
     4    27    28    2
     5    27    26    1
     6    28    29    1
     7    26     4    2
     8    26    25    1
     9     4    21    1
    10    23    24    1
    11    23    20    1
    12    29    25    2
    13    29     5    1
    14    25     1    1
    15     5    34    2
    16    21    20   ar
    17    21    17   ar
    18    20    19   ar
    19    17     1    1
    20    17    18   ar
    21    34    35   ar
    22    34    33   ar
    23    19    22    1
    24    19    18   ar
    25    38    35    1
    26     1    33    1
    27     1     6    1
    28    35    36   ar
    29    18     3    1
    30    33    37   ar
    31    36    37   ar
    32    36    39    1
    33     3    10    2
    34    37     2    2
    35     6    10    1
    36     6     7    2
    37    10     9    1
    38    39    40    1
    39     2     7    1
    40     7     8    1
    41    40    41    1
    42    43    41   ar
    43     9     8    2
    44     9    11    1
    45    41    42   ar
    46     8    12    1
    47    12    13    1
    48    13    14    1
    49    14    15   ar
    50    14    16   ar
