@<TRIPOS>MOLECULE
1ctm_HEM_A_1.pdb
 43 50 0 0 0
SMALL
GASTEIGER

@<TRIPOS>ATOM
      1 FE         89.1680   81.7430   -6.1600 Fe    253  HEM253      0.0000
      2  CHA       88.6630   84.0910   -8.5520 C.2   253  HEM253      0.0000
      3  CHB       85.8940   81.6290   -5.5220 C.2   253  HEM253      0.0000
      4  CHC       89.6560   79.0860   -4.0810 C.2   253  HEM253      0.0000
      5  CHD       92.4900   82.1890   -6.3830 C.2   253  HEM253      0.0000
      6  NA        87.6100   82.6130   -6.9210 N.2   253  HEM253      0.0000
      7  C1A       87.5440   83.5290   -7.9490 C.2   253  HEM253      0.0000
      8  C2A       86.1750   83.8790   -8.2560 C.2   253  HEM253      0.0000
      9  C3A       85.4230   83.2230   -7.3870 C.2   253  HEM253      0.0000
     10  C4A       86.3030   82.4500   -6.5530 C.2   253  HEM253      0.0000
     11  CMA       83.9150   83.2770   -7.3120 C.3   253  HEM253      0.0000
     12  CAA       85.7050   84.8230   -9.3520 C.3   253  HEM253      0.0000
     13  CBA       85.7710   86.2830   -8.9000 C.3   253  HEM253      0.0000
     14  CGA       85.2190   87.3310   -9.8460 C.2   253  HEM253      0.0000
     15  O1A       84.7200   88.3410   -9.3690 O.co2 253  HEM253      0.0000
     16  O2A       85.2560   87.1560  -11.0570 O.co2 253  HEM253      0.0000
     17  NB        88.0340   80.6260   -5.0230 N.ar  253  HEM253      0.0000
     18  C1B       86.6900   80.7670   -4.7890 C.ar  253  HEM253      0.0000
     19  C2B       86.2010   79.8060   -3.7860 C.ar  253  HEM253      0.0000
     20  C3B       87.2570   79.0650   -3.4590 C.ar  253  HEM253      0.0000
     21  C4B       88.3760   79.5580   -4.2250 C.ar  253  HEM253      0.0000
     22  CMB       84.8000   79.7600   -3.1700 C.3   253  HEM253      0.0000
     23  CAB       87.3390   78.0910   -2.5190 C.3   253  HEM253      0.0000
     24  CBB       86.7430   76.7170   -2.8280 C.3   253  HEM253      0.0000
     25  NC        90.7310   80.8120   -5.4190 N.2   253  HEM253      0.0000
     26  C1C       90.7750   79.6760   -4.6310 C.2   253  HEM253      0.0000
     27  C2C       92.1430   79.2340   -4.3460 C.2   253  HEM253      0.0000
     28  C3C       92.9720   80.1540   -4.9200 C.2   253  HEM253      0.0000
     29  C4C       92.0650   81.1260   -5.5910 C.2   253  HEM253      0.0000
     30  CMC       92.5260   77.9850   -3.5530 C.3   253  HEM253      0.0000
     31  CAC       94.3740   80.1770   -4.9290 C.3   253  HEM253      0.0000
     32  CBC       95.1370   79.0050   -5.4870 C.3   253  HEM253      0.0000
     33  ND        90.3280   82.9040   -7.2270 N.ar  253  HEM253      0.0000
     34  C1D       91.6950   83.0210   -7.1430 C.ar  253  HEM253      0.0000
     35  C2D       92.2100   84.0070   -8.0690 C.ar  253  HEM253      0.0000
     36  C3D       91.1390   84.4540   -8.7490 C.ar  253  HEM253      0.0000
     37  C4D       89.9760   83.7900   -8.2120 C.ar  253  HEM253      0.0000
     38  CMD       93.6500   84.5030   -8.2380 C.3   253  HEM253      0.0000
     39  CAD       91.1680   85.4980   -9.8410 C.3   253  HEM253      0.0000
     40  CBD       91.2670   84.9410  -11.2210 C.3   253  HEM253      0.0000
     41  CGD       91.2780   86.0950  -12.1830 C.2   253  HEM253      0.0000
     42  O1D       92.3040   86.3960  -12.7800 O.co2 253  HEM253      0.0000
     43  O2D       90.2930   86.7940  -12.2810 O.co2 253  HEM253      0.0000
@<TRIPOS>BOND
     1    42    41   ar
     2    43    41   ar
     3    41    40    1
     4    40    39    1
     5    16    14   ar
     6    14    15   ar
     7    14    13    1
     8    39    36    1
     9    12    13    1
    10    12     8    1
    11    36    37   ar
    12    36    35   ar
    13     2    37    2
    14     2     7    1
    15     8     7    1
    16     8     9    2
    17    38    35    1
    18    37    33   ar
    19    35    34   ar
    20     7     6    2
    21     9    11    1
    22     9    10    1
    23    33    34   ar
    24    33     1    1
    25    34     5    2
    26     6    10    1
    27     6     1    1
    28    10     3    2
    29     5    29    1
    30     1    25    1
    31     1    17    1
    32    29    25    2
    33    29    28    1
    34     3    18    1
    35    32    31    1
    36    25    26    1
    37    17    18   ar
    38    17    21   ar
    39    31    28    1
    40    28    27    2
    41    18    19   ar
    42    26    27    1
    43    26     4    2
    44    27    30    1
    45    21     4    1
    46    21    20   ar
    47    19    20   ar
    48    19    22    1
    49    20    23    1
    50    24    23    1
