@<TRIPOS>MOLECULE
1ctq_GNP_A_1.pdb
 32 34 0 0 0
SMALL
GASTEIGER

@<TRIPOS>ATOM
      1  PG         4.9350   31.5070   21.6910 P.3   167  GNP167      0.4884
      2  O1G        4.8990   32.1440   23.0470 O.3   167  GNP167     -0.1240
      3  O2G        4.1290   32.3430   20.7100 O.2   167  GNP167     -0.2331
      4  O3G        4.5560   30.0760   21.6500 O.3   167  GNP167     -0.1240
      5  N3B        6.6110   31.6820   21.3020 N.3   167  GNP167     -0.0163
      6  PB         7.2020   31.3500   19.7620 P.3   167  GNP167      0.4669
      7  O1B        7.4080   29.9080   19.6160 O.3   167  GNP167     -0.1253
      8  O2B        6.4250   32.1270   18.7520 O.2   167  GNP167     -0.2351
      9  O3A        8.6900   32.0060   19.8560 O.3   167  GNP167     -0.2360
     10  PA         9.1970   33.3900   19.3670 P.3   167  GNP167      0.2220
     11  O1A        9.2360   33.4330   17.8900 O.2   167  GNP167     -0.5170
     12  O2A        8.5320   34.4680   20.1850 O.3   167  GNP167     -0.4370
     13  O5'       10.6480   33.3540   19.8150 O.3   167  GNP167     -0.3111
     14  C5'       11.0130   33.2280   21.1980 C.3   167  GNP167      0.1813
     15  C4'       12.4330   33.6630   21.3890 C.3   167  GNP167      0.1799
     16  O4'       13.4010   32.9430   20.7140 O.3   167  GNP167     -0.3326
     17  C3'       12.6570   35.1420   20.9560 C.3   167  GNP167      0.2158
     18  O3'       13.6260   35.7860   21.8040 O.3   167  GNP167     -0.2175
     19  C2'       13.2570   34.9660   19.5460 C.3   167  GNP167      0.2310
     20  O2'       14.0670   36.0350   19.1660 O.3   167  GNP167     -0.2158
     21  C1'       14.1160   33.7580   19.8170 C.3   167  GNP167      0.2293
     22  N9        14.3510   32.9990   18.5720 N.pl3 167  GNP167     -0.2354
     23  C8        13.2850   32.5690   17.6790 C.3   167  GNP167      0.2246
     24  N7        13.7850   31.8340   16.7150 N.2   167  GNP167     -0.2322
     25  C5        15.2620   31.9740   16.8690 C.2   167  GNP167      0.2182
     26  C6        16.3090   31.3550   16.0840 C.1   167  GNP167      0.2372
     27  O6        16.2420   30.7670   15.0670 O.2   167  GNP167     -0.2069
     28  N1        17.5230   31.7090   16.5810 N.2   167  GNP167     -0.2485
     29  C2        17.5760   32.3300   17.7930 C.1   167  GNP167      0.2531
     30  N2        18.9530   32.5270   18.1410 N.pl3 167  GNP167     -0.0226
     31  N3        16.7170   32.7880   18.6120 N.2   167  GNP167     -0.3074
     32  C4        15.5260   32.5980   18.0350 C.2   167  GNP167      0.2300
@<TRIPOS>BOND
     1    27    26    2
     2    26    28    2
     3    26    25    1
     4    28    29    2
     5    24    25    2
     6    24    23    1
     7    25    32    1
     8    23    22    1
     9    29    30    1
    10    29    31    2
    11    11    10    2
    12    32    22    1
    13    32    31    2
    14    22    21    1
    15     8     6    2
    16    20    19    1
    17    10    13    1
    18    10     9    1
    19    10    12    1
    20    19    21    1
    21    19    17    1
    22     7     6    1
    23     6     9    1
    24     6     5    1
    25    13    14    1
    26    21    16    1
    27     3     1    2
    28    16    15    1
    29    17    15    1
    30    17    18    1
    31    14    15    1
    32     5     1    1
    33     4     1    1
    34     1     2    1
