@<TRIPOS>MOLECULE
1ctr_TFP_A_1.pdb
 28 31 0 0 0
SMALL
GASTEIGER

@<TRIPOS>ATOM
      1  C1         6.9850   25.8760  104.0390 C.ar  153  TFP153      0.0727
      2  C2         7.5590   24.7360  104.5850 C.ar  153  TFP153      0.0044
      3  C3         7.0040   24.1730  105.7110 C.ar  153  TFP153      0.0077
      4  C4         5.8760   24.7230  106.2940 C.ar  153  TFP153      0.0431
      5  C5         5.2350   25.8080  105.7010 C.ar  153  TFP153      0.0576
      6  C6         5.8330   26.4260  104.5910 C.ar  153  TFP153      0.0192
      7  S          5.2980   24.0240  107.8210 S.3   153  TFP153     -0.0844
      8  C7         4.5620   25.3790  108.6120 C.ar  153  TFP153      0.0431
      9  C8         4.4590   25.3370  110.0060 C.ar  153  TFP153      0.0077
     10  C9         3.8500   26.3520  110.7050 C.ar  153  TFP153      0.0006
     11  C10        3.3150   27.3960  110.0090 C.ar  153  TFP153      0.0013
     12  C11        3.4220   27.4380  108.6150 C.ar  153  TFP153      0.0153
     13  C12        4.1000   26.4590  107.8620 C.ar  153  TFP153      0.0576
     14  N1         4.1250   26.4340  106.3630 N.pl3 153  TFP153     -0.2860
     15  C13        3.5590   27.5620  105.6230 C.3   153  TFP153      0.0973
     16  C14        2.3730   27.1430  104.7420 C.3   153  TFP153      0.0436
     17  C15        2.0220   28.1960  103.6860 C.3   153  TFP153      0.0975
     18  N2         0.6860   28.1050  103.1690 N.pl3 153  TFP153     -0.2828
     19  C16        0.4460   28.5180  101.8330 C.2   153  TFP153      0.0818
     20  C17       -0.8690   28.4570  101.2660 C.2   153  TFP153      0.0818
     21  N3        -1.9630   27.9800  102.0470 N.pl3 153  TFP153     -0.2811
     22  C18       -1.7440   27.5720  103.3940 C.2   153  TFP153      0.0818
     23  C19       -0.4140   27.6350  103.9530 C.2   153  TFP153      0.0818
     24  C20       -3.2600   27.9150  101.4680 C.3   153  TFP153      0.1174
     25  C21        7.6550   26.5500  102.9310 C.3   153  TFP153      0.4186
     26  F1         8.7010   25.9160  102.4710 F     153  TFP153     -0.1659
     27  F2         8.0350   27.7510  103.2490 F     153  TFP153     -0.1659
     28  F3         6.9830   26.7700  101.8490 F     153  TFP153     -0.1659
@<TRIPOS>BOND
     1    20    19    2
     2    20    21    1
     3    24    21    1
     4    19    18    1
     5    28    25    1
     6    21    22    1
     7    26    25    1
     8    25    27    1
     9    25     1    1
    10    18    17    1
    11    18    23    1
    12    22    23    2
    13    17    16    1
    14     1     2   ar
    15     1     6   ar
    16     2     3   ar
    17     6     5   ar
    18    16    15    1
    19    15    14    1
    20     5     4   ar
    21     5    14    1
    22     3     4   ar
    23     4     7    1
    24    14    13    1
    25     7     8    1
    26    13     8   ar
    27    13    12   ar
    28     8     9   ar
    29    12    11   ar
    30     9    10   ar
    31    11    10   ar
