@<TRIPOS>MOLECULE
1cts_CIT_A_1.pdb
 13 12 0 0 0
SMALL
GASTEIGER

@<TRIPOS>ATOM
      1  C1        56.6450   28.9990   36.1830 C.2   438  CIT438      0.3680
      2  O1        57.1950   30.0210   35.7030 O.co2 438  CIT438     -0.2455
      3  O2        55.6830   29.1160   36.9920 O.co2 438  CIT438     -0.2455
      4  C2        57.4310   27.7170   36.3010 C.3   438  CIT438      0.1560
      5  C3        58.5850   27.5850   35.3160 C.3   438  CIT438      0.2402
      6  O7        58.1470   28.0710   34.0240 O.3   438  CIT438     -0.2129
      7  C4        58.9330   26.0950   35.2270 C.3   438  CIT438      0.1560
      8  C5        57.6300   25.3650   34.9190 C.2   438  CIT438      0.3680
      9  O3        56.8050   25.0900   35.8360 O.co2 438  CIT438     -0.2455
     10  O4        57.1870   25.4670   33.7450 O.co2 438  CIT438     -0.2455
     11  C6        59.7930   28.3340   35.8880 C.2   438  CIT438      0.3927
     12  O5        60.7160   28.7080   35.1280 O.co2 438  CIT438     -0.2429
     13  O6        60.1060   28.1030   37.0790 O.co2 438  CIT438     -0.2429
@<TRIPOS>BOND
     1    10     8   ar
     2     6     5    1
     3     8     7    1
     4     8     9   ar
     5    12    11   ar
     6     7     5    1
     7     5    11    1
     8     5     4    1
     9     2     1   ar
    10    11    13   ar
    11     1     4    1
    12     1     3   ar
