@<TRIPOS>MOLECULE
1ctt_DHZ_A_1.pdb
 16 17 0 0 0
SMALL
GASTEIGER

@<TRIPOS>ATOM
      1  N1        35.3030   48.9280    9.0090 N.am  295  DHZ295     -0.1880
      2  C2        36.2150   48.0430    8.4400 C.1   295  DHZ295      0.2171
      3  O2        37.3770   48.3610    8.1860 O.2   295  DHZ295     -0.2059
      4  N3        35.7260   46.7830    8.1070 N.2   295  DHZ295     -0.1848
      5  C4        34.3520   46.2460    8.5840 C.3   295  DHZ295      0.1666
      6  C5        33.4730   47.4160    9.0320 C.2   295  DHZ295      0.0178
      7  C6        33.9940   48.6440    9.2560 C.2   295  DHZ295      0.0760
      8  C1'       35.8860   50.3090    9.6320 C.3   295  DHZ295      0.2393
      9  C2'       35.8290   51.7290    9.2300 C.3   295  DHZ295      0.2319
     10  O2'       36.6940   51.9520    8.0850 O.3   295  DHZ295     -0.2157
     11  C3'       36.0520   52.5330   10.4680 C.3   295  DHZ295      0.2159
     12  O3'       37.4510   52.6540   10.5530 O.3   295  DHZ295     -0.2175
     13  C4'       35.4790   51.5220   11.6050 C.3   295  DHZ295      0.1829
     14  O4'       35.6150   50.1690   11.0250 O.3   295  DHZ295     -0.3319
     15  C5'       34.0690   51.5920   11.9880 C.3   295  DHZ295      0.2142
     16  O5'       33.3570   51.9390   10.7650 O.3   295  DHZ295     -0.2176
@<TRIPOS>BOND
     1    10     9    1
     2     4     2    2
     3     4     5    1
     4     3     2    2
     5     2     1   am
     6     5     6    1
     7     1     7    1
     8     1     8    1
     9     6     7    2
    10     9     8    1
    11     9    11    1
    12     8    14    1
    13    11    12    1
    14    11    13    1
    15    16    15    1
    16    14    13    1
    17    13    15    1
