@<TRIPOS>MOLECULE
1ctu_ZEB_A_1.pdb
 17 18 0 0 0
SMALL
GASTEIGER

@<TRIPOS>ATOM
      1  N1        35.1760   48.8550    8.8900 N.am  295  ZEB295     -0.1766
      2  C2        36.0940   48.2050    8.1940 C.1   295  ZEB295      0.2845
      3  O2        37.2580   48.5670    8.2660 O.2   295  ZEB295     -0.1918
      4  N3        35.7390   47.1540    7.4380 N.2   295  ZEB295     -0.2452
      5  C4        34.3800   46.6730    7.4230 C.1   295  ZEB295      0.2182
      6  O4        33.6480   46.6550    5.9060 O.2   295  ZEB295     -0.2085
      7  C5        33.4350   47.4890    8.2280 C.2   295  ZEB295      0.1242
      8  C6        33.8780   48.5480    8.9090 C.2   295  ZEB295      0.0929
      9  C1'       35.6250   50.3520    9.3640 C.3   295  ZEB295      0.2401
     10  C2'       35.6860   51.7990    8.9430 C.3   295  ZEB295      0.2319
     11  O2'       36.7200   51.9350    7.9190 O.3   295  ZEB295     -0.2157
     12  C3'       36.0410   52.3940   10.2510 C.3   295  ZEB295      0.2159
     13  O3'       37.4110   52.6530   10.3730 O.3   295  ZEB295     -0.2175
     14  C4'       35.6040   51.3710   11.2880 C.3   295  ZEB295      0.1829
     15  O4'       35.8610   50.0870   10.7360 O.3   295  ZEB295     -0.3318
     16  C5'       34.2540   51.5510   11.8270 C.3   295  ZEB295      0.2142
     17  O5'       33.4930   51.9820   10.7060 O.3   295  ZEB295     -0.2176
@<TRIPOS>BOND
     1     6     5    2
     2     5     4    2
     3     5     7    1
     4     4     2    2
     5    11    10    1
     6     2     3    2
     7     2     1   am
     8     7     8    2
     9     1     8    1
    10     1     9    1
    11    10     9    1
    12    10    12    1
    13     9    15    1
    14    12    13    1
    15    12    14    1
    16    17    16    1
    17    15    14    1
    18    14    16    1
