@<TRIPOS>MOLECULE
1cty_HEM_A_1.pdb
 43 50 0 0 0
SMALL
GASTEIGER

@<TRIPOS>ATOM
      1 FE          2.6380   20.9360   13.2380 Fe    104  HEM104      0.0000
      2  CHA        4.9190   18.7720   14.3470 C.2   104  HEM104      0.0000
      3  CHB        3.9030   20.6600   10.0130 C.2   104  HEM104      0.0000
      4  CHC       -0.0050   22.7340   12.0610 C.2   104  HEM104      0.0000
      5  CHD        1.7010   21.7050   16.4520 C.2   104  HEM104      0.0000
      6  NA         4.1330   19.9190   12.3810 N.ar  104  HEM104      0.0000
      7  C1A        4.9060   18.9260   12.9730 C.ar  104  HEM104      0.0000
      8  C2A        5.6640   18.2060   11.9510 C.ar  104  HEM104      0.0000
      9  C3A        5.3430   18.7650   10.7610 C.ar  104  HEM104      0.0000
     10  C4A        4.4100   19.8420   10.9840 C.ar  104  HEM104      0.0000
     11  CMA        5.9220   18.4130    9.3610 C.3   104  HEM104      0.0000
     12  CAA        6.6740   17.0680   12.1590 C.2   104  HEM104      0.0000
     13  CBA        8.0630   17.3520   12.5230 C.2   104  HEM104      0.0000
     14  CGA        9.3380   16.5890   12.5090 C.2   104  HEM104      0.0000
     15  O1A       10.3790   17.3520   12.4990 O.co2 104  HEM104      0.0000
     16  O2A        9.5230   15.3110   12.5200 O.co2 104  HEM104      0.0000
     17  NB         2.0240   21.5400   11.4260 N.2   104  HEM104      0.0000
     18  C1B        2.7620   21.4120   10.2550 C.2   104  HEM104      0.0000
     19  C2B        2.0840   22.1760    9.2040 C.2   104  HEM104      0.0000
     20  C3B        0.9610   22.6900    9.7670 C.2   104  HEM104      0.0000
     21  C4B        0.9380   22.3130   11.1500 C.2   104  HEM104      0.0000
     22  CMB        2.5580   22.3030    7.7550 C.3   104  HEM104      0.0000
     23  CAB       -0.0970   23.5350    8.9830 C.3   104  HEM104      0.0000
     24  CBB       -0.7240   22.8020    7.7540 C.3   104  HEM104      0.0000
     25  NC         1.1330   21.9970   14.0830 N.ar  104  HEM104      0.0000
     26  C1C        0.1970   22.7790   13.4120 C.ar  104  HEM104      0.0000
     27  C2C       -0.5010   23.5980   14.3750 C.ar  104  HEM104      0.0000
     28  C3C       -0.0390   23.3120   15.5910 C.ar  104  HEM104      0.0000
     29  C4C        0.9890   22.2880   15.4280 C.ar  104  HEM104      0.0000
     30  CMC       -1.6200   24.6330   14.0100 C.3   104  HEM104      0.0000
     31  CAC       -0.4620   23.9000   16.9750 C.3   104  HEM104      0.0000
     32  CBC       -1.9920   23.9470   17.2860 C.3   104  HEM104      0.0000
     33  ND         3.2430   20.4000   15.0840 N.2   104  HEM104      0.0000
     34  C1D        2.6790   20.7540   16.2870 C.2   104  HEM104      0.0000
     35  C2D        3.2490   19.9200   17.3350 C.2   104  HEM104      0.0000
     36  C3D        4.1760   19.1740   16.7780 C.2   104  HEM104      0.0000
     37  C4D        4.1550   19.3800   15.3310 C.2   104  HEM104      0.0000
     38  CMD        2.8400   20.0380   18.8340 C.3   104  HEM104      0.0000
     39  CAD        5.0820   18.1120   17.4340 C.3   104  HEM104      0.0000
     40  CBD        4.2220   16.8670   17.7570 C.3   104  HEM104      0.0000
     41  CGD        4.9470   15.8150   18.5530 C.2   104  HEM104      0.0000
     42  O1D        6.0600   16.1260   19.0630 O.co2 104  HEM104      0.0000
     43  O2D        4.2180   14.8040   18.6780 O.co2 104  HEM104      0.0000
@<TRIPOS>BOND
     1    24    23    1
     2    22    19    1
     3    23    20    1
     4    19    20    2
     5    19    18    1
     6    11     9    1
     7    20    21    1
     8     3    18    1
     9     3    10    2
    10    18    17    2
    11     9    10   ar
    12     9     8   ar
    13    10     6   ar
    14    21    17    1
    15    21     4    2
    16    17     1    1
    17     8    12    1
    18     8     7   ar
    19     4    26    1
    20    12    13    2
    21     6     7   ar
    22     6     1    1
    23    15    14   ar
    24    14    16   ar
    25    14    13    1
    26     7     2    2
    27     1    25    1
    28     1    33    1
    29    26    25   ar
    30    26    27   ar
    31    30    27    1
    32    25    29   ar
    33     2    37    1
    34    27    28   ar
    35    33    37    2
    36    33    34    1
    37    37    36    1
    38    29    28   ar
    39    29     5    1
    40    28    31    1
    41    34     5    2
    42    34    35    1
    43    36    35    2
    44    36    39    1
    45    31    32    1
    46    35    38    1
    47    39    40    1
    48    40    41    1
    49    41    43   ar
    50    41    42   ar
