@<TRIPOS>MOLECULE
1ctz_HEM_A_1.pdb
 43 50 0 0 0
SMALL
GASTEIGER

@<TRIPOS>ATOM
      1 FE          2.9450   20.9110   13.1050 Fe    104  HEM104      0.0000
      2  CHA        5.2950   18.5340   14.1250 C.2   104  HEM104      0.0000
      3  CHB        4.2640   20.8140    9.9730 C.2   104  HEM104      0.0000
      4  CHC        0.3710   22.7800   12.0120 C.2   104  HEM104      0.0000
      5  CHD        2.3120   21.6850   16.2970 C.2   104  HEM104      0.0000
      6  NA         4.4950   19.9280   12.2460 N.ar  104  HEM104      0.0000
      7  C1A        5.2380   18.9230   12.7880 C.ar  104  HEM104      0.0000
      8  C2A        5.9730   18.2400   11.7270 C.ar  104  HEM104      0.0000
      9  C3A        5.6950   18.8230   10.5690 C.ar  104  HEM104      0.0000
     10  C4A        4.7810   19.9100   10.8620 C.ar  104  HEM104      0.0000
     11  CMA        6.2630   18.4690    9.1660 C.3   104  HEM104      0.0000
     12  CAA        6.9300   17.0510   12.0260 C.3   104  HEM104      0.0000
     13  CBA        8.3550   17.6310   11.9560 C.3   104  HEM104      0.0000
     14  CGA        9.5360   16.8400   12.4120 C.2   104  HEM104      0.0000
     15  O1A       10.5510   17.5690   12.5420 O.co2 104  HEM104      0.0000
     16  O2A        9.4530   15.5940   12.5760 O.co2 104  HEM104      0.0000
     17  NB         2.3900   21.6420   11.3530 N.2   104  HEM104      0.0000
     18  C1B        3.1780   21.5410   10.2030 C.2   104  HEM104      0.0000
     19  C2B        2.4320   22.2760    9.1250 C.2   104  HEM104      0.0000
     20  C3B        1.3250   22.8120    9.6730 C.2   104  HEM104      0.0000
     21  C4B        1.3110   22.4400   11.0900 C.2   104  HEM104      0.0000
     22  CMB        2.9540   22.2640    7.6940 C.3   104  HEM104      0.0000
     23  CAB        0.2400   23.6560    8.9860 C.3   104  HEM104      0.0000
     24  CBB       -0.8350   23.0830    8.0600 C.3   104  HEM104      0.0000
     25  NC         1.5700   21.9750   14.0210 N.ar  104  HEM104      0.0000
     26  C1C        0.6230   22.7400   13.3960 C.ar  104  HEM104      0.0000
     27  C2C       -0.1090   23.5150   14.3870 C.ar  104  HEM104      0.0000
     28  C3C        0.4100   23.2090   15.6030 C.ar  104  HEM104      0.0000
     29  C4C        1.5260   22.3160   15.3560 C.ar  104  HEM104      0.0000
     30  CMC       -1.2770   24.4350   14.0780 C.3   104  HEM104      0.0000
     31  CAC        0.0080   23.8040   17.0050 C.3   104  HEM104      0.0000
     32  CBC       -1.3760   23.5680   17.5910 C.3   104  HEM104      0.0000
     33  ND         3.6880   20.2550   14.8780 N.2   104  HEM104      0.0000
     34  C1D        3.1990   20.6650   16.0800 C.2   104  HEM104      0.0000
     35  C2D        3.8370   19.8350   17.1350 C.2   104  HEM104      0.0000
     36  C3D        4.6780   18.9920   16.5270 C.2   104  HEM104      0.0000
     37  C4D        4.5640   19.1940   15.1050 C.2   104  HEM104      0.0000
     38  CMD        3.4520   19.9970   18.5930 C.3   104  HEM104      0.0000
     39  CAD        5.4940   17.8850   17.2250 C.3   104  HEM104      0.0000
     40  CBD        4.5600   16.7650   17.7460 C.3   104  HEM104      0.0000
     41  CGD        5.2530   15.5720   18.2900 C.2   104  HEM104      0.0000
     42  O1D        6.3050   15.8780   18.9390 O.co2 104  HEM104      0.0000
     43  O2D        4.8220   14.4120   18.0190 O.co2 104  HEM104      0.0000
@<TRIPOS>BOND
     1    22    19    1
     2    24    23    1
     3    23    20    1
     4    19    20    2
     5    19    18    1
     6    11     9    1
     7    20    21    1
     8     3    18    1
     9     3    10    2
    10    18    17    2
    11     9    10   ar
    12     9     8   ar
    13    10     6   ar
    14    21    17    1
    15    21     4    2
    16    17     1    1
    17     8    12    1
    18     8     7   ar
    19    13    12    1
    20    13    14    1
    21     4    26    1
    22     6     7   ar
    23     6     1    1
    24    14    15   ar
    25    14    16   ar
    26     7     2    2
    27     1    25    1
    28     1    33    1
    29    26    25   ar
    30    26    27   ar
    31    25    29   ar
    32    30    27    1
    33     2    37    1
    34    27    28   ar
    35    33    37    2
    36    33    34    1
    37    37    36    1
    38    29    28   ar
    39    29     5    1
    40    28    31    1
    41    34     5    2
    42    34    35    1
    43    36    35    2
    44    36    39    1
    45    31    32    1
    46    35    38    1
    47    39    40    1
    48    40    41    1
    49    43    41   ar
    50    41    42   ar
