@<TRIPOS>MOLECULE
1cul_FOK_A_1.pdb
 29 31 0 0 0
SMALL
GASTEIGER

@<TRIPOS>ATOM
      1  C1        42.2490  -12.7460   52.0700 C.3   1001  FOK1001     0.1547
      2  O2        42.0120  -13.8170   51.1390 O.3   1001  FOK1001    -0.2231
      3  C2        43.1810  -13.2960   53.1480 C.3   1001  FOK1001     0.0330
      4  C3        44.5610  -13.6420   52.6380 C.3   1001  FOK1001     0.0027
      5  C4        45.2780  -12.3920   51.9990 C.3   1001  FOK1001     0.0027
      6  C5        44.3310  -11.8510   50.8980 C.3   1001  FOK1001     0.0393
      7  C6        44.9690  -10.7750   49.9910 C.3   1001  FOK1001     0.1943
      8  O3        45.3390   -9.6000   50.6990 O.3   1001  FOK1001    -0.2192
      9  C7        44.0680  -10.4650   48.7870 C.3   1001  FOK1001     0.2260
     10  O4        44.6410   -9.3550   48.0300 O.3   1001  FOK1001    -0.4470
     11  C8        42.6090  -10.0630   49.1260 C.3   1001  FOK1001     0.1639
     12  O1        41.9370  -10.0970   47.8580 O.3   1001  FOK1001    -0.3524
     13  C9        42.0700  -11.2330   49.9890 C.3   1001  FOK1001     0.2051
     14  O6        42.1760  -12.3670   49.0900 O.3   1001  FOK1001    -0.2155
     15  C10       42.8490  -11.5230   51.3270 C.3   1001  FOK1001     0.0652
     16  C11       40.5430  -11.0290   50.0920 C.2   1001  FOK1001     0.1831
     17  O7        39.9490  -10.9120   51.1590 O.2   1001  FOK1001    -0.2933
     18  C12       39.8320  -11.0080   48.7630 C.3   1001  FOK1001     0.0985
     19  C13       40.4940  -10.0610   47.7430 C.3   1001  FOK1001     0.1183
     20  C14       40.2220  -10.6760   46.4070 C.2   1001  FOK1001     0.0006
     21  C15       40.3840  -11.8470   46.0750 C.2   1001  FOK1001    -0.0025
     22  C16       39.9200   -8.6660   47.8220 C.3   1001  FOK1001     0.0346
     23  C17       42.5250   -8.6490   49.7430 C.3   1001  FOK1001     0.0365
     24  C18       46.5910  -12.9240   51.3480 C.3   1001  FOK1001     0.0001
     25  C19       45.6960  -11.4050   53.1230 C.3   1001  FOK1001     0.0001
     26  C20       42.7060  -10.3520   52.3240 C.3   1001  FOK1001     0.0056
     27  C21       45.6800   -9.6390   47.1940 C.2   1001  FOK1001     0.3176
     28  O5        45.7840  -10.6880   46.6210 O.2   1001  FOK1001    -0.2501
     29  C22       46.6540   -8.4690   47.0760 C.3   1001  FOK1001     0.1212
@<TRIPOS>BOND
     1    21    20    2
     2    20    19    1
     3    28    27    2
     4    29    27    1
     5    27    10    1
     6    19    22    1
     7    19    12    1
     8    19    18    1
     9    12    11    1
    10    10     9    1
    11    18    16    1
    12     9    11    1
    13     9     7    1
    14    14    13    1
    15    11    23    1
    16    11    13    1
    17    13    16    1
    18    13    15    1
    19     7     8    1
    20     7     6    1
    21    16    17    2
    22     6    15    1
    23     6     5    1
    24     2     1    1
    25    15     1    1
    26    15    26    1
    27    24     5    1
    28     5     4    1
    29     5    25    1
    30     1     3    1
    31     4     3    1
