@<TRIPOS>MOLECULE
1cul_103_B_1.pdb
 21 23 0 0 0
SMALL
GASTEIGER

@<TRIPOS>ATOM
      1  P         54.8340   -9.4760   53.0320 P.3   1082  1031082     0.5326
      2  O1P       53.8530   -9.9450   54.0460 O.3   1082  1031082    -0.1145
      3  O2P       56.0020   -8.6650   53.4550 O.3   1082  1031082    -0.1145
      4  O3P       54.0970   -8.7240   51.9860 O.2   1082  1031082    -0.2224
      5  C5'       58.9630  -11.2660   51.9990 C.3   1082  1031082     0.0348
      6  C4'       57.5600  -11.6030   51.5830 C.3   1082  1031082     0.1470
      7  O4'       57.4900  -12.9700   51.0950 O.3   1082  1031082    -0.3183
      8  C3'       56.4960  -11.4870   52.6850 C.3   1082  1031082     0.1600
      9  O3'       55.3720  -10.7420   52.2030 O.3   1082  1031082    -0.2700
     10  C2'       56.0830  -12.9240   52.9470 C.3   1082  1031082     0.1123
     11  C1'       56.3240  -13.5880   51.6020 C.3   1082  1031082     0.2872
     12  N9        56.5690  -15.0280   51.6690 N.pl3 1082  1031082    -0.1460
     13  C8        57.7330  -15.6610   52.0310 C.3   1082  1031082     0.3377
     14  N7        57.6460  -16.9660   52.0160 N.2   1082  1031082    -0.2095
     15  C5        56.3380  -17.2100   51.6150 C.2   1082  1031082     0.2526
     16  C6        55.6200  -18.3970   51.4140 C.2   1082  1031082     0.4393
     17  N6        56.1530  -19.6110   51.5770 N.pl3 1082  1031082     0.2180
     18  N1        54.3230  -18.2970   51.0260 N.2   1082  1031082     0.0021
     19  C2        53.8080  -17.0810   50.8430 C.3   1082  1031082     0.5254
     20  N3        54.3870  -15.8920   50.9940 N.2   1082  1031082    -0.0055
     21  C4        55.6670  -16.0280   51.3910 C.2   1082  1031082     0.3518
@<TRIPOS>BOND
     1    19    20    1
     2    19    18    1
     3    20    21    2
     4    18    16    2
     5     7     6    1
     6     7    11    1
     7    21    15    1
     8    21    12    1
     9    16    17    1
    10    16    15    1
    11     6     5    1
    12     6     8    1
    13    11    12    1
    14    11    10    1
    15    15    14    2
    16    12    13    1
    17     4     1    2
    18    14    13    1
    19     9     8    1
    20     9     1    1
    21     8    10    1
    22     1     3    1
    23     1     2    1
