@<TRIPOS>MOLECULE
1cul_GSP_C_1.pdb
 32 34 0 0 0
SMALL
GASTEIGER

@<TRIPOS>ATOM
      1  PG        23.6030    3.0280   28.6450 P.3   395  GSP395      0.4340
      2  O3B       22.4100    3.2160   27.7360 O.3   395  GSP395     -0.2405
      3  S1G       24.9150    4.4360   28.5810 S.3   395  GSP395      0.0416
      4  O2G       23.1260    3.0860   30.0520 O.3   395  GSP395     -0.1305
      5  O3G       24.3420    1.8280   28.1880 O.2   395  GSP395     -0.2423
      6  PB        21.0590    2.5890   27.5220 P.3   395  GSP395      0.2262
      7  O1B       21.2240    1.4200   26.6200 O.2   395  GSP395     -0.5168
      8  O2B       20.4370    2.3850   28.8500 O.3   395  GSP395     -0.4369
      9  PA        18.9520    4.2980   27.0950 P.3   395  GSP395      0.2189
     10  O1A       17.9570    3.2290   27.3770 O.2   395  GSP395     -0.5170
     11  O2A       19.1890    5.3570   28.0950 O.3   395  GSP395     -0.4371
     12  O3A       20.2720    3.6450   26.7820 O.3   395  GSP395     -0.2701
     13  O5'       18.5020    5.0040   25.7410 O.3   395  GSP395     -0.3112
     14  C5'       19.2050    6.1380   25.2480 C.3   395  GSP395      0.1813
     15  C4'       18.2400    7.1650   24.7050 C.3   395  GSP395      0.1799
     16  O4'       17.5970    6.6860   23.5030 O.3   395  GSP395     -0.3326
     17  C3'       17.1120    7.5850   25.6450 C.3   395  GSP395      0.2158
     18  O3'       16.8940    8.9820   25.4890 O.3   395  GSP395     -0.2175
     19  C2'       15.9160    6.8250   25.1100 C.3   395  GSP395      0.2310
     20  O2'       14.6880    7.4830   25.3540 O.3   395  GSP395     -0.2158
     21  C1'       16.1910    6.7940   23.6240 C.3   395  GSP395      0.2293
     22  N9        15.5970    5.6530   22.9440 N.pl3 395  GSP395     -0.2354
     23  C8        15.6860    4.3330   23.3110 C.3   395  GSP395      0.2246
     24  N7        15.0430    3.5330   22.5040 N.2   395  GSP395     -0.2322
     25  C5        14.4990    4.3780   21.5410 C.2   395  GSP395      0.2182
     26  C6        13.7060    4.0780   20.4080 C.1   395  GSP395      0.2372
     27  O6        13.3270    2.9810   20.0060 O.2   395  GSP395     -0.2069
     28  N1        13.3610    5.2240   19.7110 N.2   395  GSP395     -0.2485
     29  C2        13.7330    6.5030   20.0520 C.1   395  GSP395      0.2531
     30  N2        13.2840    7.5000   19.2540 N.pl3 395  GSP395     -0.0226
     31  N3        14.4880    6.7880   21.1020 N.2   395  GSP395     -0.3074
     32  C4        14.8300    5.6880   21.7980 C.2   395  GSP395      0.2300
@<TRIPOS>BOND
     1    30    29    1
     2    28    29    2
     3    28    26    2
     4    27    26    2
     5    29    31    2
     6    26    25    1
     7    31    32    2
     8    25    32    1
     9    25    24    2
    10    32    22    1
    11    24    23    1
    12    22    23    1
    13    22    21    1
    14    16    21    1
    15    16    15    1
    16    21    19    1
    17    15    14    1
    18    15    17    1
    19    19    20    1
    20    19    17    1
    21    14    13    1
    22    18    17    1
    23    13     9    1
    24     7     6    2
    25    12     9    1
    26    12     6    1
    27     9    10    2
    28     9    11    1
    29     6     2    1
    30     6     8    1
    31     2     1    1
    32     5     1    2
    33     3     1    1
    34     1     4    1
