@<TRIPOS>MOLECULE
1cul_3PO_A_1.pdb
 13 12 0 0 0
SMALL
GASTEIGER

@<TRIPOS>ATOM
      1  PG        56.7480   -6.1340   58.2750 P.3   1003  3PO1003     0.5373
      2  O1G       57.3860   -5.3080   59.3370 O.3   1003  3PO1003    -0.1143
      3  O2G       55.7920   -7.2060   58.6600 O.3   1003  3PO1003    -0.1143
      4  O3G       56.0540   -5.2180   57.3340 O.2   1003  3PO1003    -0.2221
      5  PB        57.8660   -7.8240   56.3890 P.3   1003  3PO1003     0.2317
      6  O1B       58.9350   -7.5020   55.4120 O.2   1003  3PO1003    -0.5167
      7  O2B       57.8820   -9.1350   57.0780 O.3   1003  3PO1003    -0.4368
      8  O3B       57.8320   -6.7440   57.4290 O.3   1003  3PO1003    -0.2257
      9  PA        55.7140   -8.5260   54.8450 P.3   1003  3PO1003     0.5373
     10  O1A       54.3310   -8.5480   55.3890 O.3   1003  3PO1003    -0.1143
     11  O2A       55.9410   -8.1190   53.4350 O.2   1003  3PO1003    -0.2221
     12  O3A       56.5450   -7.6570   55.7200 O.3   1003  3PO1003    -0.2257
     13  O5'       56.3530   -9.9680   55.0640 O.3   1003  3PO1003    -0.1143
@<TRIPOS>BOND
     1    11     9    2
     2     9    13    1
     3     9    10    1
     4     9    12    1
     5     6     5    2
     6    12     5    1
     7     5     7    1
     8     5     8    1
     9     4     1    2
    10     8     1    1
    11     1     3    1
    12     1     2    1
