@<TRIPOS>MOLECULE
1cv8_E64_A_1.pdb
 25 24 0 0 0
SMALL
GASTEIGER

@<TRIPOS>ATOM
      1  C1       -15.0700   18.0150   -1.0250 C.2   176  E64176      0.3680
      2  O1       -15.9390   18.5590   -1.8160 O.co2 176  E64176     -0.2455
      3  O2       -14.3890   18.6700   -0.2770 O.co2 176  E64176     -0.2455
      4  C2       -14.7530   16.5780   -1.3760 C.3   176  E64176      0.1564
      5  C3       -16.0890   15.7110   -1.4690 C.3   176  E64176      0.2403
      6  O3       -16.6950   15.7630   -0.2650 O.3   176  E64176     -0.2126
      7  C4       -15.7550   14.3060   -2.0040 C.2   176  E64176      0.2728
      8  O4       -15.8490   13.8740   -3.1910 O.2   176  E64176     -0.2706
      9  N1       -15.3500   13.4660   -1.0350 N.am  176  E64176     -0.1956
     10  C6       -15.0800   12.0960   -1.1830 C.3   176  E64176      0.1728
     11  C7       -13.6770   11.6860   -0.9750 C.3   176  E64176      0.0311
     12  C8       -12.5400   12.1780   -1.7630 C.3   176  E64176      0.0022
     13  C9       -11.2270   11.6510   -1.0380 C.3   176  E64176      0.0001
     14  C10      -12.7990   11.5950   -3.2040 C.3   176  E64176      0.0001
     15  C11      -15.9100   11.1500   -0.3050 C.2   176  E64176      0.2612
     16  O5       -16.3040   11.6920    0.7140 O.2   176  E64176     -0.2715
     17  N2       -16.5230   10.1510   -0.8790 N.am  176  E64176     -0.2040
     18  C12      -17.7360    9.5160   -0.4290 C.3   176  E64176      0.1153
     19  C13      -18.7590   10.4100   -1.0980 C.3   176  E64176      0.0271
     20  C14      -19.7120    9.4610   -1.7330 C.3   176  E64176      0.0487
     21  C15      -20.9460   10.2930   -2.0550 C.3   176  E64176      0.2205
     22  N3       -21.7870    9.2200   -2.5780 N.pl3 176  E64176     -0.0865
     23  C16      -21.9580    8.6110   -3.9240 C.cat 176  E64176      0.5346
     24  N4       -22.9210    7.6470   -3.7930 N.pl3 176  E64176      0.1354
     25  N5       -21.4390    8.9310   -5.2260 N.pl3 176  E64176      0.1354
@<TRIPOS>BOND
     1    25    23    1
     2    23    24    1
     3    23    22    2
     4    14    12    1
     5     8     7    2
     6    22    21    1
     7    21    20    1
     8     7     5    1
     9     7     9   am
    10     2     1   ar
    11    12    13    1
    12    12    11    1
    13    20    19    1
    14     5     4    1
    15     5     6    1
    16     4     1    1
    17    10     9    1
    18    10    11    1
    19    10    15    1
    20    19    18    1
    21     1     3   ar
    22    17    18    1
    23    17    15   am
    24    15    16    2
