@<TRIPOS>MOLECULE
1cvj_A_A_1.pdb
 19 21 0 0 0
SMALL
GASTEIGER

@<TRIPOS>ATOM
      1  O5'       17.4550  127.3360   11.0380 O.3   991  A991       -0.2176
      2  C5'       16.3860  126.9190   11.8920 C.3   991  A991        0.2143
      3  C4'       16.8200  125.8450   12.8610 C.3   991  A991        0.1851
      4  O4'       17.3720  124.7210   12.1270 O.3   991  A991       -0.3134
      5  C3'       17.9450  126.2300   13.8050 C.3   991  A991        0.2186
      6  O3'       17.5220  127.0730   14.8810 O.3   991  A991       -0.2174
      7  C2'       18.4770  124.8680   14.2260 C.3   991  A991        0.2570
      8  O2'       17.6660  124.2460   15.2030 O.3   991  A991       -0.2130
      9  C1'       18.3750  124.0910   12.9100 C.3   991  A991        0.3186
     10  N9        19.6180  124.0850   12.1400 N.pl3 991  A991       -0.1439
     11  C8        20.2220  125.1440   11.5050 C.3   991  A991        0.3377
     12  N7        21.3350  124.8260   10.8880 N.2   991  A991       -0.2095
     13  C5        21.4790  123.4670   11.1320 C.2   991  A991        0.2526
     14  C6        22.4670  122.5300   10.7510 C.2   991  A991        0.4393
     15  N6        23.5400  122.8390   10.0110 N.pl3 991  A991        0.2180
     16  N1        22.3110  121.2480   11.1640 N.2   991  A991        0.0021
     17  C2        21.2340  120.9380   11.9090 C.3   991  A991        0.5254
     18  N3        20.2420  121.7280   12.3310 N.2   991  A991       -0.0055
     19  C4        20.4270  122.9940   11.9040 C.2   991  A991        0.3518
@<TRIPOS>BOND
     1    15    14    1
     2    14    13    1
     3    14    16    2
     4    12    13    2
     5    12    11    1
     6     1     2    1
     7    13    19    1
     8    16    17    1
     9    11    10    1
    10     2     3    1
    11    19    10    1
    12    19    18    2
    13    17    18    1
    14     4     3    1
    15     4     9    1
    16    10     9    1
    17     3     5    1
    18     9     7    1
    19     5     7    1
    20     5     6    1
    21     7     8    1
