@<TRIPOS>MOLECULE
1cvn_MAN_A_1.pdb
 11 11 0 0 0
SMALL
GASTEIGER

@<TRIPOS>ATOM
      1  C1        49.4030   23.3450   39.0700 C.3   240  MAN240      0.1777
      2  C2        49.3040   21.8550   39.3420 C.3   240  MAN240      0.2141
      3  C3        49.1110   21.1140   38.0180 C.3   240  MAN240      0.2173
      4  C4        47.9210   21.6780   37.2770 C.3   240  MAN240      0.2142
      5  C5        48.0480   23.1850   37.0970 C.3   240  MAN240      0.1810
      6  C6        46.7700   23.7730   36.5230 C.3   240  MAN240      0.2141
      7  O2        48.2270   21.5950   40.2330 O.3   240  MAN240     -0.2176
      8  O3        48.8810   19.7370   38.2570 O.3   240  MAN240     -0.2175
      9  O4        47.7930   21.0340   36.0220 O.3   240  MAN240     -0.2176
     10  O5        48.2540   23.8060   38.3800 O.3   240  MAN240     -0.3481
     11  O6        45.7260   23.7920   37.4890 O.3   240  MAN240     -0.2176
@<TRIPOS>BOND
     1     9     4    1
     2     6     5    1
     3     6    11    1
     4     5     4    1
     5     5    10    1
     6     4     3    1
     7     3     8    1
     8     3     2    1
     9    10     1    1
    10     1     2    1
    11     2     7    1
