@<TRIPOS>MOLECULE
1cvr_H37_A_1.pdb
 34 35 0 0 0
SMALL
GASTEIGER

@<TRIPOS>ATOM
      1  N         63.5780   14.6500   51.4110 N.3   436  H37436     -0.1227
      2  CA        63.2470   15.3750   50.1790 C.3   436  H37436      0.1736
      3  C         63.3660   16.8740   50.4480 C.2   436  H37436      0.2595
      4  O         63.7150   17.2180   51.5700 O.2   436  H37436     -0.2718
      5  CB        64.2010   14.8700   49.0310 C.3   436  H37436      0.0547
      6  CG        65.6820   15.0990   49.4150 C.ar  436  H37436     -0.0202
      7  CD1       66.3530   14.1780   50.2790 C.ar  436  H37436     -0.0042
      8  CD2       66.3920   16.2340   48.9250 C.ar  436  H37436     -0.0042
      9  CE1       67.7070   14.3910   50.6460 C.ar  436  H37436     -0.0003
     10  CE2       67.7500   16.4470   49.2950 C.ar  436  H37436     -0.0003
     11  CZ        68.4070   15.5260   50.1590 C.ar  436  H37436     -0.0000
     12  N1        63.0860   17.7680   49.4530 N.am  436  H37436     -0.1962
     13  CA1       63.1770   19.2270   49.6990 C.3   436  H37436      0.1771
     14  C1        61.8280   19.6890   50.2240 C.2   436  H37436      0.2619
     15  O1        60.8990   18.9020   50.2290 O.2   436  H37436     -0.2715
     16  CB1       63.4200   20.0160   48.3780 C.3   436  H37436      0.0574
     17  CG1       64.7700   19.6920   47.7340 C.ar  436  H37436     -0.0200
     18 CD11       64.8300   18.9500   46.5090 C.ar  436  H37436     -0.0042
     19 CD21       65.9810   20.1400   48.3480 C.ar  436  H37436     -0.0042
     20 CE11       66.0900   18.6600   45.9110 C.ar  436  H37436     -0.0003
     21 CE21       67.2400   19.8480   47.7480 C.ar  436  H37436     -0.0003
     22  CZ1       67.2950   19.1080   46.5300 C.ar  436  H37436     -0.0000
     23  N2        61.6990   20.9890   50.6430 N.am  436  H37436     -0.1982
     24  CA2       60.4240   21.5260   51.1230 C.3   436  H37436      0.1524
     25  C2        59.7520   22.3190   49.9810 C.2   436  H37436      0.1707
     26  O2        58.8710   23.1130   50.2400 O.2   436  H37436     -0.2943
     27  CB2       60.6660   22.4880   52.3220 C.3   436  H37436      0.0329
     28  CG2       61.2330   21.7520   53.5530 C.3   436  H37436      0.0491
     29  CD        61.4030   22.7600   54.7190 C.3   436  H37436      0.2205
     30  NE        61.8420   22.1070   55.9720 N.pl3 436  H37436     -0.0865
     31  CZ2       60.8250   21.6200   56.7550 C.cat 436  H37436      0.5346
     32  NH2       61.1160   20.9950   57.8340 N.pl3 436  H37436      0.1354
     33  NH1       59.5720   21.7860   56.4020 N.pl3 436  H37436      0.1354
     34  C3        60.1330   22.0980   48.5270 C.3   436  H37436      0.0741
@<TRIPOS>BOND
     1    20    18   ar
     2    20    22   ar
     3    18    17   ar
     4    22    21   ar
     5    17    19   ar
     6    17    16    1
     7    21    19   ar
     8    16    13    1
     9    34    25    1
    10     8    10   ar
    11     8     6   ar
    12     5     6    1
    13     5     2    1
    14    10    11   ar
    15     6     7   ar
    16    12    13    1
    17    12     3   am
    18    13    14    1
    19    25    26    2
    20    25    24    1
    21    11     9   ar
    22     2     3    1
    23     2     1    1
    24    14    15    2
    25    14    23   am
    26     7     9   ar
    27     3     4    2
    28    23    24    1
    29    24    27    1
    30    27    28    1
    31    28    29    1
    32    29    30    1
    33    30    31    2
    34    33    31    1
    35    31    32    1
