@<TRIPOS>MOLECULE
1cvu_ACD_A_1.pdb
 22 21 0 0 0
SMALL
GASTEIGER

@<TRIPOS>ATOM
      1  C1        29.4070   28.5600   44.4370 C.2   701  ACD701      0.3649
      2  C2        28.3500   27.9380   45.3680 C.3   701  ACD701      0.1144
      3  C3        27.1020   27.3720   44.6460 C.3   701  ACD701      0.0165
      4  C4        27.3600   26.0270   43.9350 C.3   701  ACD701      0.0263
      5  C5        26.2460   25.6650   42.9440 C.2   701  ACD701     -0.0304
      6  C6        25.3220   24.6780   43.0880 C.2   701  ACD701     -0.0260
      7  C7        25.2370   23.6980   44.2580 C.3   701  ACD701      0.0513
      8  C8        23.9510   23.8650   45.0880 C.2   701  ACD701     -0.0257
      9  C9        23.8330   24.0410   46.4180 C.2   701  ACD701     -0.0257
     10  C10       24.9520   24.1160   47.4640 C.3   701  ACD701      0.0513
     11  C11       24.5600   23.3000   48.6660 C.2   701  ACD701     -0.0257
     12  C12       25.2770   22.3580   49.3080 C.2   701  ACD701     -0.0257
     13  C13       26.6450   21.8160   49.0880 C.3   701  ACD701      0.0513
     14  C14       27.3480   21.6530   50.4800 C.2   701  ACD701     -0.0260
     15  C15       28.6610   21.5870   50.8160 C.2   701  ACD701     -0.0304
     16  C16       29.9280   21.6370   49.8830 C.3   701  ACD701      0.0257
     17  C17       30.1220   23.0720   49.3290 C.3   701  ACD701      0.0047
     18  C18       31.6030   23.4560   49.2510 C.3   701  ACD701      0.0003
     19  C19       32.0040   24.3330   50.4600 C.3   701  ACD701      0.0000
     20  C20       33.4910   24.7640   50.4250 C.3   701  ACD701      0.0000
     21  O1        30.5830   28.2850   44.6550 O.co2 701  ACD701     -0.2457
     22  O2        29.0640   29.3200   43.5000 O.co2 701  ACD701     -0.2457
@<TRIPOS>BOND
     1     5     6    2
     2     5     4    1
     3     6     7    1
     4    22     1   ar
     5     4     3    1
     6     7     8    1
     7     1    21   ar
     8     1     2    1
     9     3     2    1
    10     8     9    2
    11     9    10    1
    12    10    11    1
    13    11    12    2
    14    13    12    1
    15    13    14    1
    16    18    17    1
    17    18    19    1
    18    17    16    1
    19    16    15    1
    20    20    19    1
    21    14    15    2
