@<TRIPOS>MOLECULE
1cvw_0GE_H_1.pdb
 41 42 0 0 0
SMALL
GASTEIGER

@<TRIPOS>ATOM
      1  C11        1.3510   37.1240   29.9750 C.ar  301  0GE301      0.1236
      2  C21        0.3630   37.1700   29.0040 C.ar  301  0GE301      0.0200
      3  C3        -0.7590   37.9960   29.2000 C.ar  301  0GE301      0.0014
      4  C4        -0.8430   38.8050   30.3390 C.ar  301  0GE301      0.0013
      5  C4A        0.1440   38.7160   31.3550 C.ar  301  0GE301      0.0146
      6  C5         0.0720   39.5220   32.5520 C.ar  301  0GE301      0.0479
      7  C6         1.0100   39.3190   33.5920 C.ar  301  0GE301      0.0145
      8  C7         2.0540   38.3990   33.4400 C.ar  301  0GE301      0.0013
      9  C8         2.2030   37.6940   32.2430 C.ar  301  0GE301      0.0014
     10  C8A        1.2630   37.8340   31.2020 C.ar  301  0GE301      0.0199
     11  N3        -0.9720   40.5490   32.6420 N.pl3 301  0GE301     -0.3041
     12  CM1       -1.9430   40.1640   33.7200 C.3   301  0GE301      0.1122
     13  CM2       -0.3490   41.8660   33.0140 C.3   301  0GE301      0.1122
     14  S          2.5030   35.8710   29.4970 S.O2  301  0GE301      0.0772
     15  O1S        2.6550   34.9600   30.5950 O.2   301  0GE301     -0.1516
     16  O2S        2.1930   35.3610   28.1850 O.2   301  0GE301     -0.1516
     17  N          3.5460   36.7470   29.6280 N.3   301  0GE301     -0.0699
     18  CA         4.0270   37.5610   28.5030 C.3   301  0GE301      0.1757
     19  C          4.8900   36.7080   27.5600 C.2   301  0GE301      0.2596
     20  O          5.8290   36.0170   27.9830 O.2   301  0GE301     -0.2718
     21  CB         4.8570   38.7340   29.0230 C.3   301  0GE301      0.0405
     22  CG         4.4010   40.0780   28.4540 C.3   301  0GE301      0.1161
     23  CD         5.4680   41.1620   28.5710 C.2   301  0GE301      0.3649
     24  OE1        5.8230   41.5910   29.7330 O.co2 301  0GE301     -0.2457
     25  OE2        6.0140   41.6450   27.5070 O.co2 301  0GE301     -0.2457
     26  N1         4.5410   36.7870   26.2890 N.am  301  0GE301     -0.1942
     27  CA1        5.2300   36.0470   25.2210 C.3   301  0GE301      0.2014
     28  C1         6.6640   36.5530   25.0690 C.2   301  0GE301      0.2638
     29  O1         6.9410   37.7480   25.2500 O.2   301  0GE301     -0.2714
     30  N2         7.5400   35.6610   24.7070 N.am  301  0GE301     -0.1981
     31  CA2        8.9540   36.0120   24.6430 C.3   301  0GE301      0.1524
     32  C2         9.5730   35.9120   23.2280 C.2   301  0GE301      0.1707
     33  O2        10.6870   36.4110   22.9830 O.2   301  0GE301     -0.2943
     34  CB1        9.7730   35.0180   25.4850 C.3   301  0GE301      0.0329
     35  CG1        9.4640   35.1120   26.9710 C.3   301  0GE301      0.0491
     36  CD1        9.9040   33.9030   27.7830 C.3   301  0GE301      0.2205
     37  NE         9.6240   34.1230   29.2080 N.pl3 301  0GE301     -0.0865
     38  CZ        10.0480   33.3280   30.1910 C.cat 301  0GE301      0.5346
     39  NH1        9.7530   33.6110   31.4620 N.pl3 301  0GE301      0.1354
     40  NH2       10.7740   32.2510   29.9080 N.pl3 301  0GE301      0.1354
     41  CM         8.7460   35.6500   22.0010 C.3   301  0GE301      0.0741
@<TRIPOS>BOND
     1    41    32    1
     2    33    32    2
     3    32    31    1
     4    31    30    1
     5    31    34    1
     6    30    28   am
     7    28    27    1
     8    28    29    2
     9    27    26    1
    10    34    35    1
    11    26    19   am
    12    35    36    1
    13    25    23   ar
    14    19    20    2
    15    19    18    1
    16    36    37    1
    17    16    14    2
    18    22    23    1
    19    22    21    1
    20    18    21    1
    21    18    17    1
    22    23    24   ar
    23     2     3   ar
    24     2     1   ar
    25     3     4   ar
    26    37    38    2
    27    14    17    1
    28    14     1    1
    29    14    15    2
    30    40    38    1
    31     1    10   ar
    32    38    39    1
    33     4     5   ar
    34    10     5   ar
    35    10     9   ar
    36     5     6   ar
    37     9     8   ar
    38     6    11    1
    39     6     7   ar
    40    11    13    1
    41    11    12    1
    42     8     7   ar
