@<TRIPOS>MOLECULE
1cvz_C48_A_1.pdb
 30 31 0 0 0
SMALL
GASTEIGER

@<TRIPOS>ATOM
      1  O1        19.6690   10.1570   15.0620 O.2   213  C48213     -0.2732
      2  O2        20.8130   10.0850   18.5970 O.3   213  C48213     -0.2127
      3  O3        21.7840   13.0230   18.4060 O.2   213  C48213     -0.2706
      4  O4        20.5720   11.8160   22.7680 O.2   213  C48213     -0.2730
      5  N5        20.4210   12.2160   20.0410 N.am  213  C48213     -0.1953
      6  N6        22.3760   13.1550   22.7890 N.am  213  C48213     -0.2746
      7  N7        18.5460    8.9840   16.6670 N.am  213  C48213     -0.2049
      8  N8        17.2700    6.1910   13.4120 N.ar  213  C48213     -0.2481
      9  C9        19.4580    9.8660   16.2150 C.2   213  C48213      0.2445
     10  C10       19.3980   11.1080   17.1150 C.3   213  C48213      0.1292
     11  C11       20.7220   11.0750   17.8800 C.3   213  C48213      0.2381
     12  C12       21.0220   12.2000   18.8460 C.2   213  C48213      0.2727
     13  C13       20.6870   13.3310   20.9400 C.3   213  C48213      0.1756
     14  C14       19.4180   14.2230   21.1800 C.3   213  C48213      0.0574
     15  C15       19.6010   15.3490   22.2020 C.ar  213  C48213     -0.0200
     16  C16       20.2950   16.5160   21.8920 C.ar  213  C48213     -0.0042
     17  C17       20.4410   17.5370   22.8840 C.ar  213  C48213     -0.0003
     18  C18       19.8960   17.3780   24.1610 C.ar  213  C48213     -0.0000
     19  C19       19.1950   16.2110   24.4910 C.ar  213  C48213     -0.0003
     20  C20       19.0400   15.1790   23.5110 C.ar  213  C48213     -0.0042
     21  C21       21.2320   12.7120   22.2560 C.2   213  C48213      0.2459
     22  C22       23.2510   14.2180   22.2660 C.3   213  C48213      0.1150
     23  C23       22.8590   12.5470   24.0340 C.3   213  C48213      0.1150
     24  C24       17.6500    8.1900   15.7930 C.3   213  C48213      0.1214
     25  C25       18.0540    6.7770   15.6480 C.3   213  C48213      0.0692
     26  C26       17.1110    5.9990   14.7660 C.ar  213  C48213      0.0608
     27  C27       16.1320    5.1420   15.3190 C.ar  213  C48213      0.0148
     28  C28       15.2930    4.4620   14.3930 C.ar  213  C48213      0.0028
     29  C29       15.4260    4.6350   13.0370 C.ar  213  C48213      0.0207
     30  C30       16.4350    5.5110   12.5640 C.ar  213  C48213      0.0984
@<TRIPOS>BOND
     1    30    29   ar
     2    30     8   ar
     3    29    28   ar
     4     8    26   ar
     5    28    27   ar
     6    26    27   ar
     7    26    25    1
     8     1     9    2
     9    25    24    1
    10    24     7    1
    11     9     7   am
    12     9    10    1
    13    10    11    1
    14    11     2    1
    15    11    12    1
    16     3    12    2
    17    12     5   am
    18     5    13    1
    19    13    14    1
    20    13    21    1
    21    14    15    1
    22    16    15   ar
    23    16    17   ar
    24    15    20   ar
    25    21     4    2
    26    21     6   am
    27    22     6    1
    28     6    23    1
    29    17    18   ar
    30    20    19   ar
    31    18    19   ar
