@<TRIPOS>MOLECULE
1cw1_ICT_A_1.pdb
 13 12 0 0 0
SMALL
GASTEIGER

@<TRIPOS>ATOM
      1  C1        83.4590   65.7520    3.6770 C.2   417  ICT417      0.3952
      2  O1        84.1480   66.7910    3.7980 O.co2 417  ICT417     -0.2428
      3  O2        82.4120   65.6300    4.3350 O.co2 417  ICT417     -0.2428
      4  C2        83.8710   64.7270    2.6560 C.3   417  ICT417      0.2651
      5  O7        84.3230   65.4510    1.4180 O.3   417  ICT417     -0.2103
      6  C3        82.8160   63.6720    2.3490 C.3   417  ICT417      0.1561
      7  C4        83.3260   62.7620    1.2250 C.3   417  ICT417      0.1285
      8  C5        82.8100   61.3610    1.2960 C.2   417  ICT417      0.3655
      9  O3        83.2480   60.5840    0.4130 O.co2 417  ICT417     -0.2456
     10  O4        82.2180   61.0690    2.3580 O.co2 417  ICT417     -0.2456
     11  C6        81.4460   64.2410    1.9800 C.2   417  ICT417      0.3680
     12  O5        80.4750   63.5680    2.2020 O.co2 417  ICT417     -0.2455
     13  O6        81.4000   65.3330    1.4570 O.co2 417  ICT417     -0.2455
@<TRIPOS>BOND
     1     9     8   ar
     2     7     8    1
     3     7     6    1
     4     8    10   ar
     5     5     4    1
     6    13    11   ar
     7    11    12   ar
     8    11     6    1
     9     6     4    1
    10     4     1    1
    11     1     2   ar
    12     1     3   ar
