@<TRIPOS>MOLECULE
1cw2_HSP_A_1.pdb
 17 17 0 0 0
SMALL
GASTEIGER

@<TRIPOS>ATOM
      1  O1        46.9560   30.2100    9.7290 O.3   270  HSP270     -0.3571
      2  O2        48.4690   28.7120    8.5800 O.2   270  HSP270     -0.4601
      3  O3        47.7130   26.3180   16.1920 O.2   270  HSP270     -0.2513
      4  C1        49.6490   24.6200   15.6400 C.ar  270  HSP270      0.0118
      5  C2        50.1260   25.9330   15.7100 C.ar  270  HSP270      0.0950
      6  C3        51.4640   26.2280   15.3170 C.ar  270  HSP270      0.2037
      7  C4        52.2950   25.1950   14.8580 C.ar  270  HSP270      0.0426
      8  C5        51.8110   23.8760   14.7890 C.ar  270  HSP270      0.0033
      9  C6        50.4920   23.5920   15.1780 C.ar  270  HSP270      0.0008
     10  O4        51.9530   27.5050   15.3800 O.3   270  HSP270     -0.2860
     11  S1        49.0580   27.2410   16.3030 S.O   270  HSP270      0.0679
     12  C7        49.0490   28.4950   14.9860 C.3   270  HSP270      0.0965
     13  C8        48.6040   27.8780   13.6700 C.3   270  HSP270      0.0152
     14  C9        48.5950   28.9230   12.5610 C.3   270  HSP270      0.0087
     15  C10       48.1530   28.2930   11.2330 C.3   270  HSP270      0.0590
     16  P1        48.2270   29.3870    9.9100 P.3   270  HSP270      0.1172
     17  O5        49.3350   30.4200   10.0340 O.3   270  HSP270     -0.3571
@<TRIPOS>BOND
     1     2    16    2
     2     1    16    1
     3    16    17    1
     4    16    15    1
     5    15    14    1
     6    14    13    1
     7    13    12    1
     8     8     7   ar
     9     8     9   ar
    10     7     6   ar
    11    12    11    1
    12     9     4   ar
    13     6    10    1
    14     6     5   ar
    15     4     5   ar
    16     5    11    1
    17     3    11    2
