@<TRIPOS>MOLECULE
1cw2_PLP_B_1.pdb
 15 15 0 0 0
SMALL
GASTEIGER

@<TRIPOS>ATOM
      1  N1        84.6860   13.8330   12.2200 N.2   900  PLP900     -0.2505
      2  C2        84.7400   14.1510   10.8770 C.2   900  PLP900      0.0675
      3  C2A       85.9960   13.9770   10.0820 C.3   900  PLP900      0.0499
      4  C3        83.5890   14.6560   10.2780 C.3   900  PLP900      0.1913
      5  O3        83.6280   14.9860    8.9170 O.3   900  PLP900     -0.2167
      6  C4        82.3720   14.8610   10.9500 C.3   900  PLP900      0.0581
      7  C4A       81.3520   14.8960    9.9040 C.3   900  PLP900      0.0075
      8  C5        82.4110   14.5510   12.3220 C.2   900  PLP900      0.0073
      9  C6        83.5320   14.0400   12.9190 C.2   900  PLP900      0.0921
     10  C5A       81.2060   14.8860   13.2620 C.3   900  PLP900      0.1776
     11  O4P       80.7120   13.6720   13.5250 O.3   900  PLP900     -0.2656
     12  P         79.8210   12.5590   13.9710 P.3   900  PLP900      0.5329
     13  O1P       78.4500   12.2460   13.5130 O.2   900  PLP900     -0.2224
     14  O2P       80.5830   11.3820   13.5730 O.3   900  PLP900     -0.1145
     15  O3P       79.8950   12.7460   15.4110 O.3   900  PLP900     -0.1145
@<TRIPOS>BOND
     1     5     4    1
     2     7     6    1
     3     3     2    1
     4     4     2    1
     5     4     6    1
     6     2     1    2
     7     6     8    1
     8     1     9    1
     9     8     9    2
    10     8    10    1
    11    10    11    1
    12    13    12    2
    13    11    12    1
    14    14    12    1
    15    12    15    1
