@<TRIPOS>MOLECULE
1cw3_NAD_A_1.pdb
 44 48 0 0 0
SMALL
GASTEIGER

@<TRIPOS>ATOM
      1  PA        -7.3080  -31.7590   60.8020 P.3   1502  NAD1502     0.2189
      2  O1A       -8.2200  -30.7340   60.2430 O.2   1502  NAD1502    -0.5170
      3  O2A       -7.8290  -32.8650   61.6360 O.3   1502  NAD1502    -0.4371
      4  O5B       -6.1850  -31.0920   61.7330 O.3   1502  NAD1502    -0.3112
      5  C5B       -5.2920  -30.0560   61.3050 C.3   1502  NAD1502     0.1813
      6  C4B       -4.7300  -29.4250   62.5620 C.3   1502  NAD1502     0.1821
      7  O4B       -5.8720  -29.1150   63.3870 O.3   1502  NAD1502    -0.3135
      8  C3B       -3.8940  -30.3440   63.4310 C.3   1502  NAD1502     0.2184
      9  O3B       -2.8980  -29.5690   64.1220 O.3   1502  NAD1502    -0.2174
     10  C2B       -4.8820  -30.9620   64.4200 C.3   1502  NAD1502     0.2570
     11  O2B       -4.1960  -31.3840   65.6060 O.3   1502  NAD1502    -0.2130
     12  C1B       -5.7820  -29.7760   64.6740 C.3   1502  NAD1502     0.3186
     13  N9A       -7.1260  -30.0660   65.2260 N.pl3 1502  NAD1502    -0.1439
     14  C8A       -7.8310  -31.2010   65.1160 C.3   1502  NAD1502     0.3377
     15  N7A       -9.0550  -31.0650   65.6530 N.2   1502  NAD1502    -0.2095
     16  C5A       -9.1010  -29.8130   66.0810 C.2   1502  NAD1502     0.2526
     17  C6A      -10.1620  -29.2010   66.7600 C.2   1502  NAD1502     0.4393
     18  N6A      -11.3080  -29.8020   67.0270 N.pl3 1502  NAD1502     0.2180
     19  N1A       -9.9870  -27.9240   67.1450 N.2   1502  NAD1502     0.0021
     20  C2A       -8.8450  -27.2980   66.8710 C.3   1502  NAD1502     0.5254
     21  N3A       -7.8290  -27.8870   66.2330 N.2   1502  NAD1502    -0.0055
     22  C4A       -7.9140  -29.1660   65.8220 C.2   1502  NAD1502     0.3518
     23  O3        -6.4950  -32.4880   59.6230 O.3   1502  NAD1502    -0.2703
     24  PN        -5.8810  -33.9800   59.5400 P.3   1502  NAD1502     0.2189
     25  O1N       -5.4460  -34.3680   60.8980 O.3   1502  NAD1502    -0.4371
     26  O2N       -4.8390  -34.0030   58.4970 O.2   1502  NAD1502    -0.5170
     27  O5D       -7.1720  -34.8870   59.1730 O.3   1502  NAD1502    -0.3112
     28  C5D       -7.1630  -35.6690   57.9750 C.3   1502  NAD1502     0.1813
     29  C4D       -7.9670  -35.1820   56.7640 C.3   1502  NAD1502     0.1799
     30  O4D       -8.1020  -33.7480   56.5750 O.3   1502  NAD1502    -0.3327
     31  C3D       -7.3110  -35.7060   55.5040 C.3   1502  NAD1502     0.2158
     32  O3D       -7.7790  -37.0310   55.1880 O.3   1502  NAD1502    -0.2175
     33  C2D       -7.7210  -34.6680   54.4680 C.3   1502  NAD1502     0.2309
     34  O2D       -9.0090  -35.0540   53.9340 O.3   1502  NAD1502    -0.2158
     35  C1D       -7.7420  -33.3310   55.2230 C.3   1502  NAD1502     0.2263
     36  N1N       -6.5350  -32.4340   55.2600 N.pl3 1502  NAD1502    -0.2787
     37  C2N       -6.2370  -31.3410   54.4030 C.3   1502  NAD1502     0.1244
     38  C3N       -5.1250  -30.5260   54.7170 C.2   1502  NAD1502     0.0544
     39  C7N       -4.6880  -29.3120   53.9060 C.2   1502  NAD1502     0.2818
     40  O7N       -3.5030  -28.9780   53.8110 O.2   1502  NAD1502    -0.2670
     41  N7N       -5.6830  -28.6290   53.3830 N.am  1502  NAD1502    -0.0839
     42  C4N       -4.3500  -30.7550   55.8430 C.2   1502  NAD1502     0.0033
     43  C5N       -4.6270  -31.7960   56.6990 C.2   1502  NAD1502     0.0157
     44  C6N       -5.7030  -32.6040   56.3760 C.2   1502  NAD1502     0.0633
@<TRIPOS>BOND
     1    41    39   am
     2    40    39    2
     3    39    38    1
     4    34    33    1
     5    37    38    1
     6    37    36    1
     7    33    35    1
     8    33    31    1
     9    38    42    2
    10    32    31    1
    11    35    36    1
    12    35    30    1
    13    36    44    1
    14    31    29    1
    15    42    43    1
    16    44    43    2
    17    30    29    1
    18    29    28    1
    19    28    27    1
    20    26    24    2
    21    27    24    1
    22    24    23    1
    23    24    25    1
    24    23     1    1
    25     2     1    2
    26     1     3    1
    27     1     4    1
    28     5     4    1
    29     5     6    1
    30     6     7    1
    31     6     8    1
    32     7    12    1
    33     8     9    1
    34     8    10    1
    35    10    12    1
    36    10    11    1
    37    12    13    1
    38    14    13    1
    39    14    15    1
    40    13    22    1
    41    15    16    2
    42    22    16    1
    43    22    21    2
    44    16    17    1
    45    21    20    1
    46    17    18    1
    47    17    19    2
    48    20    19    1
