@<TRIPOS>MOLECULE
1cw4_AKG_A_1.pdb
 10 9 0 0 0
SMALL
GASTEIGER

@<TRIPOS>ATOM
      1  C1        82.4990   65.3850    3.5220 C.2   417  AKG417      0.4219
      2  O1        81.3630   64.9570    3.7750 O.co2 417  AKG417     -0.2373
      3  O2        82.9210   66.4970    3.9100 O.co2 417  AKG417     -0.2373
      4  C2        83.2510   64.7410    2.5150 C.2   417  AKG417      0.2526
      5  O5        83.5050   65.4720    1.5470 O.2   417  AKG417     -0.2843
      6  C3        83.9220   63.3970    2.6980 C.3   417  AKG417      0.0881
      7  C4        84.0720   62.6310    1.3920 C.3   417  AKG417      0.1224
      8  C5        82.8750   61.7610    1.0620 C.2   417  AKG417      0.3653
      9  O3        83.0850   60.6910    0.4620 O.co2 417  AKG417     -0.2456
     10  O4        81.7320   62.1250    1.3950 O.co2 417  AKG417     -0.2456
@<TRIPOS>BOND
     1     9     8   ar
     2     8     7    1
     3     8    10   ar
     4     7     6    1
     5     5     4    2
     6     4     6    1
     7     4     1    1
     8     1     2   ar
     9     1     3   ar
