@<TRIPOS>MOLECULE
1cw7_ICT_A_1.pdb
 13 12 0 0 0
SMALL
GASTEIGER

@<TRIPOS>ATOM
      1  C1        82.9020   65.4670    3.6730 C.2   417  ICT417      0.3952
      2  O1        83.1030   65.3260    4.8980 O.co2 417  ICT417     -0.2428
      3  O2        82.6550   66.5960    3.1800 O.co2 417  ICT417     -0.2428
      4  C2        82.9740   64.2740    2.7400 C.3   417  ICT417      0.2651
      5  O7        83.6680   64.8050    1.5150 O.3   417  ICT417     -0.2103
      6  C3        81.5540   63.6960    2.4980 C.3   417  ICT417      0.1561
      7  C4        81.5100   62.2230    2.0170 C.3   417  ICT417      0.1285
      8  C5        82.4120   61.8050    0.8680 C.2   417  ICT417      0.3655
      9  O3        81.8880   61.8380   -0.2770 O.co2 417  ICT417     -0.2456
     10  O4        83.4520   61.1910    1.2160 O.co2 417  ICT417     -0.2456
     11  C6        80.5740   64.6570    1.8290 C.2   417  ICT417      0.3680
     12  O5        80.0510   64.3180    0.8080 O.co2 417  ICT417     -0.2455
     13  O6        80.3340   65.6920    2.3810 O.co2 417  ICT417     -0.2455
@<TRIPOS>BOND
     1     9     8   ar
     2    12    11   ar
     3     8    10   ar
     4     8     7    1
     5     5     4    1
     6    11    13   ar
     7    11     6    1
     8     7     6    1
     9     6     4    1
    10     4     1    1
    11     3     1   ar
    12     1     2   ar
