@<TRIPOS>MOLECULE
1cwn_NAP_A_1.pdb
 48 52 0 0 0
SMALL
GASTEIGER

@<TRIPOS>ATOM
      1  PA       -33.0930   31.2000   16.1290 P.3   350  NAP350      0.2189
      2  O1A      -31.6440   31.3750   16.3020 O.2   350  NAP350     -0.5170
      3  O2A      -33.9570   32.2460   16.6370 O.3   350  NAP350     -0.4371
      4  O5B      -33.4300   29.8260   16.8860 O.3   350  NAP350     -0.3112
      5  C5B      -34.7530   29.3260   17.0300 C.3   350  NAP350      0.1813
      6  C4B      -34.7700   28.0240   17.8650 C.3   350  NAP350      0.1820
      7  O4B      -34.3030   28.1970   19.2070 O.3   350  NAP350     -0.3136
      8  C3B      -36.1790   27.5390   18.0330 C.3   350  NAP350      0.2157
      9  O3B      -36.1710   26.1380   17.8530 O.3   350  NAP350     -0.2175
     10  C2B      -36.6890   28.0040   19.3970 C.3   350  NAP350      0.2314
     11  O2B      -37.5310   26.9690   19.9670 O.3   350  NAP350     -0.2630
     12  C1B      -35.3740   28.0690   20.1510 C.3   350  NAP350      0.3158
     13  N9A      -35.3170   29.0100   21.3130 N.pl3 350  NAP350     -0.1439
     14  C8A      -35.7690   30.2710   21.4160 C.3   350  NAP350      0.3377
     15  N7A      -35.3430   30.8560   22.5300 N.2   350  NAP350     -0.2095
     16  C5A      -34.6140   29.8930   23.1220 C.2   350  NAP350      0.2526
     17  C6A      -34.0910   29.9320   24.4220 C.2   350  NAP350      0.4393
     18  N6A      -34.2850   30.9760   25.2440 N.pl3 350  NAP350      0.2180
     19  N1A      -33.4050   28.8250   24.8240 N.2   350  NAP350      0.0021
     20  C2A      -33.2750   27.7360   24.0370 C.3   350  NAP350      0.5254
     21  N3A      -33.8710   27.6610   22.8300 N.2   350  NAP350     -0.0055
     22  C4A      -34.5630   28.7460   22.3610 C.2   350  NAP350      0.3518
     23  O3       -33.4490   30.7090   14.6350 O.3   350  NAP350     -0.2703
     24  PN       -34.1480   31.3750   13.3320 P.3   350  NAP350      0.2189
     25  O1N      -35.5900   31.1640   13.3940 O.3   350  NAP350     -0.4371
     26  O2N      -33.3800   30.7780   12.1970 O.2   350  NAP350     -0.5170
     27  O5D      -33.8300   32.9260   13.5370 O.3   350  NAP350     -0.3112
     28  C5D      -34.7810   33.8690   14.0200 C.3   350  NAP350      0.1813
     29  C4D      -35.5830   34.6240   12.9850 C.3   350  NAP350      0.1799
     30  O4D      -34.7200   35.2170   12.0160 O.3   350  NAP350     -0.3327
     31  C3D      -36.4400   33.7750   12.0870 C.3   350  NAP350      0.2158
     32  O3D      -37.5570   33.1360   12.7010 O.3   350  NAP350     -0.2175
     33  C2D      -36.7620   34.7570   10.9730 C.3   350  NAP350      0.2309
     34  O2D      -37.6950   35.6920   11.5060 O.3   350  NAP350     -0.2158
     35  C1D      -35.3830   35.3080   10.7360 C.3   350  NAP350      0.2263
     36  N1N      -34.5610   34.6860    9.6640 N.pl3 350  NAP350     -0.2787
     37  C2N      -34.3830   35.4400    8.5140 C.3   350  NAP350      0.1244
     38  C3N      -33.7440   34.8900    7.4060 C.2   350  NAP350      0.0544
     39  C7N      -33.5360   35.7050    6.1080 C.2   350  NAP350      0.2818
     40  O7N      -33.1320   35.1260    5.1270 O.2   350  NAP350     -0.2670
     41  N7N      -33.7220   37.0100    6.1470 N.am  350  NAP350     -0.0839
     42  C4N      -33.2610   33.5710    7.5110 C.2   350  NAP350      0.0033
     43  C5N      -33.3700   32.8230    8.7080 C.2   350  NAP350      0.0157
     44  C6N      -34.0420   33.4030    9.7800 C.2   350  NAP350      0.0633
     45  P2B      -39.0790   27.1860   20.2880 P.3   350  NAP350      0.5328
     46  O1X      -39.6510   28.1280   19.2700 O.2   350  NAP350     -0.2224
     47  O2X      -39.6160   25.8510   20.2580 O.3   350  NAP350     -0.1145
     48  O3X      -38.9420   27.8390   21.5810 O.3   350  NAP350     -0.1145
@<TRIPOS>BOND
     1    40    39    2
     2    39    41   am
     3    39    38    1
     4    38    42    2
     5    38    37    1
     6    42    43    1
     7    37    36    1
     8    43    44    2
     9    36    44    1
    10    36    35    1
    11    35    33    1
    12    35    30    1
    13    33    34    1
    14    33    31    1
    15    30    29    1
    16    31    32    1
    17    31    29    1
    18    26    24    2
    19    29    28    1
    20    24    25    1
    21    24    27    1
    22    24    23    1
    23    27    28    1
    24    23     1    1
    25     1     2    2
    26     1     3    1
    27     1     4    1
    28     4     5    1
    29     5     6    1
    30     9     8    1
    31     6     8    1
    32     6     7    1
    33     8    10    1
    34     7    12    1
    35    46    45    2
    36    10    11    1
    37    10    12    1
    38    11    45    1
    39    12    13    1
    40    47    45    1
    41    45    48    1
    42    13    14    1
    43    13    22    1
    44    14    15    1
    45    22    21    2
    46    22    16    1
    47    15    16    2
    48    21    20    1
    49    16    17    1
    50    20    19    1
    51    17    19    2
    52    17    18    1
