@<TRIPOS>MOLECULE
1cwp_NUC_E_1.pdb
 42 46 0 0 0
SMALL
GASTEIGER

@<TRIPOS>ATOM
      1  P         82.5750   -7.6020   46.3150 P.3   201  RA201       0.3942
      2  OP1       81.4710   -8.5170   46.6830 O.3   201  RA201      -0.1425
      3  OP2       82.1620   -6.4490   45.4830 O.3   201  RA201      -0.1425
      4  O5'       83.8170   -8.3560   45.6430 O.3   201  RA201      -0.2926
      5  C5'       85.1450   -7.8970   45.9750 C.3   201  RA201       0.1830
      6  C4'       86.2440   -8.6000   45.1380 C.3   201  RA201       0.1794
      7  O4'       86.7170   -9.7990   45.8500 O.3   201  RA201      -0.3136
      8  C3'       85.8570   -9.1460   43.7730 C.3   201  RA201       0.1884
      9  O3'       85.9180   -8.2050   42.7450 O.3   201  RA201      -0.3111
     10  C2'       86.8700  -10.2000   43.4700 C.3   201  RA201       0.2541
     11  O2'       88.0100   -9.6260   42.8530 O.3   201  RA201      -0.2131
     12  C1'       87.1030  -10.7820   44.8510 C.3   201  RA201       0.3185
     13  N9        86.3650  -12.0700   45.0180 N.pl3 201  RA201      -0.1439
     14  C8        86.7630  -13.3000   44.5920 C.3   201  RA201       0.3377
     15  N7        85.9430  -14.2610   44.8780 N.2   201  RA201      -0.2095
     16  C5        84.9180  -13.6320   45.5420 C.2   201  RA201       0.2526
     17  C6        83.7220  -14.1030   46.1190 C.2   201  RA201       0.4393
     18  N6        83.3630  -15.4040   46.1020 N.pl3 201  RA201       0.2180
     19  N1        82.9190  -13.2070   46.7030 N.2   201  RA201       0.0021
     20  C2        83.2870  -11.9170   46.7120 C.3   201  RA201       0.5254
     21  N3        84.3760  -11.3550   46.2110 N.2   201  RA201      -0.0055
     22  C4        85.1530  -12.2870   45.6370 C.2   201  RA201       0.3518
     23  P         85.1350   -8.5380   41.4270 P.3   202  RU202       0.2141
     24  OP1       85.3740   -7.4570   40.4560 O.2   202  RU202      -0.5172
     25  OP2       83.7350   -8.7840   41.8160 O.3   202  RU202      -0.4373
     26  O5'       85.7540   -9.9600   40.8890 O.3   202  RU202      -0.3114
     27  C5'       87.0290  -10.0160   40.1700 C.3   202  RU202       0.1813
     28  C4'       87.2320  -11.3810   39.4070 C.3   202  RU202       0.1799
     29  O4'       87.2730  -12.5000   40.3670 O.3   202  RU202      -0.3320
     30  C3'       86.1300  -11.7980   38.4320 C.3   202  RU202       0.2158
     31  O3'       86.2780  -11.1700   37.1640 O.3   202  RU202      -0.2175
     32  C2'       86.2920  -13.3180   38.3550 C.3   202  RU202       0.2319
     33  O2'       87.2550  -13.6880   37.3840 O.3   202  RU202      -0.2157
     34  C1'       86.6800  -13.6810   39.7890 C.3   202  RU202       0.2401
     35  N1        85.5400  -14.1260   40.6430 N.am  202  RU202      -0.1766
     36  C2        85.5540  -15.4350   41.0630 C.1   202  RU202       0.2845
     37  O2        86.4460  -16.2120   40.7680 O.2   202  RU202      -0.1918
     38  N3        84.4940  -15.8360   41.8530 N.2   202  RU202      -0.2452
     39  C4        83.4280  -15.0420   42.2550 C.1   202  RU202       0.2182
     40  O4        82.5370  -15.5190   42.9620 O.2   202  RU202      -0.2085
     41  C5        83.4940  -13.6840   41.7720 C.2   202  RU202       0.1242
     42  C6        84.5160  -13.2670   41.0000 C.2   202  RU202       0.0929
@<TRIPOS>BOND
     1    31    30    1
     2    33    32    1
     3    32    30    1
     4    32    34    1
     5    30    28    1
     6    28    27    1
     7    28    29    1
     8    34    29    1
     9    34    35    1
    10    27    26    1
    11    24    23    2
    12    35    42    1
    13    35    36   am
    14    37    36    2
    15    26    23    1
    16    42    41    2
    17    36    38    2
    18    23    25    1
    19    23     9    1
    20    41    39    1
    21    38    39    2
    22    39    40    2
    23     9     8    1
    24    11    10    1
    25    10     8    1
    26    10    12    1
    27     8     6    1
    28    14    15    1
    29    14    13    1
    30    12    13    1
    31    12     7    1
    32    15    16    2
    33    13    22    1
    34     6     7    1
    35     6     5    1
    36     3     1    1
    37    16    22    1
    38    16    17    1
    39    22    21    2
    40     4     5    1
    41     4     1    1
    42    18    17    1
    43    17    19    2
    44    21    20    1
    45     1     2    1
    46    19    20    1
