@<TRIPOS>MOLECULE
1cwq_RET_A_1.pdb
 20 20 0 0 0
SMALL
GASTEIGER

@<TRIPOS>ATOM
      1  C1       -15.1390   45.4060    0.3680 C.3   601  RET601      0.0183
      2  C2       -14.8340   46.4020    1.5790 C.3   601  RET601      0.0044
      3  C3       -14.1870   47.6720    1.3020 C.3   601  RET601      0.0047
      4  C4       -14.7440   48.4180    0.1020 C.3   601  RET601      0.0217
      5  C5       -15.0450   47.5560   -1.1310 C.2   601  RET601     -0.0479
      6  C6       -15.2340   46.1780   -1.0680 C.2   601  RET601     -0.0307
      7  C7       -15.5340   45.3840   -2.3650 C.2   601  RET601     -0.0052
      8  C8       -15.9590   44.1240   -2.5420 C.2   601  RET601     -0.0046
      9  C9       -16.4130   43.4600   -3.7480 C.2   601  RET601     -0.0219
     10  C10      -16.4660   42.0990   -3.7180 C.2   601  RET601     -0.0043
     11  C11      -16.9350   41.1570   -4.7340 C.2   601  RET601     -0.0007
     12  C12      -17.1680   39.8560   -4.4950 C.2   601  RET601     -0.0046
     13  C13      -17.5750   38.7780   -5.4240 C.2   601  RET601     -0.0261
     14  C14      -17.5300   37.5630   -4.8510 C.2   601  RET601     -0.0300
     15  C15      -17.7200   36.2360   -5.3490 C.3   601  RET601      0.0304
     16  C16      -13.9850   44.4000    0.4450 C.3   601  RET601      0.0043
     17  C17      -16.4240   44.6970    0.8130 C.3   601  RET601      0.0043
     18  C18      -15.0860   48.4590   -2.3670 C.3   601  RET601      0.0260
     19  C19      -16.8090   44.3330   -4.9220 C.3   601  RET601      0.0310
     20  C20      -17.9880   39.0520   -6.8620 C.3   601  RET601      0.0307
@<TRIPOS>BOND
     1    20    13    1
     2    13    14    2
     3    13    12    1
     4    15    14    1
     5    19     9    1
     6    11    12    2
     7    11    10    1
     8     9    10    2
     9     9     8    1
    10     8     7    2
    11    18     5    1
    12     7     6    1
    13     5     6    2
    14     5     4    1
    15     6     1    1
    16     4     3    1
    17     1    16    1
    18     1    17    1
    19     1     2    1
    20     3     2    1
