@<TRIPOS>MOLECULE
1cwu_NAD_A_1.pdb
 44 48 0 0 0
SMALL
GASTEIGER

@<TRIPOS>ATOM
      1  PA         1.6370   77.6550   25.5120 P.3   501  NAD501      0.2189
      2  O1A        0.5380   78.2240   26.3600 O.3   501  NAD501     -0.4371
      3  O2A        3.0660   78.0710   25.7530 O.2   501  NAD501     -0.5170
      4  O5B        1.3850   77.8500   23.9520 O.3   501  NAD501     -0.3112
      5  C5B        0.0470   78.0740   23.3540 C.3   501  NAD501      0.1813
      6  C4B        0.0480   79.2560   22.4810 C.3   501  NAD501      0.1821
      7  O4B       -1.2320   79.2820   21.7080 O.3   501  NAD501     -0.3135
      8  C3B        0.0610   80.7140   23.1410 C.3   501  NAD501      0.2184
      9  O3B        0.8740   81.5980   22.2730 O.3   501  NAD501     -0.2174
     10  C2B       -1.3810   81.1430   23.0510 C.3   501  NAD501      0.2570
     11  O2B       -1.6330   82.4310   23.2310 O.3   501  NAD501     -0.2130
     12  C1B       -1.5720   80.6080   21.6130 C.3   501  NAD501      0.3186
     13  N9A       -2.9270   80.6680   21.1370 N.pl3 501  NAD501     -0.1439
     14  C8A       -4.0810   80.2380   21.7220 C.3   501  NAD501      0.3377
     15  N7A       -5.1690   80.4200   21.0270 N.2   501  NAD501     -0.2095
     16  C5A       -4.8100   81.0530   19.9130 C.2   501  NAD501      0.2526
     17  C6A       -5.6340   81.6130   18.8510 C.2   501  NAD501      0.4393
     18  N6A       -6.8980   81.4710   18.7570 N.pl3 501  NAD501      0.2180
     19  N1A       -4.9070   82.2470   17.8810 N.2   501  NAD501      0.0021
     20  C2A       -3.5970   82.4280   17.9000 C.3   501  NAD501      0.5254
     21  N3A       -2.7870   81.9790   18.9410 N.2   501  NAD501     -0.0055
     22  C4A       -3.4190   81.2310   19.9230 C.2   501  NAD501      0.3518
     23  O3         1.5680   76.1160   25.6020 O.3   501  NAD501     -0.2703
     24  PN         2.3290   74.8430   24.8570 P.3   501  NAD501      0.2189
     25  O1N        2.0160   73.7010   25.7220 O.3   501  NAD501     -0.4371
     26  O2N        3.7360   75.2010   24.4670 O.2   501  NAD501     -0.5170
     27  O5D        1.5210   74.7450   23.4370 O.3   501  NAD501     -0.3112
     28  C5D        2.1760   74.5130   22.1780 C.3   501  NAD501      0.1813
     29  C4D        1.3940   73.6870   21.2610 C.3   501  NAD501      0.1799
     30  O4D        1.9160   72.2870   21.5280 O.3   501  NAD501     -0.3327
     31  C3D       -0.1710   73.4620   21.4680 C.3   501  NAD501      0.2158
     32  O3D       -0.6830   73.0830   20.2330 O.3   501  NAD501     -0.2175
     33  C2D       -0.2960   72.3290   22.5160 C.3   501  NAD501      0.2309
     34  O2D       -1.4240   71.5850   22.3310 O.3   501  NAD501     -0.2158
     35  C1D        0.9080   71.5130   22.1210 C.3   501  NAD501      0.2263
     36  N1N        1.4550   70.5420   23.1630 N.pl3 501  NAD501     -0.2787
     37  C2N        1.7250   70.8960   24.5270 C.3   501  NAD501      0.1244
     38  C3N        2.2150   69.8000   25.2460 C.2   501  NAD501      0.0544
     39  C7N        2.5680   70.1010   26.7420 C.2   501  NAD501      0.2818
     40  O7N        2.9400   69.1370   27.3900 O.2   501  NAD501     -0.2670
     41  N7N        2.3890   71.3310   27.2350 N.am  501  NAD501     -0.0839
     42  C4N        2.4180   68.4750   24.7720 C.2   501  NAD501      0.0033
     43  C5N        2.0940   68.2870   23.3850 C.2   501  NAD501      0.0157
     44  C6N        1.6150   69.3110   22.6080 C.2   501  NAD501      0.0633
@<TRIPOS>BOND
     1    19    20    1
     2    19    17    2
     3    20    21    1
     4    18    17    1
     5    17    16    1
     6    21    22    2
     7    16    22    1
     8    16    15    2
     9    22    13    1
    10    32    31    1
    11    15    14    1
    12    13    12    1
    13    13    14    1
    14    29    31    1
    15    29    30    1
    16    29    28    1
    17    31    33    1
    18    30    35    1
    19    12     7    1
    20    12    10    1
    21     7     6    1
    22    35    33    1
    23    35    36    1
    24    28    27    1
    25     9     8    1
    26    34    33    1
    27     6     8    1
    28     6     5    1
    29    44    36    1
    30    44    43    2
    31    10     8    1
    32    10    11    1
    33    36    37    1
    34     5     4    1
    35    43    42    1
    36    27    24    1
    37     4     1    1
    38    26    24    2
    39    37    38    1
    40    42    38    2
    41    24    23    1
    42    24    25    1
    43    38    39    1
    44     1    23    1
    45     1     3    2
    46     1     2    1
    47    39    41   am
    48    39    40    2
