@<TRIPOS>MOLECULE
1cwu_TDB_A_1.pdb
 17 18 0 0 0
SMALL
GASTEIGER

@<TRIPOS>ATOM
      1  S1        -0.7130   70.0740   27.0610 S.2   502  TDB502      0.0000
      2  C7        -0.8400   68.8000   25.9740 C.ar  502  TDB502      0.0000
      3  C8        -0.4400   67.4060   26.3490 C.3   502  TDB502      0.0000
      4  C12       -1.3930   69.2170   24.8090 C.ar  502  TDB502      0.0000
      5  C13       -1.6960   70.5830   24.8190 C.ar  502  TDB502      0.0000
      6  C14       -1.3090   71.2120   25.9930 C.ar  502  TDB502      0.0000
      7  C2        -1.5450   72.6150   26.1420 C.ar  502  TDB502      0.0000
      8  N2        -2.0990   73.3680   25.2420 N.ar  502  TDB502      0.0000
      9  N1        -2.4780   72.8200   24.0480 N.ar  502  TDB502      0.0000
     10  B1        -2.3530   71.4150   23.7340 B     502  TDB502      0.0000
     11  O1        -3.4030   70.7350   22.9890 O.3   502  TDB502      0.0000
     12  S15       -3.2530   73.9740   23.1060 S.O2  502  TDB502      0.0000
     13  O15       -2.4380   75.1750   22.8940 O.2   502  TDB502      0.0000
     14  O16       -3.7920   73.3410   21.8920 O.2   502  TDB502      0.0000
     15  C15       -4.6060   74.3110   24.0540 C.3   502  TDB502      0.0000
     16  C16       -5.5150   73.2410   24.1860 C.3   502  TDB502      0.0000
     17  C17       -6.5240   73.3120   25.4770 C.3   502  TDB502      0.0000
@<TRIPOS>BOND
     1    14    12    2
     2    13    12    2
     3    11    10    1
     4    12     9    1
     5    12    15    1
     6    10     9   ar
     7    10     5   ar
     8     9     8   ar
     9    15    16    1
    10    16    17    1
    11     4     5   ar
    12     4     2   ar
    13     5     6   ar
    14     8     7   ar
    15     2     3    1
    16     2     1   ar
    17     6     7   ar
    18     6     1   ar
