@<TRIPOS>MOLECULE
1cx2_S58_A_1.pdb
 28 30 0 0 0
SMALL
GASTEIGER

@<TRIPOS>ATOM
      1  C1        27.5570   21.7340   16.8580 C.ar  701  S58701      0.0440
      2  C2        26.3220   22.0290   16.3660 C.ar  701  S58701      0.0842
      3  C3        27.3340   21.1490   18.2120 C.ar  701  S58701      0.1740
      4  C4        28.3530   20.7370   19.2320 C.3   701  S58701      0.4366
      5  C5        24.0280   21.4680   17.1130 C.ar  701  S58701      0.0829
      6  C6        23.4160   20.4550   17.8620 C.ar  701  S58701      0.0205
      7  C7        22.0460   20.2640   17.7610 C.ar  701  S58701      0.0214
      8  C8        21.2860   21.0960   16.9070 C.ar  701  S58701      0.1218
      9  C9        21.9030   22.1120   16.1580 C.ar  701  S58701      0.0214
     10  C10       23.2840   22.2960   16.2610 C.ar  701  S58701      0.0205
     11  C11       26.0700   22.6920   15.0500 C.ar  701  S58701      0.0178
     12  C12       26.3580   24.0720   14.8960 C.ar  701  S58701      0.0020
     13  C13       26.2700   24.6760   13.6280 C.ar  701  S58701      0.0067
     14  C14       25.9040   23.9150   12.5210 C.ar  701  S58701      0.0346
     15  C15       25.5890   22.5600   12.6710 C.ar  701  S58701      0.0067
     16  C16       25.6730   21.9420   13.9410 C.ar  701  S58701      0.0020
     17  N1        25.3740   21.6570   17.2920 N.ar  701  S58701     -0.2297
     18  N2        26.0470   21.1010   18.4240 N.ar  701  S58701     -0.1611
     19  N3        19.1480   19.1560   17.0210 N.3   701  S58701     -0.2035
     20  O1        19.0440   21.3160   15.4960 O.2   701  S58701     -0.1532
     21  O2        18.8590   21.6450   17.8080 O.2   701  S58701     -0.1532
     22 BR1        25.9990   24.6630   10.8360 Br    701  S58701     -0.0490
     23  F1        28.7090   21.8160   19.9730 F     701  S58701     -0.1643
     24  F2        29.4120   20.1820   18.6220 F     701  S58701     -0.1643
     25  F3        27.7870   19.8300   20.0360 F     701  S58701     -0.1643
     26  S1        19.4820   20.8620   16.7780 S.O2  701  S58701      0.0572
     27 HN31       19.6290   18.4880   16.4940 H     701  S58701      0.1442
     28 HN32       18.4830   18.8730   17.6850 H     701  S58701      0.1442
@<TRIPOS>BOND
     1    22    14    1
     2    14    15   ar
     3    14    13   ar
     4    15    16   ar
     5    13    12   ar
     6    16    11   ar
     7    12    11   ar
     8    11     2    1
     9    20    26    2
    10     9    10   ar
    11     9     8   ar
    12    10     5   ar
    13     2     1   ar
    14     2    17   ar
    15    27    19    1
    16    26     8    1
    17    26    19    1
    18    26    21    2
    19     1     3   ar
    20     8     7   ar
    21    19    28    1
    22     5    17    1
    23     5     6   ar
    24    17    18   ar
    25     7     6   ar
    26     3    18   ar
    27     3     4    1
    28    24     4    1
    29     4    23    1
    30     4    25    1
