@<TRIPOS>MOLECULE
1cx2_HEM_A_1.pdb
 43 50 0 0 0
SMALL
GASTEIGER

@<TRIPOS>ATOM
      1  CHA       23.7790   34.5930   -0.1380 C.2   682  HEM682      0.0000
      2  CHB       20.5330   38.0010    0.5960 C.2   682  HEM682      0.0000
      3  CHC       20.4300   36.8810    5.2460 C.2   682  HEM682      0.0000
      4  CHD       23.3770   33.2150    4.4270 C.2   682  HEM682      0.0000
      5  C1A       22.8530   35.5660   -0.3540 C.ar  682  HEM682      0.0000
      6  C2A       22.6860   36.2190   -1.6170 C.ar  682  HEM682      0.0000
      7  C3A       21.7780   37.2070   -1.3950 C.ar  682  HEM682      0.0000
      8  C4A       21.3610   37.0990   -0.0240 C.ar  682  HEM682      0.0000
      9  CMA       21.4720   38.3780   -2.3090 C.3   682  HEM682      0.0000
     10  CAA       23.4530   35.9220   -2.9050 C.3   682  HEM682      0.0000
     11  CBA       22.7300   34.9930   -3.8280 C.3   682  HEM682      0.0000
     12  CGA       23.4540   33.6470   -4.0400 C.2   682  HEM682      0.0000
     13  O1A       23.8600   32.9980   -3.0310 O.co2 682  HEM682      0.0000
     14  O2A       23.5950   33.2300   -5.2270 O.co2 682  HEM682      0.0000
     15  C1B       20.2490   38.0520    1.9520 C.2   682  HEM682      0.0000
     16  C2B       19.3730   39.0230    2.6030 C.2   682  HEM682      0.0000
     17  C3B       19.3640   38.7060    3.9180 C.2   682  HEM682      0.0000
     18  C4B       20.2410   37.5550    4.0680 C.2   682  HEM682      0.0000
     19  CMB       18.5720   40.1310    1.9460 C.3   682  HEM682      0.0000
     20  CAB       18.5700   39.2530    4.9170 C.3   682  HEM682      0.0000
     21  CBB       18.3020   40.6180    5.0570 C.3   682  HEM682      0.0000
     22  C1C       21.1520   35.7300    5.3940 C.ar  682  HEM682      0.0000
     23  C2C       21.3860   35.0870    6.6650 C.ar  682  HEM682      0.0000
     24  C3C       22.2580   34.0650    6.4310 C.ar  682  HEM682      0.0000
     25  C4C       22.4720   34.0570    5.0160 C.ar  682  HEM682      0.0000
     26  CMC       20.6750   35.4360    7.9690 C.3   682  HEM682      0.0000
     27  CAC       23.0360   33.3380    7.3330 C.3   682  HEM682      0.0000
     28  CBC       22.5080   32.5360    8.4330 C.3   682  HEM682      0.0000
     29  C1D       23.7570   33.2960    3.1140 C.2   682  HEM682      0.0000
     30  C2D       24.8190   32.5140    2.5610 C.2   682  HEM682      0.0000
     31  C3D       24.9880   32.9590    1.2970 C.2   682  HEM682      0.0000
     32  C4D       23.9870   33.9720    1.0630 C.2   682  HEM682      0.0000
     33  CMD       25.6590   31.4800    3.3050 C.3   682  HEM682      0.0000
     34  CAD       26.1940   32.6890    0.4020 C.3   682  HEM682      0.0000
     35  CBD       27.2890   33.7710    0.5800 C.3   682  HEM682      0.0000
     36  CGD       28.4070   33.6150   -0.4050 C.2   682  HEM682      0.0000
     37  O1D       28.1210   33.3700   -1.5860 O.co2 682  HEM682      0.0000
     38  O2D       29.5760   33.7050    0.0030 O.co2 682  HEM682      0.0000
     39  NA        22.0240   36.1000    0.6120 N.ar  682  HEM682      0.0000
     40  NB        20.7700   37.1580    2.8630 N.2   682  HEM682      0.0000
     41  NC        21.8060   35.0930    4.3780 N.ar  682  HEM682      0.0000
     42  ND        23.2580   34.2110    2.1960 N.2   682  HEM682      0.0000
     43 FE         21.9240   35.6400    2.4950 Fe    682  HEM682      0.0000
@<TRIPOS>BOND
     1    14    12   ar
     2    12    11    1
     3    12    13   ar
     4    11    10    1
     5    10     6    1
     6     9     7    1
     7     6     7   ar
     8     6     5   ar
     9    37    36   ar
    10     7     8   ar
    11    36    38   ar
    12    36    35    1
    13     5     1    2
    14     5    39   ar
    15     1    32    1
    16     8     2    2
    17     8    39   ar
    18    34    35    1
    19    34    31    1
    20     2    15    1
    21    39    43    1
    22    32    31    1
    23    32    42    2
    24    31    30    2
    25    19    16    1
    26    15    16    1
    27    15    40    2
    28    42    43    1
    29    42    29    1
    30    43    40    1
    31    43    41    1
    32    30    29    1
    33    30    33    1
    34    16    17    2
    35    40    18    1
    36    29     4    2
    37    17    18    1
    38    17    20    1
    39    18     3    2
    40    41    25   ar
    41    41    22   ar
    42     4    25    1
    43    20    21    1
    44    25    24   ar
    45     3    22    1
    46    22    23   ar
    47    24    23   ar
    48    24    27    1
    49    23    26    1
    50    27    28    1
