@<TRIPOS>MOLECULE
1cx4_CMP_A_1.pdb
 22 25 0 0 0
SMALL
GASTEIGER

@<TRIPOS>ATOM
      1  P         91.9170   61.5340   -7.3910 P.3   440  CMP440      0.2141
      2  O1P       90.8770   62.5840   -7.4830 O.3   440  CMP440     -0.4373
      3  O2P       92.8530   61.3280   -8.5170 O.2   440  CMP440     -0.5172
      4  O5'       91.2430   60.1130   -7.0720 O.3   440  CMP440     -0.3114
      5  C5'       91.9910   59.0810   -6.4030 C.3   440  CMP440      0.1812
      6  C4'       92.6540   59.6870   -5.2000 C.3   440  CMP440      0.1793
      7  O4'       93.5130   58.7940   -4.4550 O.3   440  CMP440     -0.3136
      8  C3'       93.6140   60.7820   -5.5900 C.3   440  CMP440      0.1884
      9  O3'       92.8030   61.8260   -6.0850 O.3   440  CMP440     -0.3111
     10  C2'       94.3410   61.0270   -4.2760 C.3   440  CMP440      0.2541
     11  O2'       93.5670   61.8280   -3.4070 O.3   440  CMP440     -0.2131
     12  C1'       94.4400   59.5920   -3.7280 C.3   440  CMP440      0.3185
     13  N9        95.7660   58.9860   -3.8170 N.pl3 440  CMP440     -0.1439
     14  C8        96.4970   58.4620   -2.7790 C.3   440  CMP440      0.3377
     15  N7        97.6660   57.9900   -3.1400 N.2   440  CMP440     -0.2095
     16  C5        97.7080   58.2150   -4.5070 C.2   440  CMP440      0.2526
     17  C6        98.6830   57.9380   -5.4780 C.2   440  CMP440      0.4393
     18  N6        99.8610   57.3690   -5.2040 N.pl3 440  CMP440      0.2180
     19  N1        98.4100   58.2780   -6.7570 N.2   440  CMP440      0.0021
     20  C2        97.2360   58.8630   -7.0260 C.3   440  CMP440      0.5254
     21  N3        96.2420   59.1850   -6.1970 N.2   440  CMP440     -0.0055
     22  C4        96.5440   58.8270   -4.9380 C.2   440  CMP440      0.3518
@<TRIPOS>BOND
     1     3     1    2
     2     2     1    1
     3     1     4    1
     4     1     9    1
     5     4     5    1
     6    20    19    1
     7    20    21    1
     8    19    17    2
     9     5     6    1
    10    21    22    2
    11     9     8    1
    12     8     6    1
    13     8    10    1
    14    17    18    1
    15    17    16    1
    16     6     7    1
    17    22    16    1
    18    22    13    1
    19    16    15    2
    20     7    12    1
    21    10    12    1
    22    10    11    1
    23    13    12    1
    24    13    14    1
    25    15    14    1
