@<TRIPOS>MOLECULE
1cx9_PLP_B_1.pdb
 15 15 0 0 0
SMALL
GASTEIGER

@<TRIPOS>ATOM
      1  N1        84.3820   13.9600   11.8530 N.2   900  PLP900     -0.2505
      2  C2        84.4260   14.3450   10.5520 C.2   900  PLP900      0.0675
      3  C2A       85.6880   14.2080    9.8000 C.3   900  PLP900      0.0499
      4  C3        83.2790   14.8430    9.9760 C.3   900  PLP900      0.1913
      5  O3        83.4210   15.2400    8.6580 O.3   900  PLP900     -0.2167
      6  C4        82.0390   14.9770   10.6280 C.3   900  PLP900      0.0581
      7  C4A       81.0360   15.0190    9.5850 C.3   900  PLP900      0.0075
      8  C5        82.1040   14.5810   11.9880 C.2   900  PLP900      0.0073
      9  C6        83.2300   14.0880   12.5480 C.2   900  PLP900      0.0921
     10  C5A       80.9730   14.7280   13.0470 C.3   900  PLP900      0.1776
     11  O4P       80.5310   13.4570   13.2670 O.3   900  PLP900     -0.2656
     12  P         79.4540   12.5000   13.8110 P.3   900  PLP900      0.5329
     13  O1P       78.0380   12.3150   13.3530 O.2   900  PLP900     -0.2224
     14  O2P       80.2860   11.3460   13.5240 O.3   900  PLP900     -0.1145
     15  O3P       79.5870   12.7860   15.2450 O.3   900  PLP900     -0.1145
@<TRIPOS>BOND
     1     5     4    1
     2     7     6    1
     3     3     2    1
     4     4     2    1
     5     4     6    1
     6     2     1    2
     7     6     8    1
     8     1     9    1
     9     8     9    2
    10     8    10    1
    11    10    11    1
    12    11    12    1
    13    13    12    2
    14    14    12    1
    15    12    15    1
