@<TRIPOS>MOLECULE
1cx9_NHP_A_1.pdb
 16 16 0 0 0
SMALL
GASTEIGER

@<TRIPOS>ATOM
      1  C1        49.2940   24.2980   15.4810 C.ar  270  NHP270      0.0075
      2  C2        49.6810   25.6430   15.5410 C.ar  270  NHP270      0.0419
      3  C3        51.0000   26.0310   15.1670 C.ar  270  NHP270      0.0947
      4  C4        51.9090   25.0420   14.7490 C.ar  270  NHP270      0.0186
      5  C5        51.5190   23.6980   14.6950 C.ar  270  NHP270      0.0014
      6  C6        50.2160   23.3310   15.0610 C.ar  270  NHP270      0.0006
      7  N1        51.4280   27.3930   15.2090 N.pl3 270  NHP270     -0.1275
      8  S1        48.5390   26.8890   16.0770 S.3   270  NHP270     -0.1123
      9  C7        47.6900   27.6830   14.7040 C.3   270  NHP270      0.0622
     10  C8        48.6740   28.0430   13.5890 C.3   270  NHP270      0.0125
     11  C9        47.9300   28.7080   12.4380 C.3   270  NHP270      0.0086
     12  C10       48.8770   29.3840   11.4430 C.3   270  NHP270      0.0590
     13  P1        48.2520   29.4710    9.8280 P.3   270  NHP270      0.1172
     14  O1        49.0680   30.3190    8.9180 O.2   270  NHP270     -0.4601
     15  O2        46.8430   30.0480    9.7120 O.3   270  NHP270     -0.3571
     16  O3        48.1770   28.1410    9.0890 O.3   270  NHP270     -0.3571
@<TRIPOS>BOND
     1    14    13    2
     2    16    13    1
     3    15    13    1
     4    13    12    1
     5    12    11    1
     6    11    10    1
     7    10     9    1
     8     5     4   ar
     9     5     6   ar
    10     9     8    1
    11     4     3   ar
    12     6     1   ar
    13     3     7    1
    14     3     2   ar
    15     1     2   ar
    16     2     8    1
