@<TRIPOS>MOLECULE
1cxa_HEM_A_1.pdb
 43 50 0 0 0
SMALL
GASTEIGER

@<TRIPOS>ATOM
      1 FE          0.9350   27.2510   67.7190 Fe    126  HEM126      0.0000
      2  CHA       -0.2780   24.9970   69.9980 C.2   126  HEM126      0.0000
      3  CHB       -1.3090   26.1740   65.4720 C.2   126  HEM126      0.0000
      4  CHC        2.0630   29.6020   65.5460 C.2   126  HEM126      0.0000
      5  CHD        3.2870   28.2200   69.9810 C.2   126  HEM126      0.0000
      6  NA        -0.4330   25.8480   67.7150 N.ar  126  HEM126      0.0000
      7  C1A       -0.8320   25.0050   68.7490 C.ar  126  HEM126      0.0000
      8  C2A       -1.9170   24.1400   68.3400 C.ar  126  HEM126      0.0000
      9  C3A       -2.2370   24.4960   67.0690 C.ar  126  HEM126      0.0000
     10  C4A       -1.3010   25.5300   66.6930 C.ar  126  HEM126      0.0000
     11  CMA       -3.4660   24.0250   66.3080 C.3   126  HEM126      0.0000
     12  CAA       -2.5060   22.9600   69.1160 C.3   126  HEM126      0.0000
     13  CBA       -1.9370   21.6810   68.5700 C.3   126  HEM126      0.0000
     14  CGA       -2.0550   20.5570   69.5420 C.2   126  HEM126      0.0000
     15  O1A       -1.1990   19.6980   69.5050 O.co2 126  HEM126      0.0000
     16  O2A       -3.1520   20.3560   70.0300 O.co2 126  HEM126      0.0000
     17  NB         0.5420   27.7400   65.8750 N.2   126  HEM126      0.0000
     18  C1B       -0.4520   27.2010   65.0880 C.2   126  HEM126      0.0000
     19  C2B       -0.5270   27.8370   63.7960 C.2   126  HEM126      0.0000
     20  C3B        0.4450   28.8180   63.7800 C.2   126  HEM126      0.0000
     21  C4B        1.0800   28.7400   65.0890 C.2   126  HEM126      0.0000
     22  CMB       -1.4840   27.3850   62.6870 C.3   126  HEM126      0.0000
     23  CAB        0.7090   29.7290   62.7270 C.3   126  HEM126      0.0000
     24  CBB       -0.3250   30.6190   62.2040 C.3   126  HEM126      0.0000
     25  NC         2.3300   28.6330   67.7880 N.ar  126  HEM126      0.0000
     26  C1C        2.6460   29.5650   66.8020 C.ar  126  HEM126      0.0000
     27  C2C        3.7510   30.4080   67.2230 C.ar  126  HEM126      0.0000
     28  C3C        4.1440   29.9820   68.4390 C.ar  126  HEM126      0.0000
     29  C4C        3.2500   28.8970   68.7900 C.ar  126  HEM126      0.0000
     30  CMC        4.4260   31.5210   66.4170 C.3   126  HEM126      0.0000
     31  CAC        5.2820   30.4230   69.1290 C.3   126  HEM126      0.0000
     32  CBC        5.4230   31.8040   69.5400 C.3   126  HEM126      0.0000
     33  ND         1.3870   26.7270   69.5530 N.2   126  HEM126      0.0000
     34  C1D        2.4170   27.2240   70.3480 C.2   126  HEM126      0.0000
     35  C2D        2.4140   26.6030   71.6530 C.2   126  HEM126      0.0000
     36  C3D        1.3870   25.7540   71.6960 C.2   126  HEM126      0.0000
     37  C4D        0.7690   25.7990   70.3870 C.2   126  HEM126      0.0000
     38  CMD        3.4160   26.8360   72.7550 C.3   126  HEM126      0.0000
     39  CAD        0.8430   25.1230   72.9480 C.3   126  HEM126      0.0000
     40  CBD       -0.4020   25.8350   73.4410 C.3   126  HEM126      0.0000
     41  CGD       -0.6620   25.5230   74.9030 C.2   126  HEM126      0.0000
     42  O1D       -1.4220   26.2390   75.5480 O.co2 126  HEM126      0.0000
     43  O2D       -0.2890   24.4350   75.3060 O.co2 126  HEM126      0.0000
@<TRIPOS>BOND
     1    24    23    1
     2    22    19    1
     3    23    20    1
     4    20    19    2
     5    20    21    1
     6    19    18    1
     7    18     3    1
     8    18    17    2
     9    21     4    2
    10    21    17    1
    11     3    10    2
    12     4    26    1
    13    17     1    1
    14    11     9    1
    15    30    27    1
    16    10     9   ar
    17    10     6   ar
    18    26    27   ar
    19    26    25   ar
    20     9     8   ar
    21    27    28   ar
    22     6     1    1
    23     6     7   ar
    24     1    25    1
    25     1    33    1
    26    25    29   ar
    27     8     7   ar
    28     8    12    1
    29    28    29   ar
    30    28    31    1
    31    13    12    1
    32    13    14    1
    33     7     2    2
    34    29     5    1
    35    31    32    1
    36    15    14   ar
    37    14    16   ar
    38    33    34    1
    39    33    37    2
    40     5    34    2
    41     2    37    1
    42    34    35    1
    43    37    36    1
    44    35    36    2
    45    35    38    1
    46    36    39    1
    47    39    40    1
    48    40    41    1
    49    41    43   ar
    50    41    42   ar
