@<TRIPOS>MOLECULE
1cxc_HEM_A_1.pdb
 43 50 0 0 0
SMALL
GASTEIGER

@<TRIPOS>ATOM
      1 FE         83.2630   24.1680   17.7210 Fe    125  HEM125      0.0000
      2  CHA       82.9960   25.9630   14.8660 C.2   125  HEM125      0.0000
      3  CHB       81.3090   21.7160   16.3900 C.2   125  HEM125      0.0000
      4  CHC       83.6940   22.2810   20.5500 C.2   125  HEM125      0.0000
      5  CHD       84.9640   26.7390   19.2070 C.2   125  HEM125      0.0000
      6  NA        82.3720   23.8710   15.9830 N.ar  125  HEM125      0.0000
      7  C1A       82.3770   24.7250   14.8910 C.ar  125  HEM125      0.0000
      8  C2A       81.6370   24.1500   13.7810 C.ar  125  HEM125      0.0000
      9  C3A       81.1840   22.9430   14.1930 C.ar  125  HEM125      0.0000
     10  C4A       81.6170   22.7960   15.5720 C.ar  125  HEM125      0.0000
     11  CMA       80.4660   21.9200   13.3240 C.3   125  HEM125      0.0000
     12  CAA       81.3350   24.8010   12.4390 C.3   125  HEM125      0.0000
     13  CBA       79.9310   25.3850   12.4400 C.3   125  HEM125      0.0000
     14  CGA       79.6190   26.3670   11.3220 C.2   125  HEM125      0.0000
     15  O1A       78.9600   27.3500   11.5900 O.co2 125  HEM125      0.0000
     16  O2A       80.2000   26.2360   10.2500 O.co2 125  HEM125      0.0000
     17  NB        82.6580   22.3910   18.3230 N.2   125  HEM125      0.0000
     18  C1B       81.7790   21.5360   17.6740 C.2   125  HEM125      0.0000
     19  C2B       81.4830   20.3710   18.4910 C.2   125  HEM125      0.0000
     20  C3B       82.2140   20.4720   19.6450 C.2   125  HEM125      0.0000
     21  C4B       82.9270   21.7400   19.5330 C.2   125  HEM125      0.0000
     22  CMB       80.5260   19.2360   18.1070 C.3   125  HEM125      0.0000
     23  CAB       82.3070   19.5010   20.6830 C.3   125  HEM125      0.0000
     24  CBB       82.8780   18.1640   20.4620 C.3   125  HEM125      0.0000
     25  NC        84.1730   24.4390   19.4680 N.ar  125  HEM125      0.0000
     26  C1C       84.2630   23.5370   20.5240 C.ar  125  HEM125      0.0000
     27  C2C       84.9210   24.1400   21.6660 C.ar  125  HEM125      0.0000
     28  C3C       85.2780   25.3900   21.2910 C.ar  125  HEM125      0.0000
     29  C4C       84.7990   25.5740   19.9350 C.ar  125  HEM125      0.0000
     30  CMC       84.9830   23.5590   23.0710 C.3   125  HEM125      0.0000
     31  CAC       85.9330   26.3410   22.0670 C.3   125  HEM125      0.0000
     32  CBC       87.2240   26.0950   22.6930 C.3   125  HEM125      0.0000
     33  ND        83.8310   25.9540   17.1690 N.2   125  HEM125      0.0000
     34  C1D       84.5230   26.9140   17.9050 C.2   125  HEM125      0.0000
     35  C2D       84.8130   28.0820   17.1020 C.2   125  HEM125      0.0000
     36  C3D       84.3250   27.8410   15.8650 C.2   125  HEM125      0.0000
     37  C4D       83.6920   26.5370   15.9190 C.2   125  HEM125      0.0000
     38  CMD       85.5660   29.3340   17.5470 C.3   125  HEM125      0.0000
     39  CAD       84.6570   28.6290   14.6070 C.3   125  HEM125      0.0000
     40  CBD       85.7130   27.9110   13.7680 C.3   125  HEM125      0.0000
     41  CGD       86.4940   28.8170   12.8050 C.2   125  HEM125      0.0000
     42  O1D       87.5110   28.3760   12.2900 O.co2 125  HEM125      0.0000
     43  O2D       85.9240   29.7780   12.3160 O.co2 125  HEM125      0.0000
@<TRIPOS>BOND
     1    16    14   ar
     2    14    15   ar
     3    14    13    1
     4    42    41   ar
     5    43    41   ar
     6    12    13    1
     7    12     8    1
     8    41    40    1
     9    11     9    1
    10    40    39    1
    11     8     9   ar
    12     8     7   ar
    13     9    10   ar
    14    39    36    1
    15     2     7    2
    16     2    37    1
    17     7     6   ar
    18    10     6   ar
    19    10     3    2
    20    36    37    1
    21    36    35    2
    22    37    33    2
    23     6     1    1
    24     3    18    1
    25    35    38    1
    26    35    34    1
    27    33     1    1
    28    33    34    1
    29    18    17    2
    30    18    19    1
    31     1    17    1
    32     1    25    1
    33    34     5    2
    34    22    19    1
    35    17    21    1
    36    19    20    2
    37     5    29    1
    38    25    29   ar
    39    25    26   ar
    40    21    20    1
    41    21     4    2
    42    20    23    1
    43    29    28   ar
    44    24    23    1
    45    26     4    1
    46    26    27   ar
    47    28    27   ar
    48    28    31    1
    49    27    30    1
    50    31    32    1
