@<TRIPOS>MOLECULE
1cxe_GLC_A_1.pdb
 12 12 0 0 0
SMALL
GASTEIGER

@<TRIPOS>ATOM
      1  C1        42.4010   87.0080   47.7110 C.3   692  GLC692      0.3024
      2  C2        41.2450   87.8310   47.1440 C.3   692  GLC692      0.2434
      3  C3        40.8480   88.9960   47.9970 C.3   692  GLC692      0.2199
      4  C4        40.7430   88.6860   49.4700 C.3   692  GLC692      0.2144
      5  C5        42.0350   88.0200   49.9420 C.3   692  GLC692      0.1836
      6  C6        41.9120   87.4960   51.3400 C.3   692  GLC692      0.2142
      7  O1        43.6580   87.3630   47.1310 O.3   692  GLC692     -0.1869
      8  O2        41.5490   88.3900   45.8860 O.3   692  GLC692     -0.2148
      9  O3        39.6050   89.5590   47.5660 O.3   692  GLC692     -0.2174
     10  O4        40.6880   89.9370   50.1420 O.3   692  GLC692     -0.2176
     11  O5        42.4210   86.8880   49.1400 O.3   692  GLC692     -0.3236
     12  O6        40.9270   88.1400   52.1460 O.3   692  GLC692     -0.2176
@<TRIPOS>BOND
     1     8     2    1
     2     7     1    1
     3     2     1    1
     4     2     3    1
     5     9     3    1
     6     1    11    1
     7     3     4    1
     8    11     5    1
     9     4     5    1
    10     4    10    1
    11     5     6    1
    12     6    12    1
