@<TRIPOS>MOLECULE
1cxe_MAL_A_1.pdb
 23 24 0 0 0
SMALL
GASTEIGER

@<TRIPOS>ATOM
      1  C1        63.9390   99.5520   10.0890 C.3   687  MAL687      0.2695
      2  C2        64.4960   98.6320   11.1550 C.3   687  MAL687      0.2406
      3  C3        65.9670   98.3720   10.9310 C.3   687  MAL687      0.2198
      4  C4        66.2450   97.8990    9.5130 C.3   687  MAL687      0.2144
      5  C5        65.5900   98.8490    8.5250 C.3   687  MAL687      0.1835
      6  C6        65.7100   98.3450    7.1200 C.3   687  MAL687      0.2142
      7  O1        64.4790  100.8520   10.2150 O.3   687  MAL687     -0.3257
      8  O2        64.3190   99.1970   12.4430 O.3   687  MAL687     -0.2149
      9  O3        66.4970   97.4230   11.8610 O.3   687  MAL687     -0.2174
     10  O4        67.6310   97.9690    9.1990 O.3   687  MAL687     -0.2176
     11  O5        64.1980   99.0320    8.7920 O.3   687  MAL687     -0.3256
     12  O6        65.2670   99.3260    6.1820 O.3   687  MAL687     -0.2176
     13  C1'       63.1980  104.8020   10.4950 C.3   687  MAL687      0.3023
     14  C2'       62.6710  103.8310   11.5070 C.3   687  MAL687      0.2433
     15  C3'       63.5750  102.6250   11.5500 C.3   687  MAL687      0.2168
     16  C4'       63.5950  101.9920   10.1700 C.3   687  MAL687      0.1804
     17  C5'       64.0420  103.0050    9.1140 C.3   687  MAL687      0.1804
     18  C6'       63.7770  102.4840    7.7230 C.3   687  MAL687      0.2141
     19  O1'       64.4340  105.2380   10.9250 O.3   687  MAL687     -0.1869
     20  O2'       62.6870  104.4680   12.7830 O.3   687  MAL687     -0.2148
     21  O3'       63.0660  101.7160   12.5160 O.3   687  MAL687     -0.2175
     22  O5'       63.2320  104.1800    9.2080 O.3   687  MAL687     -0.3237
     23  O6'       64.8610  102.8830    6.8830 O.3   687  MAL687     -0.2176
@<TRIPOS>BOND
     1    12     6    1
     2    23    18    1
     3     6     5    1
     4    18    17    1
     5     5    11    1
     6     5     4    1
     7    11     1    1
     8    17    22    1
     9    17    16    1
    10    10     4    1
    11    22    13    1
    12     4     3    1
    13     1     7    1
    14     1     2    1
    15    16     7    1
    16    16    15    1
    17    13    19    1
    18    13    14    1
    19     3     2    1
    20     3     9    1
    21     2     8    1
    22    14    15    1
    23    14    20    1
    24    15    21    1
