@<TRIPOS>MOLECULE
1cxf_MAL_A_1.pdb
 23 24 0 0 0
SMALL
GASTEIGER

@<TRIPOS>ATOM
      1  C1        61.8460   97.7390   10.6080 C.3   687  MAL687      0.2695
      2  C2        62.4480   96.9100   11.7140 C.3   687  MAL687      0.2406
      3  C3        63.9230   96.7270   11.5040 C.3   687  MAL687      0.2198
      4  C4        64.1700   96.2390   10.0930 C.3   687  MAL687      0.2144
      5  C5        63.5490   97.1260    9.0300 C.3   687  MAL687      0.1835
      6  C6        63.7180   96.4450    7.7000 C.3   687  MAL687      0.2142
      7  O1        62.3650   99.0360   10.7620 O.3   687  MAL687     -0.3257
      8  O2        62.2810   97.5380   12.9720 O.3   687  MAL687     -0.2149
      9  O3        64.2930   95.6070   12.3050 O.3   687  MAL687     -0.2174
     10  O4        65.5560   96.1260    9.8120 O.3   687  MAL687     -0.2176
     11  O5        62.1490   97.2430    9.3120 O.3   687  MAL687     -0.3256
     12  O6        63.4750   97.2310    6.5280 O.3   687  MAL687     -0.2176
     13  C1'       61.3530  102.9690   10.8140 C.3   687  MAL687      0.3023
     14  C2'       60.7970  102.1470   11.9410 C.3   687  MAL687      0.2433
     15  C3'       61.4770  100.8010   12.0310 C.3   687  MAL687      0.2168
     16  C4'       61.4610  100.1460   10.6640 C.3   687  MAL687      0.1804
     17  C5'       62.0650  101.0580    9.6060 C.3   687  MAL687      0.1804
     18  C6'       61.9550  100.4100    8.2500 C.3   687  MAL687      0.2141
     19  O1'       62.6280  103.3930   11.1300 O.3   687  MAL687     -0.1869
     20  O2'       60.9680  102.8310   13.1820 O.3   687  MAL687     -0.2148
     21  O3'       60.7360   99.9830   12.9270 O.3   687  MAL687     -0.2175
     22  O5'       61.3110  102.2710    9.5650 O.3   687  MAL687     -0.3237
     23  O6'       62.1980  101.4260    7.2740 O.3   687  MAL687     -0.2176
@<TRIPOS>BOND
     1    12     6    1
     2    23    18    1
     3     6     5    1
     4    18    17    1
     5     5    11    1
     6     5     4    1
     7    11     1    1
     8    22    17    1
     9    22    13    1
    10    17    16    1
    11    10     4    1
    12     4     3    1
    13     1     7    1
    14     1     2    1
    15    16     7    1
    16    16    15    1
    17    13    19    1
    18    13    14    1
    19     3     2    1
    20     3     9    1
    21     2     8    1
    22    14    15    1
    23    14    20    1
    24    15    21    1
