@<TRIPOS>MOLECULE
1cxf_GLC_A_1.pdb
 12 12 0 0 0
SMALL
GASTEIGER

@<TRIPOS>ATOM
      1  C1        38.9530   85.7390   47.3880 C.3   692  GLC692      0.3024
      2  C2        37.7930   86.6060   46.9790 C.3   692  GLC692      0.2434
      3  C3        37.7890   87.8990   47.7540 C.3   692  GLC692      0.2199
      4  C4        37.7360   87.6170   49.2370 C.3   692  GLC692      0.2144
      5  C5        38.8930   86.7410   49.6690 C.3   692  GLC692      0.1836
      6  C6        38.5710   86.1540   51.0050 C.3   692  GLC692      0.2142
      7  O1        40.1250   86.2220   46.7530 O.3   692  GLC692     -0.1869
      8  O2        37.9070   86.8410   45.5900 O.3   692  GLC692     -0.2148
      9  O3        36.6240   88.6640   47.4640 O.3   692  GLC692     -0.2174
     10  O4        37.7920   88.8140   50.0060 O.3   692  GLC692     -0.2176
     11  O5        39.0770   85.6010   48.8110 O.3   692  GLC692     -0.3236
     12  O6        39.6620   86.2050   51.9080 O.3   692  GLC692     -0.2176
@<TRIPOS>BOND
     1     8     2    1
     2     7     1    1
     3     2     1    1
     4     2     3    1
     5     1    11    1
     6     9     3    1
     7     3     4    1
     8    11     5    1
     9     4     5    1
    10     4    10    1
    11     5     6    1
    12     6    12    1
