@<TRIPOS>MOLECULE
1cxh_MAL_A_1.pdb
 23 24 0 0 0
SMALL
GASTEIGER

@<TRIPOS>ATOM
      1  C1        63.4440   99.4040    9.9390 C.3   687  MAL687      0.2695
      2  C2        63.9810   98.4700   11.0000 C.3   687  MAL687      0.2406
      3  C3        65.4610   98.2420   10.8190 C.3   687  MAL687      0.2198
      4  C4        65.7240   97.6980    9.4290 C.3   687  MAL687      0.2144
      5  C5        65.1590   98.6570    8.3990 C.3   687  MAL687      0.1835
      6  C6        65.2280   98.0540    7.0300 C.3   687  MAL687      0.2142
      7  O1        63.9300  100.7100   10.1700 O.3   687  MAL687     -0.3257
      8  O2        63.7550   98.9740   12.3080 O.3   687  MAL687     -0.2149
      9  O3        65.9660   97.2960   11.7650 O.3   687  MAL687     -0.2174
     10  O4        67.1180   97.5840    9.1770 O.3   687  MAL687     -0.2176
     11  O5        63.7740   98.9270    8.6410 O.3   687  MAL687     -0.3256
     12  O6        64.8000   98.9970    6.0440 O.3   687  MAL687     -0.2176
     13  C1'       62.5670  104.6240   10.4870 C.3   687  MAL687      0.3023
     14  C2'       62.0670  103.6510   11.5110 C.3   687  MAL687      0.2433
     15  C3'       62.9860  102.4520   11.5370 C.3   687  MAL687      0.2168
     16  C4'       63.0080  101.8190   10.1560 C.3   687  MAL687      0.1804
     17  C5'       63.4320  102.8360    9.0950 C.3   687  MAL687      0.1804
     18  C6'       63.1350  102.3080    7.7120 C.3   687  MAL687      0.2141
     19  O1'       63.8160  105.0550   10.8810 O.3   687  MAL687     -0.1869
     20  O2'       62.1280  104.2900   12.7850 O.3   687  MAL687     -0.2148
     21  O3'       62.5220  101.5420   12.5250 O.3   687  MAL687     -0.2175
     22  O5'       62.5930  103.9890    9.2070 O.3   687  MAL687     -0.3237
     23  O6'       64.1460  102.7600    6.8080 O.3   687  MAL687     -0.2176
@<TRIPOS>BOND
     1    12     6    1
     2    23    18    1
     3     6     5    1
     4    18    17    1
     5     5    11    1
     6     5     4    1
     7    11     1    1
     8    17    22    1
     9    17    16    1
    10    10     4    1
    11    22    13    1
    12     4     3    1
    13     1     7    1
    14     1     2    1
    15    16     7    1
    16    16    15    1
    17    13    19    1
    18    13    14    1
    19     3     2    1
    20     3     9    1
    21     2     8    1
    22    14    15    1
    23    14    20    1
    24    15    21    1
