@<TRIPOS>MOLECULE
1cxh_GLC_A_1.pdb
 12 12 0 0 0
SMALL
GASTEIGER

@<TRIPOS>ATOM
      1  C1        42.2820   86.8060   47.4920 C.3   692  GLC692      0.3024
      2  C2        41.0490   87.5660   47.0170 C.3   692  GLC692      0.2434
      3  C3        40.7310   88.7430   47.8960 C.3   692  GLC692      0.2199
      4  C4        40.6300   88.2930   49.3410 C.3   692  GLC692      0.2144
      5  C5        41.9310   87.6640   49.8160 C.3   692  GLC692      0.1836
      6  C6        41.7520   86.9630   51.1360 C.3   692  GLC692      0.2142
      7  O1        43.4620   87.2390   46.8330 O.3   692  GLC692     -0.1869
      8  O2        41.1760   87.9810   45.6640 O.3   692  GLC692     -0.2148
      9  O3        39.4770   89.3290   47.5180 O.3   692  GLC692     -0.2174
     10  O4        40.3780   89.3970   50.2010 O.3   692  GLC692     -0.2176
     11  O5        42.4300   86.6560   48.9140 O.3   692  GLC692     -0.3236
     12  O6        41.6860   87.8410   52.2670 O.3   692  GLC692     -0.2176
@<TRIPOS>BOND
     1     8     2    1
     2     7     1    1
     3     2     1    1
     4     2     3    1
     5     1    11    1
     6     9     3    1
     7     3     4    1
     8    11     5    1
     9     4     5    1
    10     4    10    1
    11     5     6    1
    12     6    12    1
