@<TRIPOS>MOLECULE
1cxi_MAL_A_1.pdb
 23 24 0 0 0
SMALL
GASTEIGER

@<TRIPOS>ATOM
      1  C1        62.3240   97.4430    9.9130 C.3   687  MAL687      0.2695
      2  C2        62.8620   96.5590   11.0170 C.3   687  MAL687      0.2406
      3  C3        64.3320   96.2950   10.8060 C.3   687  MAL687      0.2198
      4  C4        64.5550   95.7120    9.4200 C.3   687  MAL687      0.2144
      5  C5        63.9620   96.6590    8.3900 C.3   687  MAL687      0.1835
      6  C6        64.1330   96.1640    6.9840 C.3   687  MAL687      0.2142
      7  O1        62.9090   98.7280   10.0020 O.3   687  MAL687     -0.3257
      8  O2        62.6510   97.1390   12.2950 O.3   687  MAL687     -0.2149
      9  O3        64.9010   95.3440   11.7100 O.3   687  MAL687     -0.2174
     10  O4        65.9560   95.6130    9.2040 O.3   687  MAL687     -0.2176
     11  O5        62.5630   96.8280    8.6520 O.3   687  MAL687     -0.3256
     12  O6        63.7010   97.0710    5.9630 O.3   687  MAL687     -0.2176
     13  C1'       61.7700  102.7040   10.2210 C.3   687  MAL687      0.3023
     14  C2'       61.2670  101.8410   11.3460 C.3   687  MAL687      0.2433
     15  C3'       62.0670  100.5610   11.4340 C.3   687  MAL687      0.2168
     16  C4'       62.0630   99.8910   10.0720 C.3   687  MAL687      0.1804
     17  C5'       62.6020  100.8370    9.0040 C.3   687  MAL687      0.1804
     18  C6'       62.5290  100.1170    7.6790 C.3   687  MAL687      0.2141
     19  O1'       63.0690  103.1380   10.4040 O.3   687  MAL687     -0.1869
     20  O2'       61.2940  102.5460   12.5890 O.3   687  MAL687     -0.2148
     21  O3'       61.5610   99.6940   12.4390 O.3   687  MAL687     -0.2175
     22  O5'       61.6890  101.9370    9.0170 O.3   687  MAL687     -0.3237
     23  O6'       62.7090  101.0430    6.6020 O.3   687  MAL687     -0.2176
@<TRIPOS>BOND
     1    12     6    1
     2    23    18    1
     3     6     5    1
     4    18    17    1
     5     5    11    1
     6     5     4    1
     7    11     1    1
     8    17    22    1
     9    17    16    1
    10    22    13    1
    11    10     4    1
    12     4     3    1
    13     1     7    1
    14     1     2    1
    15     7    16    1
    16    16    15    1
    17    13    19    1
    18    13    14    1
    19     3     2    1
    20     3     9    1
    21     2     8    1
    22    14    15    1
    23    14    20    1
    24    15    21    1
