@<TRIPOS>MOLECULE
1cxk_GLC_A_10.pdb
 12 12 0 0 0
SMALL
GASTEIGER

@<TRIPOS>ATOM
      1  C1        44.8710   85.0650   64.6610 C.3   700  GLC700      0.3024
      2  C2        43.7070   84.3050   65.2550 C.3   700  GLC700      0.2434
      3  C3        42.9750   85.1450   66.2750 C.3   700  GLC700      0.2199
      4  C4        43.9470   85.6320   67.3360 C.3   700  GLC700      0.2144
      5  C5        45.1180   86.3540   66.6910 C.3   700  GLC700      0.1836
      6  C6        46.1770   86.6970   67.6970 C.3   700  GLC700      0.2142
      7  O1        44.4070   86.1110   63.8370 O.3   700  GLC700     -0.1869
      8  O2        42.8350   83.8590   64.2270 O.3   700  GLC700     -0.2148
      9  O3        41.9510   84.4030   66.9440 O.3   700  GLC700     -0.2174
     10  O4        43.3510   86.5700   68.2220 O.3   700  GLC700     -0.2176
     11  O5        45.7380   85.5640   65.6720 O.3   700  GLC700     -0.3236
     12  O6        46.8310   85.5270   68.1950 O.3   700  GLC700     -0.2176
@<TRIPOS>BOND
     1     7     1    1
     2     8     2    1
     3     1     2    1
     4     1    11    1
     5     2     3    1
     6    11     5    1
     7     3     9    1
     8     3     4    1
     9     5     4    1
    10     5     6    1
    11     4    10    1
    12     6    12    1
