@<TRIPOS>MOLECULE
1cxl_G4D_A_1.pdb
 11 11 0 0 0
SMALL
GASTEIGER

@<TRIPOS>ATOM
      1  C1        38.3420   89.2860   50.2720 C.3   692  G4D692      0.3022
      2  C2        37.5230   90.5380   50.0730 C.3   692  G4D692      0.2409
      3  C3        38.3830   91.6530   49.5260 C.3   692  G4D692      0.1899
      4  C4        39.6990   91.8340   50.2680 C.3   692  G4D692      0.0681
      5  C5        40.3660   90.5070   50.5910 C.3   692  G4D692      0.1534
      6  C6        41.4830   90.6620   51.5840 C.3   692  G4D692      0.2116
      7  O1        38.8160   88.8600   49.0090 O.3   692  G4D692     -0.1869
      8  O2        36.4670   90.2530   49.1680 O.3   692  G4D692     -0.2149
      9  O3        37.6890   92.9050   49.5610 O.3   692  G4D692     -0.2201
     10  O5        39.4240   89.5820   51.1430 O.3   692  G4D692     -0.3263
     11  O6        41.5470   91.9980   52.0900 O.3   692  G4D692     -0.2177
@<TRIPOS>BOND
     1     7     1    1
     2     8     2    1
     3     3     9    1
     4     3     2    1
     5     3     4    1
     6     2     1    1
     7     4     5    1
     8     1    10    1
     9     5    10    1
    10     5     6    1
    11     6    11    1
