@<TRIPOS>MOLECULE
1cxl_GLC_A_1.pdb
 10 10 0 0 0
SMALL
GASTEIGER

@<TRIPOS>ATOM
      1  C1        42.8650   82.9640   44.1250 C.3   690  GLC690      0.1775
      2  C2        41.8240   83.7570   43.3590 C.3   690  GLC690      0.2115
      3  C3        41.3570   84.9600   44.1470 C.3   690  GLC690      0.1872
      4  C4        40.9200   84.4750   45.5160 C.3   690  GLC690      0.0679
      5  C5        42.1220   83.8750   46.2140 C.3   690  GLC690      0.1508
      6  C6        41.9030   83.4980   47.6520 C.3   690  GLC690      0.2115
      7  O2        42.3520   84.1560   42.1020 O.3   690  GLC690     -0.2177
      8  O3        40.2370   85.5940   43.5220 O.3   690  GLC690     -0.2202
      9  O5        42.4500   82.7020   45.4670 O.3   690  GLC690     -0.3507
     10  O6        40.6600   82.8220   47.8380 O.3   690  GLC690     -0.2177
@<TRIPOS>BOND
     1     7     2    1
     2     2     1    1
     3     2     3    1
     4     8     3    1
     5     1     9    1
     6     3     4    1
     7     9     5    1
     8     4     5    1
     9     5     6    1
    10     6    10    1
