@<TRIPOS>MOLECULE
1cxl_GLF_A_1.pdb
 11 11 0 0 0
SMALL
GASTEIGER

@<TRIPOS>ATOM
      1  C1        82.6620   65.7350   46.3270 C.3   695  GLF695      0.3116
      2  C2        81.5950   65.2370   47.2760 C.3   695  GLF695      0.2432
      3  C3        80.9470   63.9710   46.7710 C.3   695  GLF695      0.1901
      4  C4        80.4740   64.1560   45.3430 C.3   695  GLF695      0.0681
      5  C5        81.6320   64.5860   44.4690 C.3   695  GLF695      0.1536
      6  C6        81.1390   64.8960   43.0890 C.3   695  GLF695      0.2116
      7  F1        83.9190   64.5850   46.2990 F     695  GLF695     -0.2011
      8  O2        82.1760   65.0010   48.5510 O.3   695  GLF695     -0.2146
      9  O3        79.8090   63.6580   47.5770 O.3   695  GLF695     -0.2201
     10  O5        82.1950   65.7950   44.9860 O.3   695  GLF695     -0.3246
     11  O6        82.2030   65.4080   42.2840 O.3   695  GLF695     -0.2177
@<TRIPOS>BOND
     1    11     6    1
     2     6     5    1
     3     5    10    1
     4     5     4    1
     5    10     1    1
     6     4     3    1
     7     7     1    1
     8     1     2    1
     9     3     2    1
    10     3     9    1
    11     2     8    1
