@<TRIPOS>MOLECULE
1cxp_MAN_C_1.pdb
 11 11 0 0 0
SMALL
GASTEIGER

@<TRIPOS>ATOM
      1  C1        32.5970   10.6410   13.9930 C.3   1644  MAN1644     0.1777
      2  C2        31.9660   11.2650   12.7490 C.3   1644  MAN1644     0.2141
      3  C3        30.5980   11.8480   13.1200 C.3   1644  MAN1644     0.2173
      4  C4        29.7160   10.7400   13.7130 C.3   1644  MAN1644     0.2142
      5  C5        30.4290   10.1060   14.9340 C.3   1644  MAN1644     0.1810
      6  C6        29.6960    8.9070   15.5340 C.3   1644  MAN1644     0.2141
      7  O2        31.8300   10.2820   11.7260 O.3   1644  MAN1644    -0.2176
      8  O3        29.9730   12.4320   11.9780 O.3   1644  MAN1644    -0.2175
      9  O4        28.4660   11.2950   14.1000 O.3   1644  MAN1644    -0.2176
     10  O5        31.7440    9.6430   14.5490 O.3   1644  MAN1644    -0.3481
     11  O6        29.4810    7.8940   14.5600 O.3   1644  MAN1644    -0.2176
@<TRIPOS>BOND
     1     7     2    1
     2     8     3    1
     3     2     3    1
     4     2     1    1
     5     3     4    1
     6     4     9    1
     7     4     5    1
     8     1    10    1
     9    10     5    1
    10    11     6    1
    11     5     6    1
