@<TRIPOS>MOLECULE
1cxp_FUC_C_1.pdb
 10 10 0 0 0
SMALL
GASTEIGER

@<TRIPOS>ATOM
      1  C1        36.9520    5.2610    7.3280 C.3   1645  FUC1645     0.1776
      2  C2        36.8580    6.5820    6.5760 C.3   1645  FUC1645     0.2141
      3  C3        37.9960    6.6540    5.5250 C.3   1645  FUC1645     0.2172
      4  C4        37.9890    5.3930    4.6300 C.3   1645  FUC1645     0.2116
      5  C5        37.9520    4.1090    5.4700 C.3   1645  FUC1645     0.1483
      6  C6        37.7620    2.8550    4.6310 C.3   1645  FUC1645     0.0349
      7  O2        36.9750    7.6450    7.5260 O.3   1645  FUC1645    -0.2176
      8  O3        37.8480    7.8100    4.7020 O.3   1645  FUC1645    -0.2175
      9  O4        36.8550    5.4150    3.7830 O.3   1645  FUC1645    -0.2177
     10  O5        36.8570    4.1650    6.4130 O.3   1645  FUC1645    -0.3508
@<TRIPOS>BOND
     1     9     4    1
     2     4     5    1
     3     4     3    1
     4     6     5    1
     5     8     3    1
     6     5    10    1
     7     3     2    1
     8    10     1    1
     9     2     1    1
    10     2     7    1
