@<TRIPOS>MOLECULE
1cxp_HEM_A_1.pdb
 43 50 0 0 0
SMALL
GASTEIGER

@<TRIPOS>ATOM
      1  CHA       19.0630  -12.3050   -3.1500 C.2   605  HEM605      0.0000
      2  CHB       17.8420  -15.0770   -6.8510 C.2   605  HEM605      0.0000
      3  CHC       21.3280  -13.0220   -9.5100 C.2   605  HEM605      0.0000
      4  CHD       22.6130  -10.3710   -5.7430 C.2   605  HEM605      0.0000
      5  C1A       18.2800  -13.0530   -4.0120 C.ar  605  HEM605      0.0000
      6  C2A       17.1910  -13.8690   -3.5580 C.ar  605  HEM605      0.0000
      7  C3A       16.8830  -14.7060   -4.5800 C.ar  605  HEM605      0.0000
      8  C4A       17.7630  -14.3620   -5.6710 C.ar  605  HEM605      0.0000
      9  CMA       15.8170  -15.7940   -4.5700 C.3   605  HEM605      0.0000
     10  CAA       16.4250  -13.6950   -2.2500 C.3   605  HEM605      0.0000
     11  CBA       15.0980  -12.9680   -2.4540 C.3   605  HEM605      0.0000
     12  CGA       14.3810  -12.6970   -1.1610 C.2   605  HEM605      0.0000
     13  O1A       13.4830  -13.4770   -0.7930 O.co2 605  HEM605      0.0000
     14  O2A       14.7090  -11.6940   -0.5100 O.co2 605  HEM605      0.0000
     15  C1B       18.7630  -14.8180   -7.8760 C.2   605  HEM605      0.0000
     16  C2B       18.8450  -15.5920   -9.1210 C.2   605  HEM605      0.0000
     17  C3B       19.8310  -15.0140   -9.8700 C.2   605  HEM605      0.0000
     18  C4B       20.3310  -13.8740   -9.0780 C.2   605  HEM605      0.0000
     19  CMB       17.9560  -16.7820   -9.5200 C.3   605  HEM605      0.0000
     20  CAB       20.3010  -15.4000  -11.1430 C.3   605  HEM605      0.0000
     21  CBB       20.5300  -16.7730  -11.5870 C.3   605  HEM605      0.0000
     22  C1C       21.8750  -12.0040   -8.7610 C.ar  605  HEM605      0.0000
     23  C2C       22.9530  -11.1420   -9.2230 C.ar  605  HEM605      0.0000
     24  C3C       23.3250  -10.3830   -8.1420 C.ar  605  HEM605      0.0000
     25  C4C       22.4620  -10.7990   -7.0500 C.ar  605  HEM605      0.0000
     26  CMC       23.4490  -11.0420  -10.6600 C.3   605  HEM605      0.0000
     27  CAC       24.2980   -9.3650   -8.0540 C.3   605  HEM605      0.0000
     28  CBC       25.0040   -8.7820   -9.1750 C.3   605  HEM605      0.0000
     29  C1D       21.8200  -10.7550   -4.6790 C.2   605  HEM605      0.0000
     30  C2D       22.0990  -10.4200   -3.2920 C.2   605  HEM605      0.0000
     31  C3D       21.1140  -10.9940   -2.5470 C.2   605  HEM605      0.0000
     32  C4D       20.2210  -11.6430   -3.5030 C.2   605  HEM605      0.0000
     33  CMD       23.3170   -9.6410   -2.7530 C.3   605  HEM605      0.0000
     34  CAD       21.0860  -11.1360   -1.0200 C.3   605  HEM605      0.0000
     35  CBD       21.8450  -12.3890   -0.5310 C.3   605  HEM605      0.0000
     36  CGD       21.7240  -12.6580    0.9670 C.2   605  HEM605      0.0000
     37  O1D       22.3660  -11.9390    1.7600 O.co2 605  HEM605      0.0000
     38  O2D       20.9920  -13.6040    1.3610 O.co2 605  HEM605      0.0000
     39  NA        18.5980  -13.3040   -5.3290 N.ar  605  HEM605      0.0000
     40  NB        19.6900  -13.7670   -7.8510 N.2   605  HEM605      0.0000
     41  NC        21.5360  -11.7520   -7.4440 N.ar  605  HEM605      0.0000
     42  ND        20.6820  -11.5400   -4.8020 N.2   605  HEM605      0.0000
     43 FE         19.9230  -12.3630   -6.4560 Fe    605  HEM605      0.0000
@<TRIPOS>BOND
     1    21    20    1
     2    20    17    1
     3    26    23    1
     4    17    16    2
     5    17    18    1
     6    19    16    1
     7     3    18    2
     8     3    22    1
     9    23    22   ar
    10    23    24   ar
    11    28    27    1
    12    16    15    1
    13    18    40    1
    14    22    41   ar
    15    24    27    1
    16    24    25   ar
    17    15    40    2
    18    15     2    1
    19    40    43    1
    20    41    25   ar
    21    41    43    1
    22    25     4    1
    23     2     8    2
    24    43    39    1
    25    43    42    1
    26     4    29    2
    27     8    39   ar
    28     8     7   ar
    29    39     5   ar
    30    42    29    1
    31    42    32    2
    32    29    30    1
    33     7     9    1
    34     7     6   ar
    35     5     6   ar
    36     5     1    2
    37     6    10    1
    38    32     1    1
    39    32    31    1
    40    30    33    1
    41    30    31    2
    42    31    34    1
    43    11    10    1
    44    11    12    1
    45    12    13   ar
    46    12    14   ar
    47    34    35    1
    48    35    36    1
    49    36    38   ar
    50    36    37   ar
