@<TRIPOS>MOLECULE
1cxu_CIT_A_1.pdb
 13 12 0 0 0
SMALL
GASTEIGER

@<TRIPOS>ATOM
      1  C1        67.4010   48.5380   32.9530 C.2   300  CIT300      0.3680
      2  O1        67.3410   49.8780   32.7240 O.co2 300  CIT300     -0.2455
      3  O2        68.0040   47.6960   32.0730 O.co2 300  CIT300     -0.2455
      4  C2        66.7590   47.9670   34.2460 C.3   300  CIT300      0.1560
      5  C3        65.2180   47.9910   34.0110 C.3   300  CIT300      0.2402
      6  O7        64.7090   49.2130   33.5400 O.3   300  CIT300     -0.2129
      7  C4        64.8980   46.9330   32.9250 C.3   300  CIT300      0.1560
      8  C5        63.3750   46.8130   32.7780 C.2   300  CIT300      0.3680
      9  O3        62.4340   47.2520   33.6000 O.co2 300  CIT300     -0.2455
     10  O4        62.9370   46.1110   31.6660 O.co2 300  CIT300     -0.2455
     11  C6        64.5660   47.6120   35.3620 C.2   300  CIT300      0.3927
     12  O5        63.9130   48.5520   36.0690 O.co2 300  CIT300     -0.2429
     13  O6        64.6820   46.3430   35.7270 O.co2 300  CIT300     -0.2429
@<TRIPOS>BOND
     1    10     8   ar
     2     3     1   ar
     3     2     1   ar
     4     8     7    1
     5     8     9   ar
     6     7     5    1
     7     1     4    1
     8     6     5    1
     9     5     4    1
    10     5    11    1
    11    11    13   ar
    12    11    12   ar
