@<TRIPOS>MOLECULE
1cxv_CBP_A_1.pdb
 28 30 0 0 0
SMALL
GASTEIGER

@<TRIPOS>ATOM
      1  O1        33.7580   12.1430   52.7240 O.3    10  CBP10      -0.4026
      2  N2        33.5050   11.9370   54.0970 N.am   10  CBP10      -0.2029
      3  C3        32.5120   12.7390   54.6680 C.2    10  CBP10       0.0885
      4  O4        32.7890   13.8980   54.7080 O.2    10  CBP10      -0.5395
      5  C5        31.2890   12.1190   55.3390 C.3    10  CBP10       0.0736
      6  C6        29.9470   12.9260   55.5800 C.3    10  CBP10       0.1257
      7  C7        29.2460   12.5640   56.9530 C.3    10  CBP10       0.0548
      8  C8        30.1160   13.0540   58.1800 C.3    10  CBP10       0.1439
      9  O9        30.3710   14.4990   58.1270 O.3    10  CBP10      -0.3537
     10  C10       30.8710   15.0360   56.8530 C.3    10  CBP10       0.1439
     11  C11       30.0800   14.5080   55.6060 C.3    10  CBP10       0.0548
     12  S12       28.9210   12.3910   54.1110 S.O2   10  CBP10       0.0060
     13  O13       27.6220   13.0060   54.4100 O.2    10  CBP10      -0.1687
     14  O14       28.9510   10.9300   54.1520 O.2    10  CBP10      -0.1687
     15  C15       29.3370   12.9570   52.4840 C.ar   10  CBP10       0.1058
     16  C16       30.2790   12.2750   51.6430 C.ar   10  CBP10       0.0215
     17  C17       30.5960   12.7760   50.3400 C.ar   10  CBP10       0.0388
     18  C18       29.9680   13.9870   49.8540 C.ar   10  CBP10       0.1454
     19  C19       29.0040   14.6960   50.6950 C.ar   10  CBP10       0.0388
     20  C20       28.7050   14.1740   51.9830 C.ar   10  CBP10       0.0215
     21  O21       30.2710   14.5170   48.5920 O.3    10  CBP10      -0.4535
     22  C22       30.0240   15.7510   47.9170 C.ar   10  CBP10       0.1454
     23  C23       29.2940   15.7240   46.6630 C.ar   10  CBP10       0.0384
     24  C24       29.0500   16.9600   45.9790 C.ar   10  CBP10       0.0145
     25  C25       29.5280   18.2070   46.5370 C.ar   10  CBP10       0.0579
     26  C26       30.2470   18.2270   47.7740 C.ar   10  CBP10       0.0145
     27  C27       30.5000   17.0060   48.4720 C.ar   10  CBP10       0.0384
     28 CL28       29.2510   19.6380   45.7440 Cl     10  CBP10      -0.0822
@<TRIPOS>BOND
     1    28    25    1
     2    24    25   ar
     3    24    23   ar
     4    25    26   ar
     5    23    22   ar
     6    26    27   ar
     7    22    27   ar
     8    22    21    1
     9    21    18    1
    10    18    17   ar
    11    18    19   ar
    12    17    16   ar
    13    19    20   ar
    14    16    15   ar
    15    20    15   ar
    16    15    12    1
    17     1     2    1
    18     2     3   am
    19    12    14    2
    20    12    13    2
    21    12     6    1
    22     3     4    2
    23     3     5    1
    24     5     6    1
    25     6    11    1
    26     6     7    1
    27    11    10    1
    28    10     9    1
    29     7     8    1
    30     9     8    1
