@<TRIPOS>MOLECULE
1cxy_HEM_A_1.pdb
 43 50 0 0 0
SMALL
GASTEIGER

@<TRIPOS>ATOM
      1 FE         29.0270   25.2180   13.1740 Fe    204  HEM204      0.0000
      2  CHA       28.7720   27.7930   10.9350 C.2   204  HEM204      0.0000
      3  CHB       25.8730   24.1720   12.3030 C.2   204  HEM204      0.0000
      4  CHC       29.2130   22.7410   15.4920 C.2   204  HEM204      0.0000
      5  CHD       32.1710   26.2860   14.0430 C.2   204  HEM204      0.0000
      6  NA        27.6190   25.8530   11.8730 N.ar  204  HEM204      0.0000
      7  C1A       27.6580   27.0070   11.1060 C.ar  204  HEM204      0.0000
      8  C2A       26.3530   27.2380   10.5170 C.ar  204  HEM204      0.0000
      9  C3A       25.5680   26.2140   10.8800 C.ar  204  HEM204      0.0000
     10  C4A       26.3540   25.3340   11.7340 C.ar  204  HEM204      0.0000
     11  CMA       24.0860   25.9560   10.5290 C.3   204  HEM204      0.0000
     12  CAA       25.9790   28.4170    9.5870 C.3   204  HEM204      0.0000
     13  CBA       25.6910   28.0280    8.0990 C.3   204  HEM204      0.0000
     14  CGA       26.9400   27.7490    7.3120 C.2   204  HEM204      0.0000
     15  O1A       28.0260   28.2070    7.7480 O.co2 204  HEM204      0.0000
     16  O2A       26.8740   27.0950    6.2390 O.co2 204  HEM204      0.0000
     17  NB        27.7990   23.7570   13.7760 N.2   204  HEM204      0.0000
     18  C1B       26.5490   23.4350   13.2620 C.2   204  HEM204      0.0000
     19  C2B       26.0670   22.2320   13.8910 C.2   204  HEM204      0.0000
     20  C3B       27.0020   21.8170   14.7490 C.2   204  HEM204      0.0000
     21  C4B       28.0780   22.7800   14.7130 C.2   204  HEM204      0.0000
     22  CMB       24.7180   21.5630   13.5230 C.3   204  HEM204      0.0000
     23  CAB       26.9740   20.5620   15.6480 C.2   204  HEM204      0.0000
     24  CBB       28.0450   19.7960   15.8600 C.2   204  HEM204      0.0000
     25  NC        30.4120   24.6450   14.5140 N.ar  204  HEM204      0.0000
     26  C1C       30.2960   23.5810   15.3850 C.ar  204  HEM204      0.0000
     27  C2C       31.5090   23.4960   16.1660 C.ar  204  HEM204      0.0000
     28  C3C       32.3410   24.4670   15.7600 C.ar  204  HEM204      0.0000
     29  C4C       31.6580   25.1910   14.6900 C.ar  204  HEM204      0.0000
     30  CMC       31.7260   22.4160   17.2460 C.3   204  HEM204      0.0000
     31  CAC       33.7780   24.8230   16.1870 C.2   204  HEM204      0.0000
     32  CBC       34.2120   24.8150   17.4310 C.2   204  HEM204      0.0000
     33  ND        30.2020   26.7530   12.6350 N.2   204  HEM204      0.0000
     34  C1D       31.5020   26.9830   13.0550 C.2   204  HEM204      0.0000
     35  C2D       32.0910   28.0290   12.2610 C.2   204  HEM204      0.0000
     36  C3D       31.1540   28.4370   11.3990 C.2   204  HEM204      0.0000
     37  C4D       29.9620   27.6600   11.6250 C.2   204  HEM204      0.0000
     38  CMD       33.5390   28.5490   12.4320 C.3   204  HEM204      0.0000
     39  CAD       31.2680   29.4990   10.2720 C.3   204  HEM204      0.0000
     40  CBD       31.3200   28.7520    8.9080 C.3   204  HEM204      0.0000
     41  CGD       32.4580   27.7760    8.7640 C.2   204  HEM204      0.0000
     42  O1D       32.2650   26.6140    8.3510 O.co2 204  HEM204      0.0000
     43  O2D       33.6290   28.1810    9.0230 O.co2 204  HEM204      0.0000
@<TRIPOS>BOND
     1    16    14   ar
     2    14    15   ar
     3    14    13    1
     4    13    12    1
     5    42    41   ar
     6    41    40    1
     7    41    43   ar
     8    40    39    1
     9    12     8    1
    10    39    36    1
    11     8     9   ar
    12     8     7   ar
    13    11     9    1
    14     9    10   ar
    15     2     7    2
    16     2    37    1
    17     7     6   ar
    18    36    37    1
    19    36    35    2
    20    37    33    2
    21    10     6   ar
    22    10     3    2
    23     6     1    1
    24    35    38    1
    25    35    34    1
    26     3    18    1
    27    33    34    1
    28    33     1    1
    29    34     5    2
    30     1    17    1
    31     1    25    1
    32    18    17    2
    33    18    19    1
    34    22    19    1
    35    17    21    1
    36    19    20    2
    37     5    29    1
    38    25    29   ar
    39    25    26   ar
    40    29    28   ar
    41    21    20    1
    42    21     4    2
    43    20    23    1
    44    26     4    1
    45    26    27   ar
    46    23    24    2
    47    28    27   ar
    48    28    31    1
    49    27    30    1
    50    31    32    2
