@<TRIPOS>MOLECULE
1cxz_GSP_A_1.pdb
 32 34 0 0 0
SMALL
GASTEIGER

@<TRIPOS>ATOM
      1  PG        11.9550   28.2080   48.8870 P.3   500  GSP500      0.4340
      2  O3B       10.4680   28.8170   49.3370 O.3   500  GSP500     -0.2405
      3  S1G       13.1510   29.7320   48.7890 S.3   500  GSP500      0.0416
      4  O2G       12.2860   27.2650   49.9750 O.3   500  GSP500     -0.1305
      5  O3G       11.6620   27.5770   47.5570 O.2   500  GSP500     -0.2423
      6  PB         9.0310   28.1330   49.4810 P.3   500  GSP500      0.2262
      7  O1B        8.4360   28.1180   48.1520 O.2   500  GSP500     -0.5168
      8  O2B        9.0060   26.8300   50.2270 O.3   500  GSP500     -0.4369
      9  PA         7.5890   29.1340   51.8350 P.3   500  GSP500      0.2189
     10  O1A        6.5620   28.0810   51.8020 O.2   500  GSP500     -0.5170
     11  O2A        8.6920   29.0000   52.8340 O.3   500  GSP500     -0.4371
     12  O3A        8.1950   29.1930   50.3330 O.3   500  GSP500     -0.2701
     13  O5'        6.9070   30.5900   51.9160 O.3   500  GSP500     -0.3112
     14  C5'        7.5370   31.7950   51.5050 C.3   500  GSP500      0.1813
     15  C4'        6.9540   32.9820   52.1840 C.3   500  GSP500      0.1799
     16  O4'        5.5470   33.1290   51.8340 O.3   500  GSP500     -0.3326
     17  C3'        6.9880   32.7970   53.6940 C.3   500  GSP500      0.2158
     18  O3'        7.2890   34.0240   54.3770 O.3   500  GSP500     -0.2175
     19  C2'        5.5620   32.3160   54.0530 C.3   500  GSP500      0.2310
     20  O2'        5.1370   32.6560   55.3550 O.3   500  GSP500     -0.2158
     21  C1'        4.6880   32.9960   53.0010 C.3   500  GSP500      0.2293
     22  N9         3.5380   32.1390   52.6520 N.pl3 500  GSP500     -0.2354
     23  C8         3.4970   30.7800   52.3830 C.3   500  GSP500      0.2246
     24  N7         2.3320   30.3160   52.1120 N.2   500  GSP500     -0.2322
     25  C5         1.5170   31.4470   52.2060 C.2   500  GSP500      0.2182
     26  C6         0.0800   31.5920   52.0160 C.1   500  GSP500      0.2372
     27  O6        -0.7670   30.7440   51.7240 O.2   500  GSP500     -0.2069
     28  N1        -0.3250   32.9140   52.2040 N.2   500  GSP500     -0.2485
     29  C2         0.5120   33.9520   52.5310 C.1   500  GSP500      0.2531
     30  N2         0.0070   35.1580   52.6780 N.pl3 500  GSP500     -0.0226
     31  N3         1.8230   33.8160   52.7110 N.2   500  GSP500     -0.3074
     32  C4         2.2570   32.5440   52.5290 C.2   500  GSP500      0.2300
@<TRIPOS>BOND
     1     5     1    2
     2     7     6    2
     3     3     1    1
     4     1     2    1
     5     1     4    1
     6     2     6    1
     7     6     8    1
     8     6    12    1
     9    12     9    1
    10    14    13    1
    11    14    15    1
    12    27    26    2
    13    10     9    2
    14    16    15    1
    15    16    21    1
    16     9    13    1
    17     9    11    1
    18    26    28    2
    19    26    25    1
    20    24    25    2
    21    24    23    1
    22    15    17    1
    23    28    29    2
    24    25    32    1
    25    23    22    1
    26    32    22    1
    27    32    31    2
    28    29    30    1
    29    29    31    2
    30    22    21    1
    31    21    19    1
    32    17    19    1
    33    17    18    1
    34    19    20    1
