@<TRIPOS>MOLECULE
1cy1_THP_A_1.pdb
 25 26 0 0 0
SMALL
GASTEIGER

@<TRIPOS>ATOM
      1  P2        34.4440   32.0840   21.3060 P.3   601  THP601      0.5327
      2  O4P       35.1750   33.3330   21.7430 O.3   601  THP601     -0.1145
      3  O5P       33.7170   31.2930   22.2970 O.3   601  THP601     -0.1145
      4  O6P       35.3790   31.2060   20.5620 O.2   601  THP601     -0.2224
      5  P1        33.1310   34.0620   14.4290 P.3   601  THP601      0.5326
      6  O1P       33.9400   35.2830   14.3190 O.3   601  THP601     -0.1145
      7  O2P       32.0360   33.6160   13.5430 O.2   601  THP601     -0.2224
      8  O3P       34.1600   32.8360   14.5200 O.3   601  THP601     -0.1145
      9  O5'       33.4100   32.4910   20.1690 O.3   601  THP601     -0.2675
     10  C5'       33.8760   33.0760   18.9880 C.3   601  THP601      0.1857
     11  C4'       32.7180   33.5780   18.1600 C.3   601  THP601      0.1748
     12  O4'       31.8500   34.4160   18.9320 O.3   601  THP601     -0.3340
     13  C3'       33.2480   34.4140   17.0500 C.3   601  THP601      0.1600
     14  O3'       32.4620   34.2350   15.8800 O.3   601  THP601     -0.2700
     15  C2'       33.2020   35.8330   17.5380 C.3   601  THP601      0.0847
     16  C1'       32.0140   35.7850   18.5030 C.3   601  THP601      0.2089
     17  N1        32.2900   36.6990   19.6640 N.am  601  THP601     -0.1794
     18  C2        32.5130   38.0850   19.4180 C.1   601  THP601      0.2844
     19  O2        32.3530   38.6390   18.3370 O.2   601  THP601     -0.1918
     20  N3        32.9360   38.8360   20.4970 N.2   601  THP601     -0.2455
     21  C4        33.1480   38.3640   21.7940 C.1   601  THP601      0.2134
     22  O4        33.5580   39.1620   22.6290 O.2   601  THP601     -0.2088
     23  C5        32.9060   36.9260   22.0010 C.2   601  THP601      0.0891
     24  C5M       33.0510   36.2890   23.4020 C.3   601  THP601      0.0462
     25  C6        32.4870   36.1680   20.9550 C.2   601  THP601      0.0877
@<TRIPOS>BOND
     1     7     5    2
     2     6     5    1
     3     5     8    1
     4     5    14    1
     5    14    13    1
     6    13    15    1
     7    13    11    1
     8    15    16    1
     9    11    12    1
    10    11    10    1
    11    19    18    2
    12    16    12    1
    13    16    17    1
    14    10     9    1
    15    18    17   am
    16    18    20    2
    17    17    25    1
    18     9     1    1
    19    20    21    2
    20     4     1    2
    21    25    23    2
    22     1     2    1
    23     1     3    1
    24    21    23    1
    25    21    22    2
    26    23    24    1
