@<TRIPOS>MOLECULE
1cy1_TMP_A_1.pdb
 21 22 0 0 0
SMALL
GASTEIGER

@<TRIPOS>ATOM
      1  P         36.9240   16.8170   42.6870 P.3   600  TMP600      0.5327
      2  O1P       35.4190   16.7980   42.8410 O.3   600  TMP600     -0.1145
      3  O2P       37.5420   16.1050   41.5630 O.2   600  TMP600     -0.2224
      4  O3P       37.5470   16.3790   43.9460 O.3   600  TMP600     -0.1145
      5  O5'       37.2280   18.3050   42.5180 O.3   600  TMP600     -0.2675
      6  C5'       38.5670   18.8640   42.3310 C.3   600  TMP600      0.1858
      7  C4'       38.4280   19.9510   41.2660 C.3   600  TMP600      0.1774
      8  O4'       39.5120   20.8890   41.4850 O.3   600  TMP600     -0.3339
      9  C3'       38.5870   19.4700   39.8080 C.3   600  TMP600      0.1857
     10  O3'       37.9620   20.4420   38.9740 O.3   600  TMP600     -0.2203
     11  C2'       40.1090   19.4830   39.5790 C.3   600  TMP600      0.0874
     12  C1'       40.6130   20.4850   40.6310 C.3   600  TMP600      0.2090
     13  N1        41.9840   20.8680   41.0120 N.am  600  TMP600     -0.1794
     14  C2        43.1510   20.2450   40.4980 C.1   600  TMP600      0.2844
     15  O2        43.1570   19.3110   39.6820 O.2   600  TMP600     -0.1918
     16  N3        44.3410   20.7960   41.0020 N.2   600  TMP600     -0.2455
     17  C4        44.4370   21.8580   41.9270 C.1   600  TMP600      0.2134
     18  O4        45.5360   22.2750   42.3070 O.2   600  TMP600     -0.2088
     19  C5        43.1820   22.4170   42.3950 C.2   600  TMP600      0.0891
     20  C5M       43.1740   23.5100   43.3440 C.3   600  TMP600      0.0462
     21  C6        41.9970   21.8810   41.9000 C.2   600  TMP600      0.0877
@<TRIPOS>BOND
     1    10     9    1
     2    11     9    1
     3    11    12    1
     4    15    14    2
     5     9     7    1
     6    14    16    2
     7    14    13   am
     8    12    13    1
     9    12     8    1
    10    16    17    2
    11    13    21    1
    12     7     8    1
    13     7     6    1
    14     3     1    2
    15    21    19    2
    16    17    18    2
    17    17    19    1
    18     6     5    1
    19    19    20    1
    20     5     1    1
    21     1     2    1
    22     1     4    1
