@<TRIPOS>MOLECULE
1cy2_TMP_A_1.pdb
 21 22 0 0 0
SMALL
GASTEIGER

@<TRIPOS>ATOM
      1  P         37.3800   17.3440   42.5520 P.3   600  TMP600      0.5327
      2  O1P       37.4860   16.0730   41.7490 O.2   600  TMP600     -0.2224
      3  O2P       38.0530   17.1900   43.8380 O.3   600  TMP600     -0.1145
      4  O3P       35.9780   17.7450   42.7200 O.3   600  TMP600     -0.1145
      5  O5'       38.1360   18.4020   41.7070 O.3   600  TMP600     -0.2675
      6  C5'       38.3350   19.8370   42.0560 C.3   600  TMP600      0.1858
      7  C4'       39.4880   20.3760   41.1880 C.3   600  TMP600      0.1774
      8  O4'       40.5470   20.8300   42.0860 O.3   600  TMP600     -0.3339
      9  C3'       40.1610   19.3460   40.2380 C.3   600  TMP600      0.1857
     10  O3'       39.5790   19.5110   38.9560 O.3   600  TMP600     -0.2203
     11  C2'       41.6310   19.7600   40.1920 C.3   600  TMP600      0.0874
     12  C1'       41.7740   20.7640   41.3400 C.3   600  TMP600      0.2090
     13  N1        42.9940   21.4150   41.8570 N.am  600  TMP600     -0.1794
     14  C2        44.2280   20.7330   42.0110 C.1   600  TMP600      0.2844
     15  O2        44.4060   19.5460   41.7400 O.2   600  TMP600     -0.1918
     16  N3        45.2630   21.5400   42.5010 N.2   600  TMP600     -0.2455
     17  C4        45.1630   22.9070   42.8350 C.1   600  TMP600      0.2134
     18  O4        46.1420   23.5300   43.2570 O.2   600  TMP600     -0.2088
     19  C5        43.8550   23.5200   42.6480 C.2   600  TMP600      0.0891
     20  C5M       43.6430   24.9340   42.9570 C.3   600  TMP600      0.0462
     21  C6        42.8130   22.7170   42.1580 C.2   600  TMP600      0.0877
@<TRIPOS>BOND
     1    10     9    1
     2    11     9    1
     3    11    12    1
     4     9     7    1
     5     7     6    1
     6     7     8    1
     7    12    13    1
     8    12     8    1
     9     5     6    1
    10     5     1    1
    11    15    14    2
    12     2     1    2
    13    13    14   am
    14    13    21    1
    15    14    16    2
    16    21    19    2
    17    16    17    2
    18     1     4    1
    19     1     3    1
    20    19    17    1
    21    19    20    1
    22    17    18    2
