@<TRIPOS>MOLECULE
1cy4_TMP_A_1.pdb
 21 22 0 0 0
SMALL
GASTEIGER

@<TRIPOS>ATOM
      1  P         37.7790   17.2980   43.3880 P.3   600  TMP600      0.5327
      2  O1P       37.7650   15.9660   42.6850 O.2   600  TMP600     -0.2224
      3  O2P       38.5690   17.2230   44.6090 O.3   600  TMP600     -0.1145
      4  O3P       36.4170   17.7590   43.6610 O.3   600  TMP600     -0.1145
      5  O5'       38.4740   18.2740   42.4010 O.3   600  TMP600     -0.2675
      6  C5'       38.7350   19.7300   42.6430 C.3   600  TMP600      0.1858
      7  C4'       39.8310   20.2140   41.6610 C.3   600  TMP600      0.1774
      8  O4'       40.8970   20.8190   42.4510 O.3   600  TMP600     -0.3339
      9  C3'       40.5210   19.1150   40.8120 C.3   600  TMP600      0.1857
     10  O3'       39.8820   19.0970   39.5450 O.3   600  TMP600     -0.2203
     11  C2'       41.9690   19.5950   40.6500 C.3   600  TMP600      0.0874
     12  C1'       42.1040   20.7320   41.6600 C.3   600  TMP600      0.2090
     13  N1        43.3020   21.5080   42.0510 N.am  600  TMP600     -0.1794
     14  C2        44.5470   21.4020   41.3850 C.1   600  TMP600      0.2844
     15  O2        44.7600   20.6760   40.4430 O.2   600  TMP600     -0.1918
     16  N3        45.5550   22.2230   41.9030 N.2   600  TMP600     -0.2455
     17  C4        45.4190   23.0980   42.9820 C.1   600  TMP600      0.2134
     18  O4        46.3660   23.7920   43.3680 O.2   600  TMP600     -0.2088
     19  C5        44.1100   23.1390   43.6010 C.2   600  TMP600      0.0891
     20  C5M       43.8780   24.0080   44.7020 C.3   600  TMP600      0.0462
     21  C6        43.0940   22.3250   43.0960 C.2   600  TMP600      0.0877
@<TRIPOS>BOND
     1    10     9    1
     2    15    14    2
     3    11     9    1
     4    11    12    1
     5     9     7    1
     6    14    16    2
     7    14    13   am
     8    12    13    1
     9    12     8    1
    10     7     8    1
    11     7     6    1
    12    16    17    2
    13    13    21    1
    14     5     6    1
    15     5     1    1
    16     2     1    2
    17    17    18    2
    18    17    19    1
    19    21    19    2
    20     1     4    1
    21     1     3    1
    22    19    20    1
