@<TRIPOS>MOLECULE
1cy6_T3P_A_1.pdb
 21 22 0 0 0
SMALL
GASTEIGER

@<TRIPOS>ATOM
      1  P         38.0750   17.6320   43.8720 P.3   600  T3P600      0.5326
      2  OP1       38.7080   16.5690   43.0810 O.2   600  T3P600     -0.2224
      3  OP2       36.7310   17.6370   44.4650 O.3   600  T3P600     -0.1145
      4  OP3       39.0950   17.9590   45.0490 O.3   600  T3P600     -0.1145
      5  O5'       38.1960   23.3940   41.5500 O.3   600  T3P600     -0.2176
      6  C5'       38.3970   22.4570   42.5870 C.3   600  T3P600      0.2140
      7  C4'       38.6580   21.1050   41.9520 C.3   600  T3P600      0.1775
      8  O4'       39.8390   21.1660   41.1260 O.3   600  T3P600     -0.3339
      9  C3'       38.8950   20.0500   43.0140 C.3   600  T3P600      0.1601
     10  O3'       38.0880   18.8710   42.8140 O.3   600  T3P600     -0.2700
     11  C2'       40.3590   19.7170   42.9700 C.3   600  T3P600      0.0847
     12  C1'       40.7980   20.2140   41.5980 C.3   600  T3P600      0.2089
     13  N1        42.1820   20.7600   41.7740 N.am  600  T3P600     -0.1794
     14  C2        43.1840   20.2210   40.9290 C.1   600  T3P600      0.2844
     15  O2        42.9960   19.3520   40.0750 O.2   600  T3P600     -0.1918
     16  N3        44.4520   20.7200   41.0970 N.2   600  T3P600     -0.2455
     17  C4        44.8310   21.6900   42.0050 C.1   600  T3P600      0.2134
     18  O4        46.0100   22.0180   42.0210 O.2   600  T3P600     -0.2088
     19  C5        43.7720   22.2280   42.8650 C.2   600  T3P600      0.0891
     20  C5M       44.1100   23.3130   43.9100 C.3   600  T3P600      0.0462
     21  C6        42.4990   21.7590   42.7280 C.2   600  T3P600      0.0877
@<TRIPOS>BOND
     1    15    14    2
     2    14    16    2
     3    14    13   am
     4    16    17    2
     5     8    12    1
     6     8     7    1
     7     5     6    1
     8    12    13    1
     9    12    11    1
    10    13    21    1
    11     7     6    1
    12     7     9    1
    13    17    18    2
    14    17    19    1
    15    21    19    2
    16    10     9    1
    17    10     1    1
    18    19    20    1
    19    11     9    1
    20     2     1    2
    21     1     3    1
    22     1     4    1
