@<TRIPOS>MOLECULE
1cy7_TMP_A_1.pdb
 21 22 0 0 0
SMALL
GASTEIGER

@<TRIPOS>ATOM
      1  P         37.7640   17.4610   43.4750 P.3   600  TMP600      0.5327
      2  O1P       36.7010   17.0990   44.4820 O.3   600  TMP600     -0.1145
      3  O2P       37.9820   16.3620   42.5320 O.2   600  TMP600     -0.2224
      4  O3P       39.0120   17.8470   44.1450 O.3   600  TMP600     -0.1145
      5  O5'       37.1740   18.6690   42.7140 O.3   600  TMP600     -0.2675
      6  C5'       37.8340   19.4030   41.6080 C.3   600  TMP600      0.1858
      7  C4'       38.0390   20.8370   42.1260 C.3   600  TMP600      0.1774
      8  O4'       39.3850   20.9340   42.6860 O.3   600  TMP600     -0.3339
      9  C3'       37.9400   21.9430   41.0500 C.3   600  TMP600      0.1857
     10  O3'       37.4400   23.1020   41.6910 O.3   600  TMP600     -0.2203
     11  C2'       39.3860   22.1800   40.5870 C.3   600  TMP600      0.0874
     12  C1'       40.2270   21.5930   41.7220 C.3   600  TMP600      0.2090
     13  N1        41.6740   21.4010   41.8150 N.am  600  TMP600     -0.1794
     14  C2        42.3450   20.3590   41.1510 C.1   600  TMP600      0.2844
     15  O2        41.7900   19.5170   40.4340 O.2   600  TMP600     -0.1918
     16  N3        43.7250   20.3530   41.3760 N.2   600  TMP600     -0.2455
     17  C4        44.4390   21.2670   42.1760 C.1   600  TMP600      0.2134
     18  O4        45.6600   21.1650   42.3060 O.2   600  TMP600     -0.2088
     19  C5        43.6510   22.3170   42.8220 C.2   600  TMP600      0.0891
     20  C5M       44.2810   23.3320   43.6810 C.3   600  TMP600      0.0462
     21  C6        42.2720   22.3200   42.5960 C.2   600  TMP600      0.0877
@<TRIPOS>BOND
     1    15    14    2
     2    11     9    1
     3    11    12    1
     4     9    10    1
     5     9     7    1
     6    14    16    2
     7    14    13   am
     8    16    17    2
     9     6     7    1
    10     6     5    1
    11    12    13    1
    12    12     8    1
    13    13    21    1
    14     7     8    1
    15    17    18    2
    16    17    19    1
    17     3     1    2
    18    21    19    2
    19     5     1    1
    20    19    20    1
    21     1     4    1
    22     1     2    1
