@<TRIPOS>MOLECULE
1cy8_TMP_A_1.pdb
 21 22 0 0 0
SMALL
GASTEIGER

@<TRIPOS>ATOM
      1  P         49.0400   38.2090   18.7940 P.3   601  TMP601      0.5327
      2  O1P       49.2190   39.3530   19.7640 O.3   601  TMP601     -0.1145
      3  O2P       50.0730   37.2040   19.0020 O.3   601  TMP601     -0.1145
      4  O3P       49.0390   38.6820   17.3960 O.2   601  TMP601     -0.2224
      5  O5'       47.6550   37.6020   19.1370 O.3   601  TMP601     -0.2675
      6  C5'       47.0720   36.5100   18.4810 C.3   601  TMP601      0.1858
      7  C4'       46.1160   35.8010   19.4530 C.3   601  TMP601      0.1774
      8  O4'       45.6270   34.6030   18.7650 O.3   601  TMP601     -0.3339
      9  C3'       46.7510   35.3070   20.7830 C.3   601  TMP601      0.1857
     10  O3'       45.7560   35.3430   21.7860 O.3   601  TMP601     -0.2203
     11  C2'       47.1460   33.8440   20.5170 C.3   601  TMP601      0.0874
     12  C1'       46.3330   33.4480   19.2790 C.3   601  TMP601      0.2090
     13  N1        46.3910   32.1970   18.4730 N.am  601  TMP601     -0.1794
     14  C2        47.0240   31.0350   18.9400 C.1   601  TMP601      0.2844
     15  O2        47.5760   30.9450   20.0320 O.2   601  TMP601     -0.1918
     16  N3        46.9810   29.9680   18.0480 N.2   601  TMP601     -0.2455
     17  C4        46.3810   29.9640   16.7770 C.1   601  TMP601      0.2134
     18  O4        46.4100   28.9520   16.0730 O.2   601  TMP601     -0.2088
     19  C5        45.7420   31.2100   16.3600 C.2   601  TMP601      0.0891
     20  C5M       45.0820   31.3260   15.0470 C.3   601  TMP601      0.0462
     21  C6        45.7830   32.2910   17.2580 C.2   601  TMP601      0.0877
@<TRIPOS>BOND
     1    20    19    1
     2    18    17    2
     3    19    17    1
     4    19    21    2
     5    17    16    2
     6    21    13    1
     7     4     1    2
     8    16    14    2
     9    13    14   am
    10    13    12    1
    11     6     5    1
    12     6     7    1
    13     8    12    1
    14     8     7    1
    15     1     3    1
    16     1     5    1
    17     1     2    1
    18    14    15    2
    19    12    11    1
    20     7     9    1
    21    11     9    1
    22     9    10    1
