@<TRIPOS>MOLECULE
1cy8_T3P_A_1.pdb
 21 22 0 0 0
SMALL
GASTEIGER

@<TRIPOS>ATOM
      1  P         37.5830   17.1670   43.5260 P.3   600  T3P600      0.5326
      2  OP1       37.8730   16.3660   42.2880 O.2   600  T3P600     -0.2224
      3  OP2       36.2880   17.7520   43.8270 O.3   600  T3P600     -0.1145
      4  OP3       38.7390   17.8160   44.1760 O.3   600  T3P600     -0.1145
      5  O5'       37.4400   22.7890   41.9200 O.3   600  T3P600     -0.2176
      6  C5'       37.9680   21.6620   42.5660 C.3   600  T3P600      0.2140
      7  C4'       38.0570   20.5490   41.5220 C.3   600  T3P600      0.1775
      8  O4'       38.9710   20.9700   40.4660 O.3   600  T3P600     -0.3339
      9  C3'       38.6170   19.2760   42.1110 C.3   600  T3P600      0.1601
     10  O3'       37.5690   18.3100   42.3550 O.3   600  T3P600     -0.2700
     11  C2'       39.6270   18.7520   41.1320 C.3   600  T3P600      0.0847
     12  C1'       40.0300   20.0030   40.3520 C.3   600  T3P600      0.2089
     13  N1        41.3840   20.4340   40.8680 N.am  600  T3P600     -0.1794
     14  C2        42.4960   19.7520   40.3150 C.1   600  T3P600      0.2844
     15  O2        42.4200   18.8620   39.4740 O.2   600  T3P600     -0.1918
     16  N3        43.7350   20.1270   40.7630 N.2   600  T3P600     -0.2455
     17  C4        43.9990   21.1050   41.7010 C.1   600  T3P600      0.2134
     18  O4        45.1700   21.3100   41.9830 O.2   600  T3P600     -0.2088
     19  C5        42.8380   21.7980   42.2640 C.2   600  T3P600      0.0891
     20  C5M       43.0560   22.9070   43.3200 C.3   600  T3P600      0.0462
     21  C6        41.5800   21.4510   41.8390 C.2   600  T3P600      0.0877
@<TRIPOS>BOND
     1    15    14    2
     2    14    16    2
     3    14    13   am
     4    12     8    1
     5    12    13    1
     6    12    11    1
     7     8     7    1
     8    16    17    2
     9    13    21    1
    10    11     9    1
    11     7     9    1
    12     7     6    1
    13    17    18    2
    14    17    19    1
    15    21    19    2
    16     5     6    1
    17     9    10    1
    18    19    20    1
    19     2     1    2
    20    10     1    1
    21     1     3    1
    22     1     4    1
