@<TRIPOS>MOLECULE
1cyc_HEM_A_1.pdb
 43 50 0 0 0
SMALL
GASTEIGER

@<TRIPOS>ATOM
      1 FE        -15.2160    5.7730   12.7010 Fe    104  HEM104      0.0000
      2  CHA      -16.9800    6.4660   15.3470 C.2   104  HEM104      0.0000
      3  CHB      -16.4760    8.2930   11.1890 C.2   104  HEM104      0.0000
      4  CHC      -13.5780    5.0170    9.9290 C.2   104  HEM104      0.0000
      5  CHD      -13.9560    3.1270   14.3390 C.2   104  HEM104      0.0000
      6  NA       -16.4760    7.0960   13.2050 N.ar  104  HEM104      0.0000
      7  C1A      -17.1060    7.1590   14.4650 C.ar  104  HEM104      0.0000
      8  C2A      -17.8620    8.1670   14.5910 C.ar  104  HEM104      0.0000
      9  C3A      -17.7360    8.7970   13.2050 C.ar  104  HEM104      0.0000
     10  C4A      -17.1140    8.1670   12.3230 C.ar  104  HEM104      0.0000
     11  CMA      -18.3030   10.0570   12.7010 C.3   104  HEM104      0.0000
     12  CAA      -18.6180    8.1670   15.5990 C.3   104  HEM104      0.0000
     13  CBA      -20.0670    8.7340   15.4730 C.3   104  HEM104      0.0000
     14  CGA      -20.8230    8.7340   16.8590 C.2   104  HEM104      0.0000
     15  O1A      -21.7050    8.0410   17.1110 O.co2 104  HEM104      0.0000
     16  O2A      -20.5080    9.4900   17.7410 O.co2 104  HEM104      0.0000
     17  NB       -15.0900    6.4660   11.1260 N.2   104  HEM104      0.0000
     18  C1B      -15.5940    7.3480   10.5590 C.2   104  HEM104      0.0000
     19  C2B      -15.2160    7.6630    9.2990 C.2   104  HEM104      0.0000
     20  C3B      -14.3340    6.5920    8.9210 C.2   104  HEM104      0.0000
     21  C4B      -14.3340    6.0250    9.9290 C.2   104  HEM104      0.0000
     22  CMB      -15.6570    8.7970    8.5430 C.3   104  HEM104      0.0000
     23  CAB      -13.5780    6.7810    7.4090 C.3   104  HEM104      0.0000
     24  CBB      -12.5700    7.6630    7.6610 C.3   104  HEM104      0.0000
     25  NC       -13.9560    4.3870   12.1970 N.ar  104  HEM104      0.0000
     26  C1C      -13.4520    4.2610   10.8110 C.ar  104  HEM104      0.0000
     27  C2C      -12.7590    3.0010   10.8110 C.ar  104  HEM104      0.0000
     28  C3C      -12.9480    2.6230   11.9450 C.ar  104  HEM104      0.0000
     29  C4C      -13.7040    3.3790   12.9530 C.ar  104  HEM104      0.0000
     30  CMC      -11.6880    2.4970    9.8030 C.3   104  HEM104      0.0000
     31  CAC      -12.4440    1.1110   12.1970 C.2   104  HEM104      0.0000
     32  CBC      -11.1840    0.8590   12.0080 C.2   104  HEM104      0.0000
     33  ND       -15.4050    5.1430   14.2130 N.2   104  HEM104      0.0000
     34  C1D      -14.8380    4.0090   14.8430 C.2   104  HEM104      0.0000
     35  C2D      -15.2160    3.7570   15.9770 C.2   104  HEM104      0.0000
     36  C3D      -16.0980    4.7650   16.3550 C.2   104  HEM104      0.0000
     37  C4D      -16.1610    5.3950   15.3470 C.2   104  HEM104      0.0000
     38  CMD      -14.8380    2.7490   16.7330 C.3   104  HEM104      0.0000
     39  CAD      -16.8540    4.5130   17.6150 C.3   104  HEM104      0.0000
     40  CBD      -16.0980    4.1350   18.6230 C.3   104  HEM104      0.0000
     41  CGD      -15.2160    5.0170   19.5050 C.2   104  HEM104      0.0000
     42  O1D      -14.0820    5.7730   18.5600 O.co2 104  HEM104      0.0000
     43  O2D      -15.4050    5.6470   20.6390 O.co2 104  HEM104      0.0000
@<TRIPOS>BOND
     1    23    24    1
     2    23    20    1
     3    22    19    1
     4    20    19    2
     5    20    21    1
     6    19    18    1
     7    30    27    1
     8     4    21    2
     9     4    26    1
    10    21    17    1
    11    18    17    2
    12    18     3    1
    13    26    27   ar
    14    26    25   ar
    15    27    28   ar
    16    17     1    1
    17     3    10    2
    18    28    31    1
    19    28    29   ar
    20    32    31    2
    21    25     1    1
    22    25    29   ar
    23    10     9   ar
    24    10     6   ar
    25    11     9    1
    26     1     6    1
    27     1    33    1
    28    29     5    1
    29     9     8   ar
    30     6     7   ar
    31    33    34    1
    32    33    37    2
    33     5    34    2
    34     7     8   ar
    35     7     2    2
    36     8    12    1
    37    34    35    1
    38     2    37    1
    39    37    36    1
    40    13    12    1
    41    13    14    1
    42    35    36    2
    43    35    38    1
    44    36    39    1
    45    14    15   ar
    46    14    16   ar
    47    39    40    1
    48    42    41   ar
    49    40    41    1
    50    41    43   ar
