@<TRIPOS>MOLECULE
1cyd_NAP_A_1.pdb
 48 52 0 0 0
SMALL
GASTEIGER

@<TRIPOS>ATOM
      1  PA        26.3860   23.7890    3.6260 P.3   245  NAP245      0.2189
      2  O1A       27.7460   23.4110    3.1980 O.3   245  NAP245     -0.4371
      3  O2A       25.4460   24.2660    2.6030 O.2   245  NAP245     -0.5170
      4  O5B       26.4680   24.7550    4.8740 O.3   245  NAP245     -0.3112
      5  C5B       27.3540   24.4660    5.9730 C.3   245  NAP245      0.1813
      6  C4B       27.5820   25.7710    6.7280 C.3   245  NAP245      0.1820
      7  O4B       28.4150   25.5660    7.8950 O.3   245  NAP245     -0.3136
      8  C3B       28.3130   26.8270    5.9000 C.3   245  NAP245      0.2157
      9  O3B       28.0290   28.1680    6.3440 O.3   245  NAP245     -0.2175
     10  C2B       29.7620   26.5720    6.2650 C.3   245  NAP245      0.2314
     11  O2B       30.4970   27.7950    6.0480 O.3   245  NAP245     -0.2630
     12  C1B       29.6180   26.3200    7.7410 C.3   245  NAP245      0.3158
     13  N9A       30.8760   25.7590    8.2650 N.pl3 245  NAP245     -0.1439
     14  C8A       31.5530   24.7120    7.7510 C.3   245  NAP245      0.3377
     15  N7A       32.7370   24.5730    8.3350 N.2   245  NAP245     -0.2095
     16  C5A       32.7630   25.5630    9.2200 C.2   245  NAP245      0.2526
     17  C6A       33.8320   25.8480   10.0630 C.2   245  NAP245      0.4393
     18  N6A       34.9900   25.1810    9.9860 N.pl3 245  NAP245      0.2180
     19  N1A       33.6530   26.9030   10.8870 N.2   245  NAP245      0.0021
     20  C2A       32.5280   27.6310   10.8860 C.3   245  NAP245      0.5254
     21  N3A       31.5210   27.3490   10.0610 N.2   245  NAP245     -0.0055
     22  C4A       31.6160   26.3140    9.2130 C.2   245  NAP245      0.3518
     23  O3        25.7960   22.5070    4.3320 O.3   245  NAP245     -0.2703
     24  PN        24.3430   22.0810    4.8060 P.3   245  NAP245      0.2189
     25  O1N       23.8890   21.1740    3.7450 O.2   245  NAP245     -0.5170
     26  O2N       23.5500   23.2750    5.1470 O.3   245  NAP245     -0.4371
     27  O5D       24.6190   21.1470    6.0780 O.3   245  NAP245     -0.3112
     28  C5D       24.4040   21.6280    7.3950 C.3   245  NAP245      0.1813
     29  C4D       24.3720   20.4920    8.3980 C.3   245  NAP245      0.1799
     30  O4D       23.4300   19.5550    7.8500 O.3   245  NAP245     -0.3327
     31  C3D       25.6820   19.7420    8.5400 C.3   245  NAP245      0.2158
     32  O3D       25.8770   19.2600    9.8740 O.3   245  NAP245     -0.2175
     33  C2D       25.5050   18.5280    7.6240 C.3   245  NAP245      0.2309
     34  O2D       26.2690   17.4660    8.1810 O.3   245  NAP245     -0.2158
     35  C1D       24.0250   18.2560    7.8140 C.3   245  NAP245      0.2263
     36  N1N       23.4390   17.4890    6.6940 N.pl3 245  NAP245     -0.2787
     37  C2N       23.3740   17.9760    5.3510 C.3   245  NAP245      0.1244
     38  C3N       22.8030   17.1710    4.3470 C.2   245  NAP245      0.0544
     39  C7N       22.7470   17.5280    2.8440 C.2   245  NAP245      0.2818
     40  O7N       22.6290   16.6790    1.9600 O.2   245  NAP245     -0.2670
     41  N7N       22.8680   18.7950    2.4880 N.am  245  NAP245     -0.0839
     42  C4N       22.3040   15.9210    4.7230 C.2   245  NAP245      0.0033
     43  C5N       22.3610   15.4430    6.0360 C.2   245  NAP245      0.0157
     44  C6N       22.9360   16.2250    7.0330 C.2   245  NAP245      0.0633
     45  P2B       31.4850   27.9930    4.8190 P.3   245  NAP245      0.5328
     46  O1X       32.0460   29.4740    5.0100 O.3   245  NAP245     -0.1145
     47  O2X       30.7390   27.8990    3.5740 O.2   245  NAP245     -0.2224
     48  O3X       32.6260   27.0720    5.0430 O.3   245  NAP245     -0.1145
@<TRIPOS>BOND
     1    40    39    2
     2    41    39   am
     3     3     1    2
     4    39    38    1
     5     2     1    1
     6    47    45    2
     7     1    23    1
     8     1     4    1
     9    25    24    2
    10    23    24    1
    11    38    42    2
    12    38    37    1
    13    42    43    1
    14    24    26    1
    15    24    27    1
    16    45    46    1
    17    45    48    1
    18    45    11    1
    19     4     5    1
    20    37    36    1
    21     8    10    1
    22     8     9    1
    23     8     6    1
    24     5     6    1
    25    43    44    2
    26    11    10    1
    27    27    28    1
    28    10    12    1
    29    36    44    1
    30    36    35    1
    31     6     7    1
    32    28    29    1
    33    33    35    1
    34    33    34    1
    35    33    31    1
    36    12     7    1
    37    12    13    1
    38    14    13    1
    39    14    15    1
    40    35    30    1
    41    30    29    1
    42    13    22    1
    43    15    16    2
    44    29    31    1
    45    31    32    1
    46    22    16    1
    47    22    21    2
    48    16    17    1
    49    18    17    1
    50    21    20    1
    51    17    19    2
    52    20    19    1
