@<TRIPOS>MOLECULE
1cyf_HEM_A_1.pdb
 43 50 0 0 0
SMALL
GASTEIGER

@<TRIPOS>ATOM
      1 FE         36.8720   29.0100    6.9890 Fe    296  HEM296      0.0000
      2  CHA       38.6500   28.2490    9.7040 C.2   296  HEM296      0.0000
      3  CHB       34.6490   30.8860    8.8830 C.2   296  HEM296      0.0000
      4  CHC       35.0280   29.8050    4.2330 C.2   296  HEM296      0.0000
      5  CHD       39.1430   27.5280    5.0180 C.2   296  HEM296      0.0000
      6  NA        36.7410   29.5680    8.8270 N.2   296  HEM296      0.0000
      7  C1A       37.4890   28.9860    9.8320 C.2   296  HEM296      0.0000
      8  C2A       37.0260   29.5160   11.0950 C.2   296  HEM296      0.0000
      9  C3A       35.9240   30.2420   10.8640 C.2   296  HEM296      0.0000
     10  C4A       35.6530   30.1430    9.4550 C.2   296  HEM296      0.0000
     11  CMA       35.3780   31.3940   11.7150 C.3   296  HEM296      0.0000
     12  CAA       37.8150   29.3860   12.3930 C.3   296  HEM296      0.0000
     13  CBA       38.8810   30.4680   12.5360 C.3   296  HEM296      0.0000
     14  CGA       39.5570   30.3380   13.8590 C.2   296  HEM296      0.0000
     15  O1A       38.8030   30.5070   14.8570 O.co2 296  HEM296      0.0000
     16  O2A       40.7660   30.0220   13.7710 O.co2 296  HEM296      0.0000
     17  NB        35.0880   29.9130    6.6700 N.ar  296  HEM296      0.0000
     18  C1B       34.2850   30.5200    7.6080 C.ar  296  HEM296      0.0000
     19  C2B       33.1720   31.1540    6.9330 C.ar  296  HEM296      0.0000
     20  C3B       33.3130   30.9250    5.6430 C.ar  296  HEM296      0.0000
     21  C4B       34.6100   30.3150    5.4380 C.ar  296  HEM296      0.0000
     22  CMB       31.9820   31.8540    7.6220 C.3   296  HEM296      0.0000
     23  CAB       32.2230   31.0620    4.5660 C.2   296  HEM296      0.0000
     24  CBB       30.9340   30.9820    4.9000 C.2   296  HEM296      0.0000
     25  NC        36.9530   28.5790    5.0430 N.2   296  HEM296      0.0000
     26  C1C       36.0810   28.9490    4.0500 C.2   296  HEM296      0.0000
     27  C2C       36.8010   28.9210    2.7850 C.2   296  HEM296      0.0000
     28  C3C       37.9620   28.2830    3.0160 C.2   296  HEM296      0.0000
     29  C4C       37.9880   27.9490    4.4220 C.2   296  HEM296      0.0000
     30  CMC       36.0400   29.0410    1.4650 C.3   296  HEM296      0.0000
     31  CAC       39.0610   27.7080    2.0890 C.2   296  HEM296      0.0000
     32  CBC       38.9110   27.3130    0.8280 C.2   296  HEM296      0.0000
     33  ND        38.7290   28.3230    7.3060 N.ar  296  HEM296      0.0000
     34  C1D       39.4000   27.5970    6.3580 C.ar  296  HEM296      0.0000
     35  C2D       40.3420   26.7140    6.9970 C.ar  296  HEM296      0.0000
     36  C3D       40.3670   27.0550    8.2830 C.ar  296  HEM296      0.0000
     37  C4D       39.2880   28.0030    8.5090 C.ar  296  HEM296      0.0000
     38  CMD       41.2060   25.6920    6.2510 C.3   296  HEM296      0.0000
     39  CAD       41.1220   26.4130    9.4280 C.3   296  HEM296      0.0000
     40  CBD       41.9260   27.5570   10.0390 C.3   296  HEM296      0.0000
     41  CGD       42.8820   27.1140   11.0810 C.2   296  HEM296      0.0000
     42  O1D       43.4940   28.0610   11.6450 O.co2 296  HEM296      0.0000
     43  O2D       42.8550   25.8780   11.2830 O.co2 296  HEM296      0.0000
@<TRIPOS>BOND
     1    32    31    2
     2    30    27    1
     3    31    28    1
     4    27    28    2
     5    27    26    1
     6    28    29    1
     7    26     4    2
     8    26    25    1
     9     4    21    1
    10    29     5    1
    11    29    25    2
    12    23    24    2
    13    23    20    1
    14     5    34    2
    15    25     1    1
    16    21    20   ar
    17    21    17   ar
    18    20    19   ar
    19    38    35    1
    20    34    35   ar
    21    34    33   ar
    22    17     1    1
    23    17    18   ar
    24    19    18   ar
    25    19    22    1
    26     1    33    1
    27     1     6    1
    28    35    36   ar
    29    33    37   ar
    30    18     3    1
    31    36    37   ar
    32    36    39    1
    33    37     2    2
    34     6    10    1
    35     6     7    2
    36     3    10    2
    37    39    40    1
    38    10     9    1
    39     2     7    1
    40     7     8    1
    41    40    41    1
    42     9     8    2
    43     9    11    1
    44    41    43   ar
    45    41    42   ar
    46     8    12    1
    47    12    13    1
    48    13    14    1
    49    16    14   ar
    50    14    15   ar
