@<TRIPOS>MOLECULE
1cyi_HEM_A_1.pdb
 43 50 0 0 0
SMALL
GASTEIGER

@<TRIPOS>ATOM
      1  CHA       29.9820   12.8910   65.0890 C.2   200  HEM200      0.0000
      2  CHB       29.4740   12.0810   69.9130 C.2   200  HEM200      0.0000
      3  CHC       26.0310   15.4970   69.9940 C.2   200  HEM200      0.0000
      4  CHD       25.9900   15.7420   65.1990 C.2   200  HEM200      0.0000
      5  C1A       30.0760   12.2990   66.3720 C.2   200  HEM200      0.0000
      6  C2A       31.0080   11.3460   66.7660 C.2   200  HEM200      0.0000
      7  C3A       30.9560   11.1980   68.1200 C.2   200  HEM200      0.0000
      8  C4A       29.9240   12.0220   68.5410 C.2   200  HEM200      0.0000
      9  CMA       31.7930   10.3850   69.0860 C.3   200  HEM200      0.0000
     10  CAA       31.9030   10.6230   65.7730 C.3   200  HEM200      0.0000
     11  CBA       31.0990    9.5800   65.0190 C.3   200  HEM200      0.0000
     12  CGA       31.8810    8.9600   63.8820 C.2   200  HEM200      0.0000
     13  O1A       32.9010    9.5230   63.4680 O.co2 200  HEM200      0.0000
     14  O2A       31.4680    7.9140   63.3720 O.co2 200  HEM200      0.0000
     15  C1B       28.4880   13.0160   70.3570 C.ar  200  HEM200      0.0000
     16  C2B       28.0640   13.1450   71.6930 C.ar  200  HEM200      0.0000
     17  C3B       27.1180   14.1450   71.7810 C.ar  200  HEM200      0.0000
     18  C4B       27.0210   14.6220   70.4290 C.ar  200  HEM200      0.0000
     19  CMB       28.5930   12.1630   72.7670 C.3   200  HEM200      0.0000
     20  CAB       26.3790   14.6190   72.9050 C.3   200  HEM200      0.0000
     21  CBB       26.9770   15.4620   73.8290 C.3   200  HEM200      0.0000
     22  C1C       25.6730   15.8610   68.6700 C.2   200  HEM200      0.0000
     23  C2C       24.4660   16.6600   68.3520 C.2   200  HEM200      0.0000
     24  C3C       24.5340   16.7050   66.9910 C.2   200  HEM200      0.0000
     25  C4C       25.6540   15.9420   66.5210 C.2   200  HEM200      0.0000
     26  CMC       23.2350   17.0130   69.2420 C.3   200  HEM200      0.0000
     27  CAC       23.5480   17.2830   66.1850 C.3   200  HEM200      0.0000
     28  CBC       23.3060   18.7440   66.1600 C.3   200  HEM200      0.0000
     29  C1D       27.1270   15.0610   64.7760 C.ar  200  HEM200      0.0000
     30  C2D       27.7170   15.1840   63.4460 C.ar  200  HEM200      0.0000
     31  C3D       28.8760   14.4640   63.5240 C.ar  200  HEM200      0.0000
     32  C4D       29.0340   13.8950   64.7790 C.ar  200  HEM200      0.0000
     33  CMD       27.1320   16.0080   62.3200 C.3   200  HEM200      0.0000
     34  CAD       29.8950   14.1870   62.4950 C.3   200  HEM200      0.0000
     35  CBD       30.8100   15.3830   62.4140 C.3   200  HEM200      0.0000
     36  CGD       31.6590   15.3240   61.1890 C.2   200  HEM200      0.0000
     37  O1D       32.5040   14.4090   61.1270 O.co2 200  HEM200      0.0000
     38  O2D       31.4540   16.1490   60.2740 O.co2 200  HEM200      0.0000
     39  NA        29.3600   12.7170   67.4460 N.2   200  HEM200      0.0000
     40  NB        27.8220   13.9240   69.5480 N.ar  200  HEM200      0.0000
     41  NC        26.3610   15.4160   67.5430 N.2   200  HEM200      0.0000
     42  ND        27.9930   14.3230   65.6110 N.ar  200  HEM200      0.0000
     43 FE         27.9190   14.0650   67.5020 Fe    200  HEM200      0.0000
@<TRIPOS>BOND
     1    38    36   ar
     2    37    36   ar
     3    36    35    1
     4    33    30    1
     5    35    34    1
     6    34    31    1
     7    14    12   ar
     8    30    31   ar
     9    30    29   ar
    10    13    12   ar
    11    31    32   ar
    12    12    11    1
    13    29     4    2
    14    29    42   ar
    15    32     1    2
    16    32    42   ar
    17    11    10    1
    18     1     5    1
    19     4    25    1
    20    42    43    1
    21    10     6    1
    22    28    27    1
    23    27    24    1
    24     5     6    1
    25     5    39    2
    26    25    24    1
    27    25    41    2
    28     6     7    2
    29    24    23    2
    30    39    43    1
    31    39     8    1
    32    43    41    1
    33    43    40    1
    34    41    22    1
    35     7     8    1
    36     7     9    1
    37    23    22    1
    38    23    26    1
    39     8     2    2
    40    22     3    2
    41    40    15   ar
    42    40    18   ar
    43     2    15    1
    44     3    18    1
    45    15    16   ar
    46    18    17   ar
    47    16    17   ar
    48    16    19    1
    49    17    20    1
    50    20    21    1
