@<TRIPOS>MOLECULE
1cyj_HEM_A_1.pdb
 43 50 0 0 0
SMALL
GASTEIGER

@<TRIPOS>ATOM
      1  CHA      -25.3510   -9.7230   36.8820 C.2   200  HEM200      0.0000
      2  CHB      -27.0810  -11.2880   41.1170 C.2   200  HEM200      0.0000
      3  CHC      -29.3820   -7.1390   41.7020 C.2   200  HEM200      0.0000
      4  CHD      -28.4140   -6.0210   37.0750 C.2   200  HEM200      0.0000
      5  C1A      -25.6310  -10.5570   37.9770 C.2   200  HEM200      0.0000
      6  C2A      -25.0170  -11.8490   38.1590 C.2   200  HEM200      0.0000
      7  C3A      -25.3500  -12.2260   39.4440 C.2   200  HEM200      0.0000
      8  C4A      -26.3000  -11.1910   39.9720 C.2   200  HEM200      0.0000
      9  CMA      -24.8740  -13.5200   40.0970 C.3   200  HEM200      0.0000
     10  CAA      -24.1810  -12.5600   37.1190 C.3   200  HEM200      0.0000
     11  CBA      -24.9740  -12.8850   35.8480 C.3   200  HEM200      0.0000
     12  CGA      -24.1200  -13.4890   34.7330 C.2   200  HEM200      0.0000
     13  O1A      -22.9190  -13.1520   34.6210 O.co2 200  HEM200      0.0000
     14  O2A      -24.6690  -14.3050   33.9490 O.co2 200  HEM200      0.0000
     15  C1B      -27.9970  -10.3790   41.5530 C.ar  200  HEM200      0.0000
     16  C2B      -28.5600  -10.4220   42.8820 C.ar  200  HEM200      0.0000
     17  C3B      -29.1160   -9.2290   43.1450 C.ar  200  HEM200      0.0000
     18  C4B      -28.8660   -8.4440   41.9270 C.ar  200  HEM200      0.0000
     19  CMB      -28.5730  -11.6020   43.8420 C.3   200  HEM200      0.0000
     20  CAB      -29.7060   -8.8100   44.3820 C.3   200  HEM200      0.0000
     21  CBB      -28.8970   -8.6610   45.6180 C.3   200  HEM200      0.0000
     22  C1C      -29.2580   -6.4350   40.5020 C.2   200  HEM200      0.0000
     23  C2C      -30.1330   -5.3370   40.1140 C.2   200  HEM200      0.0000
     24  C3C      -29.9210   -5.1120   38.7540 C.2   200  HEM200      0.0000
     25  C4C      -28.9130   -6.0300   38.3450 C.2   200  HEM200      0.0000
     26  CMC      -31.1320   -4.5950   40.9950 C.3   200  HEM200      0.0000
     27  CAC      -30.5220   -4.1840   37.8740 C.3   200  HEM200      0.0000
     28  CBC      -30.2230   -2.7250   37.9440 C.3   200  HEM200      0.0000
     29  C1D      -27.4280   -6.9160   36.6470 C.ar  200  HEM200      0.0000
     30  C2D      -26.5620   -6.7400   35.4480 C.ar  200  HEM200      0.0000
     31  C3D      -25.6570   -7.7560   35.4930 C.ar  200  HEM200      0.0000
     32  C4D      -25.9630   -8.5600   36.6130 C.ar  200  HEM200      0.0000
     33  CMD      -26.6760   -5.6570   34.3190 C.3   200  HEM200      0.0000
     34  CAD      -24.4800   -7.9470   34.5450 C.3   200  HEM200      0.0000
     35  CBD      -23.5000   -6.8020   34.7620 C.3   200  HEM200      0.0000
     36  CGD      -22.2480   -6.9000   33.8930 C.2   200  HEM200      0.0000
     37  O1D      -21.7280   -5.8290   33.4660 O.co2 200  HEM200      0.0000
     38  O2D      -21.7700   -8.0350   33.6680 O.co2 200  HEM200      0.0000
     39  NA       -26.4780  -10.1990   39.0370 N.2   200  HEM200      0.0000
     40  NB       -28.1760   -9.1870   40.9580 N.ar  200  HEM200      0.0000
     41  NC       -28.5340   -6.8940   39.3990 N.2   200  HEM200      0.0000
     42  ND       -26.9780   -8.0420   37.3790 N.ar  200  HEM200      0.0000
     43 FE        -27.5400   -8.5870   39.1560 Fe    200  HEM200      0.0000
@<TRIPOS>BOND
     1    37    36   ar
     2    38    36   ar
     3    36    35    1
     4    14    12   ar
     5    33    30    1
     6    34    35    1
     7    34    31    1
     8    13    12   ar
     9    12    11    1
    10    30    31   ar
    11    30    29   ar
    12    31    32   ar
    13    11    10    1
    14    32     1    2
    15    32    42   ar
    16    29     4    2
    17    29    42   ar
    18     1     5    1
    19     4    25    1
    20    10     6    1
    21    42    43    1
    22    27    28    1
    23    27    24    1
    24     5     6    1
    25     5    39    2
    26     6     7    2
    27    25    24    1
    28    25    41    2
    29    24    23    2
    30    39    43    1
    31    39     8    1
    32    43    41    1
    33    43    40    1
    34    41    22    1
    35     7     8    1
    36     7     9    1
    37     8     2    2
    38    23    22    1
    39    23    26    1
    40    22     3    2
    41    40    15   ar
    42    40    18   ar
    43     2    15    1
    44    15    16   ar
    45     3    18    1
    46    18    17   ar
    47    16    17   ar
    48    16    19    1
    49    17    20    1
    50    20    21    1
