@<TRIPOS>MOLECULE
1cyo_HEM_A_1.pdb
 43 50 0 0 0
SMALL
GASTEIGER

@<TRIPOS>ATOM
      1 FE         33.3190   20.2140   34.3130 Fe    201  HEM201      0.0000
      2  CHA       32.3800   19.1230   37.3790 C.2   201  HEM201      0.0000
      3  CHB       33.7080   16.9600   33.2690 C.2   201  HEM201      0.0000
      4  CHC       34.4700   21.3380   31.3000 C.2   201  HEM201      0.0000
      5  CHD       32.7390   23.4480   35.2610 C.2   201  HEM201      0.0000
      6  NA        33.1000   18.4300   35.1680 N.ar  201  HEM201      0.0000
      7  C1A       32.7950   18.1590   36.4690 C.ar  201  HEM201      0.0000
      8  C2A       32.9050   16.7110   36.7310 C.ar  201  HEM201      0.0000
      9  C3A       33.2060   16.0810   35.5510 C.ar  201  HEM201      0.0000
     10  C4A       33.3150   17.1460   34.5800 C.ar  201  HEM201      0.0000
     11  CMA       33.3950   14.5850   35.3040 C.3   201  HEM201      0.0000
     12  CAA       32.7590   16.0540   38.0890 C.3   201  HEM201      0.0000
     13  CBA       33.9140   16.4160   39.0100 C.3   201  HEM201      0.0000
     14  CGA       35.2520   15.9400   38.4820 C.2   201  HEM201      0.0000
     15  O1A       35.3510   14.7670   38.0770 O.co2 201  HEM201      0.0000
     16  O2A       36.2250   16.7160   38.5050 O.co2 201  HEM201      0.0000
     17  NB        33.9220   19.3490   32.6470 N.2   201  HEM201      0.0000
     18  C1B       34.0060   17.9750   32.3630 C.2   201  HEM201      0.0000
     19  C2B       34.4980   17.7460   31.0140 C.2   201  HEM201      0.0000
     20  C3B       34.7740   18.9920   30.4860 C.2   201  HEM201      0.0000
     21  C4B       34.3830   19.9570   31.4880 C.2   201  HEM201      0.0000
     22  CMB       34.7610   16.3780   30.3840 C.3   201  HEM201      0.0000
     23  CAB       35.5140   19.3520   29.3370 C.2   201  HEM201      0.0000
     24  CBB       35.4270   18.8850   28.0450 C.2   201  HEM201      0.0000
     25  NC        33.5580   22.0000   33.4610 N.ar  201  HEM201      0.0000
     26  C1C       34.0910   22.2820   32.2090 C.ar  201  HEM201      0.0000
     27  C2C       34.1790   23.7360   31.9530 C.ar  201  HEM201      0.0000
     28  C3C       33.6860   24.3230   33.0840 C.ar  201  HEM201      0.0000
     29  C4C       33.2770   23.2460   33.9960 C.ar  201  HEM201      0.0000
     30  CMC       34.7610   24.3710   30.6650 C.3   201  HEM201      0.0000
     31  CAC       33.5670   25.6930   33.3570 C.3   201  HEM201      0.0000
     32  CBC       33.1190   26.5900   32.4000 C.3   201  HEM201      0.0000
     33  ND        32.7220   21.1180   35.9920 N.2   201  HEM201      0.0000
     34  C1D       32.4840   22.4810   36.2040 C.2   201  HEM201      0.0000
     35  C2D       31.9170   22.7180   37.5050 C.2   201  HEM201      0.0000
     36  C3D       31.7750   21.5060   38.0690 C.2   201  HEM201      0.0000
     37  C4D       32.3270   20.5070   37.1610 C.2   201  HEM201      0.0000
     38  CMD       31.5900   24.0590   38.1460 C.3   201  HEM201      0.0000
     39  CAD       31.0660   21.2020   39.3660 C.3   201  HEM201      0.0000
     40  CBD       32.0430   21.2300   40.5160 C.3   201  HEM201      0.0000
     41  CGD       31.4010   20.8100   41.8170 C.2   201  HEM201      0.0000
     42  O1D       32.0090   19.9800   42.5240 O.co2 201  HEM201      0.0000
     43  O2D       30.3020   21.3190   42.1420 O.co2 201  HEM201      0.0000
@<TRIPOS>BOND
     1    24    23    2
     2    23    20    1
     3    22    19    1
     4    20    19    2
     5    20    21    1
     6    30    27    1
     7    19    18    1
     8     4    21    2
     9     4    26    1
    10    21    17    1
    11    27    26   ar
    12    27    28   ar
    13    26    25   ar
    14    18    17    2
    15    18     3    1
    16    32    31    1
    17    17     1    1
    18    28    31    1
    19    28    29   ar
    20     3    10    2
    21    25    29   ar
    22    25     1    1
    23    29     5    1
    24     1     6    1
    25     1    33    1
    26    10     6   ar
    27    10     9   ar
    28     6     7   ar
    29     5    34    2
    30    11     9    1
    31     9     8   ar
    32    33    34    1
    33    33    37    2
    34    34    35    1
    35     7     8   ar
    36     7     2    2
    37     8    12    1
    38    37     2    1
    39    37    36    1
    40    35    36    2
    41    35    38    1
    42    36    39    1
    43    15    14   ar
    44    12    13    1
    45    14    16   ar
    46    14    13    1
    47    39    40    1
    48    40    41    1
    49    41    43   ar
    50    41    42   ar
