@<TRIPOS>MOLECULE
1cz7_ADP_A_1.pdb
 27 29 0 0 0
SMALL
GASTEIGER

@<TRIPOS>ATOM
      1  PB        66.0200   18.5350   84.4600 P.3   800  ADP800      0.5373
      2  O1B       67.2130   19.4170   84.5610 O.2   800  ADP800     -0.2221
      3  O2B       66.0440   17.2630   85.2270 O.3   800  ADP800     -0.1143
      4  O3B       64.7530   19.2840   84.5620 O.3   800  ADP800     -0.1143
      5  PA        65.9790   16.7710   81.8450 P.3   800  ADP800      0.2231
      6  O1A       66.7780   15.6740   82.4500 O.3   800  ADP800     -0.4370
      7  O2A       64.5710   16.5910   81.4150 O.2   800  ADP800     -0.5169
      8  O3A       66.0140   18.1110   82.9010 O.3   800  ADP800     -0.2261
      9  O5'       66.6750   16.9350   80.3550 O.3   800  ADP800     -0.3111
     10  C5'       66.6970   16.0420   79.1960 C.3   800  ADP800      0.1813
     11  C4'       67.9820   15.6090   78.3910 C.3   800  ADP800      0.1821
     12  O4'       68.5680   14.2840   78.7370 O.3   800  ADP800     -0.3135
     13  C3'       67.6860   15.4510   76.8910 C.3   800  ADP800      0.2184
     14  O3'       68.6560   16.1080   76.0680 O.3   800  ADP800     -0.2174
     15  C2'       67.5190   13.9520   76.6280 C.3   800  ADP800      0.2570
     16  O2'       68.2640   13.4810   75.4990 O.3   800  ADP800     -0.2130
     17  C1'       67.9330   13.2210   77.9160 C.3   800  ADP800      0.3186
     18  N9        66.9090   12.2070   78.4430 N.pl3 800  ADP800     -0.1439
     19  C8        66.1260   12.2580   79.5470 C.3   800  ADP800      0.3377
     20  N7        65.2540   11.2640   79.6570 N.2   800  ADP800     -0.2095
     21  C5        65.5560   10.5430   78.6030 C.2   800  ADP800      0.2526
     22  C6        64.9180    9.3650   78.2170 C.2   800  ADP800      0.4393
     23  N6        63.8640    8.9190   78.8830 N.pl3 800  ADP800      0.2180
     24  N1        65.3530    8.7550   77.0810 N.2   800  ADP800      0.0021
     25  C2        66.3670    9.2470   76.3400 C.3   800  ADP800      0.5254
     26  N3        66.9620   10.3940   76.7270 N.2   800  ADP800     -0.0055
     27  C4        66.5780   11.0720   77.8370 C.2   800  ADP800      0.3518
@<TRIPOS>BOND
     1    16    15    1
     2    14    13    1
     3    25    26    1
     4    25    24    1
     5    15    13    1
     6    15    17    1
     7    26    27    2
     8    13    11    1
     9    24    22    2
    10    27    18    1
    11    27    21    1
    12    17    18    1
    13    17    12    1
    14    22    21    1
    15    22    23    1
    16    11    12    1
    17    11    10    1
    18    18    19    1
    19    21    20    2
    20    10     9    1
    21    19    20    1
    22     9     5    1
    23     7     5    2
    24     5     6    1
    25     5     8    1
    26     8     1    1
    27     1     2    2
    28     1     4    1
    29     1     3    1
