@<TRIPOS>MOLECULE
1cz9_CIT_A_1.pdb
 13 12 0 0 0
SMALL
GASTEIGER

@<TRIPOS>ATOM
      1  C1        68.4180   48.3850   33.0230 C.2   399  CIT399      0.3680
      2  O1        68.8200   47.5710   32.3980 O.co2 399  CIT399     -0.2455
      3  O2        68.6370   49.5560   32.9780 O.co2 399  CIT399     -0.2455
      4  C2        67.4830   48.0690   34.2230 C.3   399  CIT399      0.1560
      5  C3        65.9350   48.1150   34.0490 C.3   399  CIT399      0.2402
      6  O7        65.4890   49.4220   33.5830 O.3   399  CIT399     -0.2129
      7  C4        65.5390   47.1450   32.9120 C.3   399  CIT399      0.1560
      8  C5        64.0420   46.9920   32.7920 C.2   399  CIT399      0.3680
      9  O3        63.6500   46.2810   31.7410 O.co2 399  CIT399     -0.2455
     10  O4        63.2220   47.3690   33.5850 O.co2 399  CIT399     -0.2455
     11  C6        65.2600   47.7760   35.3540 C.2   399  CIT399      0.3927
     12  O5        65.3250   46.5580   35.7260 O.co2 399  CIT399     -0.2429
     13  O6        64.7220   48.7180   36.0170 O.co2 399  CIT399     -0.2429
@<TRIPOS>BOND
     1     9     8   ar
     2     2     1   ar
     3     8     7    1
     4     8    10   ar
     5     7     5    1
     6     3     1   ar
     7     1     4    1
     8     6     5    1
     9     5     4    1
    10     5    11    1
    11    11    12   ar
    12    11    13   ar
