@<TRIPOS>MOLECULE
1cza_G6P_N_1.pdb
 16 16 0 0 0
SMALL
GASTEIGER

@<TRIPOS>ATOM
      1  C1        42.1910   38.9480   19.0620 C.3   919  G6P919      0.3024
      2  C2        43.5310   39.1730   18.3610 C.3   919  G6P919      0.2434
      3  C3        44.1790   40.3940   19.0500 C.3   919  G6P919      0.2199
      4  C4        43.2340   41.5640   18.9230 C.3   919  G6P919      0.2143
      5  C5        41.8460   41.2260   19.4970 C.3   919  G6P919      0.1808
      6  C6        40.8580   42.3270   19.2750 C.3   919  G6P919      0.1859
      7  O1        41.5660   37.8070   18.3030 O.3   919  G6P919     -0.1869
      8  O2        44.3790   38.0470   18.5350 O.3   919  G6P919     -0.2148
      9  O3        45.4410   40.6910   18.4650 O.3   919  G6P919     -0.2174
     10  O4        43.6810   42.7130   19.6210 O.3   919  G6P919     -0.2176
     11  O5        41.3360   40.0600   18.7890 O.3   919  G6P919     -0.3237
     12  O6        39.5970   42.0920   19.8700 O.3   919  G6P919     -0.2675
     13  P         39.3400   42.3090   21.4390 P.3   919  G6P919      0.5327
     14  O1P       37.9140   42.2510   21.7560 O.2   919  G6P919     -0.2224
     15  O2P       39.7380   43.6960   21.8570 O.3   919  G6P919     -0.1145
     16  O3P       40.1420   41.3670   22.2240 O.3   919  G6P919     -0.1145
@<TRIPOS>BOND
     1     7     1    1
     2     2     8    1
     3     2     3    1
     4     2     1    1
     5     9     3    1
     6    11     1    1
     7    11     5    1
     8     4     3    1
     9     4     5    1
    10     4    10    1
    11     6     5    1
    12     6    12    1
    13    12    13    1
    14    13    14    2
    15    13    15    1
    16    13    16    1
