@<TRIPOS>MOLECULE
1cza_GLC_N_1.pdb
 12 12 0 0 0
SMALL
GASTEIGER

@<TRIPOS>ATOM
      1  C1        43.0580   51.1140   19.1990 C.3   918  GLC918      0.3024
      2  C2        44.5510   51.2010   18.9260 C.3   918  GLC918      0.2434
      3  C3        44.8730   50.4980   17.5950 C.3   918  GLC918      0.2199
      4  C4        44.2950   49.0850   17.5930 C.3   918  GLC918      0.2144
      5  C5        42.8140   49.1090   17.9060 C.3   918  GLC918      0.1836
      6  C6        42.1910   47.7220   18.0270 C.3   918  GLC918      0.2142
      7  O1        42.2860   51.8230   18.3500 O.3   918  GLC918     -0.1869
      8  O2        44.9460   52.5950   18.8120 O.3   918  GLC918     -0.2148
      9  O3        46.2960   50.4170   17.4330 O.3   918  GLC918     -0.2174
     10  O4        44.4860   48.4120   16.3550 O.3   918  GLC918     -0.2176
     11  O5        42.5860   49.7340   19.2120 O.3   918  GLC918     -0.3236
     12  O6        42.8430   46.9040   19.0450 O.3   918  GLC918     -0.2176
@<TRIPOS>BOND
     1    10     4    1
     2     9     3    1
     3     4     3    1
     4     4     5    1
     5     3     2    1
     6     5     6    1
     7     5    11    1
     8     6    12    1
     9     7     1    1
    10     8     2    1
    11     2     1    1
    12     1    11    1
