@<TRIPOS>MOLECULE
1cza_ADP_N_1.pdb
 27 29 0 0 0
SMALL
GASTEIGER

@<TRIPOS>ATOM
      1  PB        16.3930   43.1840   11.6930 P.3   922  ADP922      0.5373
      2  O1B       17.5260   43.1770   12.6620 O.3   922  ADP922     -0.1143
      3  O2B       16.3750   41.8170   11.0590 O.2   922  ADP922     -0.2221
      4  O3B       15.1340   43.4120   12.4150 O.3   922  ADP922     -0.1143
      5  PA        17.7200   45.3900   10.5520 P.3   922  ADP922      0.2231
      6  O1A       19.1330   44.9020   10.6620 O.3   922  ADP922     -0.4370
      7  O2A       17.6220   46.2180    9.3720 O.2   922  ADP922     -0.5169
      8  O3A       16.6200   44.2320   10.5390 O.3   922  ADP922     -0.2261
      9  O5'       17.3800   46.0350   11.9770 O.3   922  ADP922     -0.3111
     10  C5'       16.2970   47.0170   12.0440 C.3   922  ADP922      0.1813
     11  C4'       16.3900   47.8120   13.3460 C.3   922  ADP922      0.1821
     12  O4'       17.4380   48.8010   13.2150 O.3   922  ADP922     -0.3135
     13  C3'       15.1270   48.5770   13.7470 C.3   922  ADP922      0.2184
     14  O3'       15.0920   48.6030   15.2000 O.3   922  ADP922     -0.2174
     15  C2'       15.4120   49.9710   13.1080 C.3   922  ADP922      0.2570
     16  O2'       14.7350   50.9510   13.9170 O.3   922  ADP922     -0.2130
     17  C1'       16.9420   50.0960   13.3990 C.3   922  ADP922      0.3186
     18  N9        17.6570   50.9330   12.4640 N.pl3 922  ADP922     -0.1439
     19  C8        17.5630   51.0040   11.1300 C.3   922  ADP922      0.3377
     20  N7        18.3710   51.8300   10.5530 N.2   922  ADP922     -0.2095
     21  C5        19.0220   52.3740   11.5570 C.2   922  ADP922      0.2526
     22  C6        20.0270   53.3140   11.5490 C.2   922  ADP922      0.4393
     23  N6        20.4860   53.8920   10.4400 N.pl3 922  ADP922      0.2180
     24  N1        20.5490   53.6940   12.7350 N.2   922  ADP922      0.0021
     25  C2        20.0870   53.1270   13.8940 C.3   922  ADP922      0.5254
     26  N3        19.1480   52.2010   13.9720 N.2   922  ADP922     -0.0055
     27  C4        18.6450   51.8690   12.7650 C.2   922  ADP922      0.3518
@<TRIPOS>BOND
     1     7     5    2
     2    23    22    1
     3     8     5    1
     4     8     1    1
     5     5     6    1
     6     5     9    1
     7    20    19    1
     8    20    21    2
     9     3     1    2
    10    19    18    1
    11    22    21    1
    12    22    24    2
    13    21    27    1
    14     1     4    1
    15     1     2    1
    16     9    10    1
    17    10    11    1
    18    18    27    1
    19    18    17    1
    20    24    25    1
    21    27    26    2
    22    15    17    1
    23    15    13    1
    24    15    16    1
    25    12    11    1
    26    12    17    1
    27    11    13    1
    28    13    14    1
    29    25    26    1
