@<TRIPOS>MOLECULE
1czb_EPE_A_1.pdb
 15 15 0 0 0
SMALL
GASTEIGER

@<TRIPOS>ATOM
      1  N1        61.5860   47.2400   51.5640 N.3   300  EPE300     -0.2689
      2  C2        62.9680   46.8410   51.8820 C.3   300  EPE300      0.0897
      3  C3        63.8790   47.2060   50.7190 C.3   300  EPE300      0.0897
      4  N4        63.4830   46.4720   49.4970 N.3   300  EPE300     -0.2681
      5  C5        62.0790   46.8450   49.1860 C.3   300  EPE300      0.0897
      6  C6        61.1440   46.5020   50.3380 C.3   300  EPE300      0.0897
      7  C7        64.2950   46.8570   48.3070 C.3   300  EPE300      0.1081
      8  C8        65.7900   46.6570   48.4980 C.3   300  EPE300      0.1993
      9  O8        66.1650   45.3450   48.8860 O.3   300  EPE300     -0.2189
     10  C9        60.6590   46.8950   52.6700 C.3   300  EPE300      0.0939
     11  C10       60.8010   47.8330   53.8440 C.3   300  EPE300      0.1225
     12  S         59.5170   47.5840   55.0150 S.3   300  EPE300     -0.1946
     13  O1S       59.6810   48.5990   56.0090 O.3   300  EPE300     -0.3074
     14  O2S       59.6700   46.2120   55.5470 O.3   300  EPE300     -0.3074
     15  O3S       58.2740   47.7380   54.2790 O.3   300  EPE300     -0.3074
@<TRIPOS>BOND
     1     7     8    1
     2     7     4    1
     3     8     9    1
     4     5     4    1
     5     5     6    1
     6     4     3    1
     7     6     1    1
     8     3     2    1
     9     1     2    1
    10     1    10    1
    11    10    11    1
    12    11    12    1
    13    15    12    1
    14    12    14    1
    15    12    13    1
