@<TRIPOS>MOLECULE
1czc_PLP_A_1.pdb
 15 15 0 0 0
SMALL
GASTEIGER

@<TRIPOS>ATOM
      1  N1        26.7930    4.3800  -14.6020 N.ar  413  PLP413     -0.2452
      2  C2        26.2370    5.1880  -15.5070 C.ar  413  PLP413      0.0978
      3  C2A       26.8960    5.3460  -16.8200 C.3   413  PLP413      0.0555
      4  C3        25.1090    5.8920  -15.1960 C.ar  413  PLP413      0.2049
      5  O3        24.5370    6.6820  -16.1600 O.3   413  PLP413     -0.2857
      6  C4        24.5400    5.7650  -13.9150 C.ar  413  PLP413      0.0182
      7  C4A       23.3320    6.3880  -13.5770 C.3   413  PLP413      0.0342
      8  C5        25.1610    4.9380  -12.9950 C.ar  413  PLP413      0.0261
      9  C6        26.2670    4.2450  -13.3550 C.ar  413  PLP413      0.0965
     10  C5A       24.7040    4.8600  -11.5720 C.3   413  PLP413      0.1815
     11  O4P       23.6630    3.9770  -11.3640 O.3   413  PLP413     -0.2653
     12  P         22.9140    4.0910   -9.9650 P.3   413  PLP413      0.5329
     13  O1P       21.7590    3.1440  -10.0150 O.2   413  PLP413     -0.2224
     14  O2P       22.3740    5.5610   -9.9140 O.3   413  PLP413     -0.1145
     15  O3P       23.9210    3.9260   -8.8990 O.3   413  PLP413     -0.1145
@<TRIPOS>BOND
     1     3     2    1
     2     5     4    1
     3     2     4   ar
     4     2     1   ar
     5     4     6   ar
     6     1     9   ar
     7     6     7    1
     8     6     8   ar
     9     9     8   ar
    10     8    10    1
    11    10    11    1
    12    11    12    1
    13    13    12    2
    14    12    14    1
    15    12    15    1
