@<TRIPOS>MOLECULE
1cze_PLP_A_1.pdb
 15 15 0 0 0
SMALL
GASTEIGER

@<TRIPOS>ATOM
      1  N1        26.7650    4.4620  -14.6240 N.ar  413  PLP413     -0.2452
      2  C2        26.2230    5.2780  -15.5420 C.ar  413  PLP413      0.0978
      3  C2A       26.8520    5.3770  -16.8780 C.3   413  PLP413      0.0555
      4  C3        25.1170    6.0050  -15.2380 C.ar  413  PLP413      0.2049
      5  O3        24.6030    6.8250  -16.1620 O.3   413  PLP413     -0.2857
      6  C4        24.5450    5.8960  -13.9750 C.ar  413  PLP413      0.0182
      7  C4A       23.3810    6.5540  -13.6390 C.3   413  PLP413      0.0342
      8  C5        25.1250    5.0650  -13.0480 C.ar  413  PLP413      0.0261
      9  C6        26.2190    4.3420  -13.3750 C.ar  413  PLP413      0.0965
     10  C5A       24.6010    5.0020  -11.6460 C.3   413  PLP413      0.1815
     11  O4P       23.7310    3.9650  -11.3480 O.3   413  PLP413     -0.2653
     12  P         22.9430    4.2170  -10.0240 P.3   413  PLP413      0.5329
     13  O1P       21.8140    3.2480  -10.0320 O.3   413  PLP413     -0.1145
     14  O2P       22.3820    5.6890  -10.0910 O.2   413  PLP413     -0.2224
     15  O3P       23.9300    4.1400   -8.9350 O.3   413  PLP413     -0.1145
@<TRIPOS>BOND
     1     3     2    1
     2     5     4    1
     3     2     4   ar
     4     2     1   ar
     5     4     6   ar
     6     1     9   ar
     7     6     7    1
     8     6     8   ar
     9     9     8   ar
    10     8    10    1
    11    10    11    1
    12    11    12    1
    13    14    12    2
    14    13    12    1
    15    12    15    1
