@<TRIPOS>MOLECULE
1czh_FMN_A_1.pdb
 31 33 0 0 0
SMALL
GASTEIGER

@<TRIPOS>ATOM
      1  N1        61.2710   33.0290  -16.9530 N.2   170  FMN170     -0.2890
      2  C2        61.8420   34.2070  -17.3120 C.1   170  FMN170      0.3669
      3  O2        62.0200   35.0830  -16.4830 O.2   170  FMN170     -0.1744
      4  N3        62.2100   34.4180  -18.6700 N.2   170  FMN170     -0.2300
      5  C4        61.9450   33.5450  -19.7110 C.1   170  FMN170      0.2513
      6  O4        62.2780   33.8230  -20.8650 O.2   170  FMN170     -0.2057
      7  C4A       61.2670   32.2740  -19.3420 C.2   170  FMN170      0.2700
      8  N5        60.9630   31.3570  -20.2680 N.2   170  FMN170     -0.3878
      9  C5A       60.4620   30.1560  -19.8350 C.2   170  FMN170      0.1320
     10  C6        60.3550   29.0720  -20.7430 C.2   170  FMN170      0.0250
     11  C7        59.9790   27.7950  -20.3340 C.2   170  FMN170     -0.0238
     12  C7M       59.8450   26.6750  -21.3380 C.3   170  FMN170      0.0308
     13  C8        59.7240   27.5470  -18.9350 C.2   170  FMN170     -0.0280
     14  C8M       59.3480   26.1900  -18.4370 C.3   170  FMN170      0.0304
     15  C9        59.8260   28.5900  -18.0340 C.2   170  FMN170     -0.0041
     16  C9A       60.1780   29.9000  -18.4590 C.3   170  FMN170      0.1497
     17  N10       60.3900   30.9530  -17.5460 N.pl3 170  FMN170     -0.2691
     18  C10       60.9880   32.1220  -17.9000 C.2   170  FMN170      0.2416
     19  C1'       59.9860   30.7420  -16.1610 C.3   170  FMN170      0.1294
     20  C2'       58.4960   31.0310  -15.9490 C.3   170  FMN170      0.2044
     21  O2'       58.0800   32.3890  -16.1240 O.3   170  FMN170     -0.2185
     22  C3'       58.0990   30.5600  -14.5500 C.3   170  FMN170      0.2164
     23  O3'       58.1880   29.1280  -14.4860 O.3   170  FMN170     -0.2175
     24  C4'       56.7450   31.0360  -13.9900 C.3   170  FMN170      0.2147
     25  O4'       56.5640   30.5130  -12.6700 O.3   170  FMN170     -0.2176
     26  C5'       55.5840   30.5900  -14.8840 C.3   170  FMN170      0.1892
     27  O5'       54.4110   31.2440  -14.4210 O.3   170  FMN170     -0.2674
     28  P         52.9340   30.7650  -14.7110 P.3   170  FMN170      0.5327
     29  O1P       52.7130   29.5030  -14.0330 O.3   170  FMN170     -0.1145
     30  O2P       52.0260   31.8730  -14.3230 O.3   170  FMN170     -0.1145
     31  O3P       52.7490   30.4760  -16.2490 O.2   170  FMN170     -0.2224
@<TRIPOS>BOND
     1    12    11    1
     2     6     5    2
     3    10    11    2
     4    10     9    1
     5    11    13    1
     6     8     9    2
     7     8     7    2
     8     9    16    1
     9     5     7    1
    10     5     4    2
    11     7    18    1
    12    13    14    1
    13    13    15    2
    14     4     2    2
    15    16    15    1
    16    16    17    1
    17    18    17    1
    18    18     1    2
    19    17    19    1
    20     2     1    2
    21     2     3    2
    22    31    28    2
    23    19    20    1
    24    21    20    1
    25    20    22    1
    26    26    27    1
    27    26    24    1
    28    28    27    1
    29    28    30    1
    30    28    29    1
    31    22    23    1
    32    22    24    1
    33    24    25    1
