@<TRIPOS>MOLECULE
1czi_III_P_1.pdb
 43 45 0 0 0
SMALL
GASTEIGER

@<TRIPOS>ATOM
      1  N         89.9630    9.4890   32.9560 N.3     4  PRO4       -0.2102
      2  CA        90.5080   10.8350   33.1760 C.3     4  PRO4        0.1504
      3  C         89.5080   11.9090   32.7460 C.2     4  PRO4        0.2576
      4  O         88.8300   11.7790   31.7260 O.2     4  PRO4       -0.2718
      5  CB        91.7320   10.8680   32.2650 C.3     4  PRO4        0.0282
      6  CG        91.9610    9.4740   31.7950 C.3     4  PRO4        0.0208
      7  CD        91.0660    8.5690   32.5970 C.3     4  PRO4        0.0893
      8  N         89.4110   12.9560   33.4750 N.am    3  PHE3       -0.1963
      9  CA        88.7690   14.2870   33.5710 C.3     3  PHE3        0.1771
     10  CB        88.5350   14.6530   35.0200 C.3     3  PHE3        0.0574
     11  CG        87.5400   13.8450   35.8410 C.ar    3  PHE3       -0.0199
     12  CD1       87.9210   12.7550   36.6280 C.ar    3  PHE3       -0.0038
     13  CD2       86.1750   14.1420   35.8890 C.ar    3  PHE3       -0.0038
     14  CE1       86.9910   12.0290   37.3790 C.ar    3  PHE3        0.0055
     15  CE2       85.2650   13.4150   36.6450 C.ar    3  PHE3        0.0055
     16  CZ        85.6250   12.3180   37.4370 C.ar    3  PHE3        0.0300
     17  I         84.7210   11.6110   38.1650 I       3  PHE3       -0.0425
     18  C         89.6650   15.2900   32.8530 C.2     3  PHE3        0.2620
     19  O         90.8930   15.1610   32.9230 O.2     3  PHE3       -0.2715
     20  N         89.1250   16.2440   32.1200 N.am    2  CYS2       -0.1954
     21  CA        89.8710   17.2820   31.3640 C.3     2  CYS2        0.1834
     22  CB        89.6080   17.0890   29.8760 C.3     2  CYS2        0.0886
     23  SG        91.0580   16.1580   29.3360 S.3     2  CYS2       -0.1370
     24  CS        91.3430   16.4170   27.5710 C.3     2  CYS2        0.0692
     25  C         89.2580   18.6560   31.7010 C.2     2  CYS2        0.2621
     26  O         88.4810   19.1810   30.9030 O.2     2  CYS2       -0.2715
     27  N         89.5360   19.2720   32.8130 N.am    1  NOR1       -0.2025
     28  CA        89.1020   20.5240   33.3580 C.3     1  NOR1        0.1367
     29  CB        88.9480   20.5240   34.8760 C.3     1  NOR1        0.0249
     30  CG        87.7940   19.7240   35.4230 C.3     1  NOR1        0.0018
     31  CD1       88.2470   18.4040   36.0250 C.3     1  NOR1        0.0001
     32  CD2       86.5690   19.6530   34.5210 C.3     1  NOR1        0.0001
     33  CE1       87.0970   17.6690   36.7380 C.3     1  NOR1        0.0000
     34  CE2       85.5170   19.2460   35.5810 C.3     1  NOR1        0.0000
     35  CZ        85.7650   17.7760   35.9880 C.3     1  NOR1        0.0000
     36  CH        89.8490   21.6430   32.9350 C.3     1  NOR1        0.2692
     37  OH        91.1430   21.6610   33.4870 O.3     1  NOR1       -0.2092
     38  C         89.9050   21.9620   31.4510 C.2     1  NOR1        0.3494
     39  O1        88.8890   22.0290   30.8040 O.2     1  NOR1       -0.2472
     40  O2        91.1320   22.2460   30.8800 O.3     1  NOR1       -0.4505
     41  CM        91.1270   22.0150   29.4430 C.3     1  NOR1        0.1692
     42  CM1       92.5820   22.1820   28.9210 C.3     1  NOR1        0.0473
     43  CM2       90.5880   20.6460   29.0340 C.3     1  NOR1        0.0473
@<TRIPOS>BOND
     1    24    23    1
     2    42    41    1
     3    43    41    1
     4    23    22    1
     5    41    40    1
     6    22    21    1
     7    39    38    2
     8    40    38    1
     9    26    25    2
    10    21    25    1
    11    21    20    1
    12    38    36    1
    13    25    27   am
    14     4     3    2
    15     6     5    1
    16     6     7    1
    17    20    18   am
    18     5     2    1
    19     7     1    1
    20     3     2    1
    21     3     8   am
    22    27    28    1
    23    18    19    2
    24    18     9    1
    25    36    28    1
    26    36    37    1
    27     1     2    1
    28    28    29    1
    29     8     9    1
    30     9    10    1
    31    32    30    1
    32    32    34    1
    33    29    30    1
    34    10    11    1
    35    30    31    1
    36    34    35    1
    37    11    13   ar
    38    11    12   ar
    39    13    15   ar
    40    35    33    1
    41    31    33    1
    42    12    14   ar
    43    15    16   ar
    44    14    16   ar
    45    16    17    1
