@<TRIPOS>MOLECULE
1czj_HEM_A_1.pdb
 43 50 0 0 0
SMALL
GASTEIGER

@<TRIPOS>ATOM
      1  CHA        8.3700   28.0530    6.6140 C.2   119  HEM119      0.0000
      2  CHB       11.2390   27.3200    2.7720 C.2   119  HEM119      0.0000
      3  CHC       12.4430   31.9870    2.7950 C.2   119  HEM119      0.0000
      4  CHD       10.4540   32.3040    7.1870 C.2   119  HEM119      0.0000
      5  C1A        8.9920   27.4620    5.5390 C.ar  119  HEM119      0.0000
      6  C2A        8.8340   26.0610    5.1470 C.ar  119  HEM119      0.0000
      7  C3A        9.6770   25.9020    4.0910 C.ar  119  HEM119      0.0000
      8  C4A       10.3300   27.1320    3.8200 C.ar  119  HEM119      0.0000
      9  CMA        9.9100   24.6270    3.3110 C.3   119  HEM119      0.0000
     10  CAA        8.0540   24.9370    5.8460 C.3   119  HEM119      0.0000
     11  CBA        9.0330   24.2240    6.7770 C.3   119  HEM119      0.0000
     12  CGA        8.4430   22.9970    7.4460 C.2   119  HEM119      0.0000
     13  O1A        7.8450   23.1490    8.5280 O.co2 119  HEM119      0.0000
     14  O2A        8.6080   21.8740    6.9050 O.co2 119  HEM119      0.0000
     15  C1B       11.8340   28.5280    2.4250 C.2   119  HEM119      0.0000
     16  C2B       12.6370   28.7620    1.2420 C.2   119  HEM119      0.0000
     17  C3B       12.8770   30.0930    1.1910 C.2   119  HEM119      0.0000
     18  C4B       12.2720   30.6700    2.3770 C.2   119  HEM119      0.0000
     19  CMB       13.1530   27.7340    0.2520 C.3   119  HEM119      0.0000
     20  CAB       13.6080   30.9210    0.1260 C.3   119  HEM119      0.0000
     21  CBB       12.9060   31.0560   -1.2270 C.3   119  HEM119      0.0000
     22  C1C       11.9560   32.5060    3.9960 C.ar  119  HEM119      0.0000
     23  C2C       12.3310   33.7830    4.5210 C.ar  119  HEM119      0.0000
     24  C3C       11.8290   33.8630    5.7730 C.ar  119  HEM119      0.0000
     25  C4C       11.1160   32.6230    6.0070 C.ar  119  HEM119      0.0000
     26  CMC       13.1950   34.8400    3.8520 C.3   119  HEM119      0.0000
     27  CAC       12.0050   35.0110    6.7730 C.3   119  HEM119      0.0000
     28  CBC       11.3310   36.3470    6.4510 C.3   119  HEM119      0.0000
     29  C1D        9.6940   31.1680    7.3980 C.2   119  HEM119      0.0000
     30  C2D        8.8050   30.9990    8.5170 C.2   119  HEM119      0.0000
     31  C3D        8.1610   29.8240    8.3080 C.2   119  HEM119      0.0000
     32  C4D        8.6440   29.2880    7.0630 C.2   119  HEM119      0.0000
     33  CMD        8.6380   31.9150    9.7200 C.3   119  HEM119      0.0000
     34  CAD        7.2240   29.1820    9.3080 C.3   119  HEM119      0.0000
     35  CBD        8.0610   28.3520   10.2790 C.3   119  HEM119      0.0000
     36  CGD        7.2310   27.6480   11.3420 C.2   119  HEM119      0.0000
     37  O1D        7.7300   27.5340   12.4810 O.co2 119  HEM119      0.0000
     38  O2D        6.0940   27.2060   11.0520 O.co2 119  HEM119      0.0000
     39  NA         9.9230   28.1040    4.7270 N.ar  119  HEM119      0.0000
     40  NB        11.6120   29.7040    3.1270 N.2   119  HEM119      0.0000
     41  NC        11.2150   31.7760    4.9160 N.ar  119  HEM119      0.0000
     42  ND         9.5740   30.1180    6.4960 N.2   119  HEM119      0.0000
     43 FE         10.5460   29.9380    4.8040 Fe    119  HEM119      0.0000
@<TRIPOS>BOND
     1    21    20    1
     2    20    17    1
     3    19    16    1
     4    17    16    2
     5    17    18    1
     6    16    15    1
     7    18     3    2
     8    18    40    1
     9    15     2    1
    10    15    40    2
    11     2     8    2
    12     3    22    1
    13    40    43    1
    14     9     7    1
    15     8     7   ar
    16     8    39   ar
    17    26    23    1
    18    22    23   ar
    19    22    41   ar
    20     7     6   ar
    21    23    24   ar
    22    39    43    1
    23    39     5   ar
    24    43    41    1
    25    43    42    1
    26    41    25   ar
    27     6     5   ar
    28     6    10    1
    29     5     1    2
    30    24    25   ar
    31    24    27    1
    32    10    11    1
    33    25     4    1
    34    28    27    1
    35    42    32    2
    36    42    29    1
    37     1    32    1
    38    11    12    1
    39    14    12   ar
    40    32    31    1
    41     4    29    2
    42    29    30    1
    43    12    13   ar
    44    31    30    2
    45    31    34    1
    46    30    33    1
    47    34    35    1
    48    35    36    1
    49    38    36   ar
    50    36    37   ar
