@<TRIPOS>MOLECULE
1czk_FMN_A_1.pdb
 31 33 0 0 0
SMALL
GASTEIGER

@<TRIPOS>ATOM
      1  N1         1.3290   44.5480   53.4950 N.2   170  FMN170     -0.2890
      2  C2         0.4150   45.3550   54.1150 C.1   170  FMN170      0.3669
      3  O2        -0.6930   44.9540   54.3960 O.2   170  FMN170     -0.1744
      4  N3         0.7370   46.6630   54.4400 N.2   170  FMN170     -0.2300
      5  C4         1.9340   47.2600   54.1570 C.1   170  FMN170      0.2513
      6  O4         2.1430   48.4030   54.4840 O.2   170  FMN170     -0.2057
      7  C4A        2.9270   46.4200   53.4630 C.2   170  FMN170      0.2700
      8  N5         4.1470   46.8700   53.2680 N.2   170  FMN170     -0.3878
      9  C5A        5.0550   46.0220   52.6670 C.2   170  FMN170      0.1320
     10  C6         6.3610   46.4760   52.4000 C.2   170  FMN170      0.0250
     11  C7         7.3580   45.6630   51.8930 C.2   170  FMN170     -0.0238
     12  C7M        8.7560   46.2420   51.6180 C.3   170  FMN170      0.0308
     13  C8         7.0560   44.2850   51.6160 C.2   170  FMN170     -0.0280
     14  C8M        8.1250   43.3440   51.1120 C.3   170  FMN170      0.0304
     15  C9         5.7720   43.8020   51.8270 C.2   170  FMN170     -0.0041
     16  C9A        4.7570   44.6550   52.3610 C.3   170  FMN170      0.1497
     17  N10        3.4550   44.2300   52.5950 N.pl3 170  FMN170     -0.2691
     18  C10        2.5020   45.0590   53.1670 C.2   170  FMN170      0.2416
     19  C1'        3.0950   42.8500   52.1970 C.3   170  FMN170      0.1294
     20  C2'        2.7490   42.7990   50.7060 C.3   170  FMN170      0.2044
     21  O2'        1.6070   43.5830   50.3410 O.3   170  FMN170     -0.2185
     22  C3'        2.5330   41.3520   50.2790 C.3   170  FMN170      0.2164
     23  O3'        3.7740   40.6410   50.3550 O.3   170  FMN170     -0.2175
     24  C4'        1.8520   41.0430   48.9450 C.3   170  FMN170      0.2147
     25  O4'        1.7290   39.6230   48.8020 O.3   170  FMN170     -0.2176
     26  C5'        2.6230   41.6500   47.7770 C.3   170  FMN170      0.1892
     27  O5'        1.8830   41.4200   46.5690 O.3   170  FMN170     -0.2674
     28  P          2.5640   41.6960   45.1610 P.3   170  FMN170      0.5327
     29  O1P        3.3180   40.4910   44.8490 O.3   170  FMN170     -0.1145
     30  O2P        3.1420   43.0430   44.9880 O.3   170  FMN170     -0.1145
     31  O3P        1.2870   41.6450   44.2900 O.2   170  FMN170     -0.2224
@<TRIPOS>BOND
     1    31    28    2
     2    29    28    1
     3    30    28    1
     4    28    27    1
     5    27    26    1
     6    26    24    1
     7    25    24    1
     8    24    22    1
     9    22    23    1
    10    22    20    1
    11    21    20    1
    12    20    19    1
    13    14    13    1
    14    13    15    2
    15    13    11    1
    16    12    11    1
    17    15    16    1
    18    11    10    2
    19    19    17    1
    20    16    17    1
    21    16     9    1
    22    10     9    1
    23    17    18    1
    24     9     8    2
    25    18     7    1
    26    18     1    2
    27     8     7    2
    28     7     5    1
    29     1     2    2
    30     2     3    2
    31     2     4    2
    32     5     4    2
    33     5     6    2
