@<TRIPOS>MOLECULE
1czl_FMN_A_1.pdb
 31 33 0 0 0
SMALL
GASTEIGER

@<TRIPOS>ATOM
      1  N1         1.3480   44.0790   53.3570 N.2   170  FMN170     -0.2890
      2  C2         0.3900   44.9120   53.9600 C.1   170  FMN170      0.3669
      3  O2        -0.7330   44.5060   54.2740 O.2   170  FMN170     -0.1744
      4  N3         0.7060   46.2670   54.2440 N.2   170  FMN170     -0.2300
      5  C4         1.9520   46.8270   53.9990 C.1   170  FMN170      0.2513
      6  O4         2.1830   48.0010   54.2800 O.2   170  FMN170     -0.2057
      7  C4A        2.9690   45.9180   53.3680 C.2   170  FMN170      0.2700
      8  N5         4.1900   46.3810   53.1130 N.2   170  FMN170     -0.3878
      9  C5A        5.1420   45.5500   52.5450 C.2   170  FMN170      0.1320
     10  C6         6.4660   46.0410   52.3070 C.2   170  FMN170      0.0250
     11  C7         7.4670   45.2230   51.7930 C.2   170  FMN170     -0.0238
     12  C7M        8.8700   45.7660   51.5510 C.3   170  FMN170      0.0308
     13  C8         7.1410   43.8530   51.4940 C.2   170  FMN170     -0.0280
     14  C8M        8.1870   42.9080   50.9720 C.3   170  FMN170      0.0304
     15  C9         5.8520   43.3690   51.6930 C.2   170  FMN170     -0.0041
     16  C9A        4.8310   44.1980   52.2170 C.3   170  FMN170      0.1497
     17  N10        3.5000   43.7630   52.4710 N.pl3 170  FMN170     -0.2691
     18  C10        2.5540   44.5570   53.0860 C.2   170  FMN170      0.2416
     19  C1'        3.1510   42.3900   52.1070 C.3   170  FMN170      0.1294
     20  C2'        2.8380   42.3020   50.6160 C.3   170  FMN170      0.2044
     21  O2'        1.7130   43.0790   50.1830 O.3   170  FMN170     -0.2185
     22  C3'        2.6370   40.8380   50.2230 C.3   170  FMN170      0.2164
     23  O3'        3.8750   40.1290   50.3650 O.3   170  FMN170     -0.2175
     24  C4'        2.0090   40.5350   48.8430 C.3   170  FMN170      0.2147
     25  O4'        1.8540   39.1220   48.6930 O.3   170  FMN170     -0.2176
     26  C5'        2.8180   41.1700   47.7060 C.3   170  FMN170      0.1892
     27  O5'        2.1080   41.0020   46.4750 O.3   170  FMN170     -0.2674
     28  P          2.7110   41.1480   45.0060 P.3   170  FMN170      0.5327
     29  O1P        3.4530   39.9230   44.7010 O.3   170  FMN170     -0.1145
     30  O2P        3.3050   42.4780   44.7800 O.3   170  FMN170     -0.1145
     31  O3P        1.4440   41.0990   44.1180 O.2   170  FMN170     -0.2224
@<TRIPOS>BOND
     1    31    28    2
     2    29    28    1
     3    30    28    1
     4    28    27    1
     5    27    26    1
     6    26    24    1
     7    25    24    1
     8    24    22    1
     9    21    20    1
    10    22    23    1
    11    22    20    1
    12    20    19    1
    13    14    13    1
    14    13    15    2
    15    13    11    1
    16    12    11    1
    17    15    16    1
    18    11    10    2
    19    19    17    1
    20    16    17    1
    21    16     9    1
    22    10     9    1
    23    17    18    1
    24     9     8    2
    25    18     1    2
    26    18     7    1
    27     8     7    2
    28     1     2    2
    29     7     5    1
    30     2     4    2
    31     2     3    2
    32     5     4    2
    33     5     6    2
