@<TRIPOS>MOLECULE
1czm_AAS_A_1.pdb
 11 11 0 0 0
SMALL
GASTEIGER

@<TRIPOS>ATOM
      1  C1        34.7490   16.5020  -17.6030 C.ar  262  AAS262      0.1251
      2  C2        34.1250   15.2700  -17.7240 C.ar  262  AAS262      0.0214
      3  C3        33.9840   14.7110  -18.9520 C.ar  262  AAS262      0.0194
      4  C4        34.4210   15.3560  -20.0750 C.ar  262  AAS262      0.0892
      5  C5        35.0170   16.6110  -19.9620 C.ar  262  AAS262      0.0194
      6  C6        35.1910   17.2020  -18.7000 C.ar  262  AAS262      0.0214
      7  S1        34.8300   17.1140  -15.9920 S.O2  262  AAS262      0.0935
      8  O1        34.6620   15.8540  -15.3480 O.2   262  AAS262     -0.1503
      9  O2        34.0500   18.3010  -16.0850 O.2   262  AAS262     -0.1503
     10  N1        36.3560   17.5130  -15.8870 N.3   262  AAS262      0.0392
     11  N2        33.8200   15.0010  -21.2530 N.pl3 262  AAS262     -0.1281
@<TRIPOS>BOND
     1    11     4    1
     2     4     5   ar
     3     4     3   ar
     4     5     6   ar
     5     3     2   ar
     6     6     1   ar
     7     2     1   ar
     8     1     7    1
     9     9     7    2
    10     7    10    1
    11     7     8    2
