@<TRIPOS>MOLECULE
1czn_FMN_A_1.pdb
 31 33 0 0 0
SMALL
GASTEIGER

@<TRIPOS>ATOM
      1  N1        14.4700   21.9090   41.8210 N.2   170  FMN170     -0.2890
      2  C2        15.3900   21.8800   42.8290 C.1   170  FMN170      0.3669
      3  O2        16.5890   22.0270   42.5780 O.2   170  FMN170     -0.1744
      4  N3        14.9960   21.6510   44.1500 N.2   170  FMN170     -0.2300
      5  C4        13.6890   21.3270   44.5370 C.1   170  FMN170      0.2513
      6  O4        13.4300   21.0580   45.7000 O.2   170  FMN170     -0.2057
      7  C4A       12.6870   21.3300   43.4580 C.2   170  FMN170      0.2700
      8  N5        11.4160   21.1480   43.7670 N.2   170  FMN170     -0.3878
      9  C5A       10.5120   21.2920   42.7350 C.2   170  FMN170      0.1320
     10  C6         9.1100   21.2490   43.0640 C.2   170  FMN170      0.0250
     11  C7         8.1640   21.4600   42.0690 C.2   170  FMN170     -0.0238
     12  C7M        6.7080   21.5060   42.4510 C.3   170  FMN170      0.0308
     13  C8         8.5490   21.6580   40.7070 C.2   170  FMN170     -0.0280
     14  C8M        7.5160   21.9150   39.6270 C.3   170  FMN170      0.0304
     15  C9         9.9100   21.6540   40.3610 C.2   170  FMN170     -0.0041
     16  C9A       10.8750   21.5080   41.3850 C.3   170  FMN170      0.1497
     17  N10       12.2560   21.6600   41.1100 N.pl3 170  FMN170     -0.2691
     18  C10       13.1770   21.6180   42.1140 C.2   170  FMN170      0.2416
     19  C1'       12.6370   21.9090   39.7390 C.3   170  FMN170      0.1294
     20  C2'       12.7710   20.6310   38.9170 C.3   170  FMN170      0.2044
     21  O2'       13.7750   19.7260   39.3840 O.3   170  FMN170     -0.2185
     22  C3'       13.0440   20.9900   37.4880 C.3   170  FMN170      0.2164
     23  O3'       11.8740   21.5810   36.9100 O.3   170  FMN170     -0.2175
     24  C4'       13.5760   19.8650   36.5840 C.3   170  FMN170      0.2147
     25  O4'       13.8250   20.3730   35.2730 O.3   170  FMN170     -0.2176
     26  C5'       12.5960   18.6890   36.5180 C.3   170  FMN170      0.1892
     27  O5'       13.2310   17.5740   35.8300 O.3   170  FMN170     -0.2674
     28  P         12.3880   16.2990   35.2900 P.3   170  FMN170      0.5327
     29  O1P       11.6840   16.6790   34.0590 O.2   170  FMN170     -0.2224
     30  O2P       11.6450   15.6760   36.3970 O.3   170  FMN170     -0.1145
     31  O3P       13.5570   15.3290   34.8310 O.3   170  FMN170     -0.1145
@<TRIPOS>BOND
     1    29    28    2
     2    31    28    1
     3    25    24    1
     4    28    27    1
     5    28    30    1
     6    27    26    1
     7    26    24    1
     8    24    22    1
     9    23    22    1
    10    22    20    1
    11    20    21    1
    12    20    19    1
    13    14    13    1
    14    19    17    1
    15    15    13    2
    16    15    16    1
    17    13    11    1
    18    17    16    1
    19    17    18    1
    20    16     9    1
    21     1    18    2
    22     1     2    2
    23    11    12    1
    24    11    10    2
    25    18     7    1
    26     3     2    2
    27     9    10    1
    28     9     8    2
    29     2     4    2
    30     7     8    2
    31     7     5    1
    32     4     5    2
    33     5     6    2
