@<TRIPOS>MOLECULE
1czo_FMN_A_1.pdb
 31 33 0 0 0
SMALL
GASTEIGER

@<TRIPOS>ATOM
      1  N1        61.4720   33.2570  -17.0310 N.2   170  FMN170     -0.2887
      2  C2        62.0390   34.4530  -17.3950 C.1   170  FMN170      0.3669
      3  O2        62.1880   35.3460  -16.5650 O.2   170  FMN170     -0.1744
      4  N3        62.4330   34.6670  -18.7730 N.2   170  FMN170     -0.2300
      5  C4        62.1540   33.8320  -19.8540 C.1   170  FMN170      0.2513
      6  O4        62.5380   34.1120  -21.0100 O.2   170  FMN170     -0.2057
      7  C4A       61.4140   32.5890  -19.4780 C.2   170  FMN170      0.2703
      8  N5        61.0660   31.7250  -20.4190 N.2   170  FMN170     -0.3882
      9  C5A       60.5820   30.5140  -19.9860 C.2   170  FMN170      0.1277
     10  C6        60.4980   29.4440  -20.9310 C.3   170  FMN170      0.0820
     11  C7        60.1910   28.1330  -20.5330 C.2   170  FMN170     -0.0408
     12  C7M       60.0200   27.0340  -21.5550 C.3   170  FMN170      0.0265
     13  C8        60.0030   27.8610  -19.1210 C.2   170  FMN170     -0.0280
     14  C8M       59.6320   26.4900  -18.6330 C.3   170  FMN170      0.0304
     15  C9        60.1190   28.8960  -18.1800 C.2   170  FMN170      0.0123
     16  C9A       60.3750   30.2090  -18.5910 C.2   170  FMN170      0.0793
     17  N10       60.5730   31.2240  -17.6530 N.pl3 170  FMN170     -0.2545
     18  C10       61.1450   32.4050  -18.0120 C.2   170  FMN170      0.2449
     19  C1'       60.1780   31.0000  -16.2510 C.3   170  FMN170      0.1336
     20  C2'       58.6970   31.2840  -16.0130 C.3   170  FMN170      0.2048
     21  O2'       58.3370   32.6530  -16.2160 O.3   170  FMN170     -0.2185
     22  C3'       58.3210   30.8650  -14.5930 C.3   170  FMN170      0.2165
     23  O3'       58.4310   29.4400  -14.4630 O.3   170  FMN170     -0.2175
     24  C4'       56.9850   31.3400  -14.0250 C.3   170  FMN170      0.2147
     25  O4'       56.8440   30.8650  -12.6830 O.3   170  FMN170     -0.2176
     26  C5'       55.8220   30.9360  -14.9320 C.3   170  FMN170      0.1892
     27  O5'       54.6350   31.5910  -14.4600 O.3   170  FMN170     -0.2674
     28  P         53.1460   31.1510  -14.7440 P.3   170  FMN170      0.5327
     29  O1P       52.9890   29.8940  -14.0270 O.3   170  FMN170     -0.1145
     30  O2P       52.2380   32.2380  -14.3280 O.3   170  FMN170     -0.1145
     31  O3P       52.9460   30.8630  -16.2740 O.2   170  FMN170     -0.2224
@<TRIPOS>BOND
     1    12    11    1
     2     6     5    2
     3    10    11    1
     4    10     9    1
     5    11    13    2
     6     8     9    2
     7     8     7    2
     8     9    16    1
     9     5     7    1
    10     5     4    2
    11     7    18    1
    12    13    14    1
    13    13    15    1
    14     4     2    2
    15    16    15    2
    16    16    17    1
    17    18    17    1
    18    18     1    2
    19    17    19    1
    20     2     1    2
    21     2     3    2
    22    31    28    2
    23    19    20    1
    24    21    20    1
    25    20    22    1
    26    26    27    1
    27    26    24    1
    28    28    27    1
    29    28    30    1
    30    28    29    1
    31    22    23    1
    32    22    24    1
    33    24    25    1
