@<TRIPOS>MOLECULE
1czr_FMN_A_1.pdb
 31 33 0 0 0
SMALL
GASTEIGER

@<TRIPOS>ATOM
      1  N1         1.4800   44.1530   53.5050 N.2   170  FMN170     -0.2890
      2  C2         0.5360   44.9640   54.1030 C.1   170  FMN170      0.3669
      3  O2        -0.5880   44.5580   54.3700 O.2   170  FMN170     -0.1744
      4  N3         0.8680   46.2900   54.4130 N.2   170  FMN170     -0.2300
      5  C4         2.0810   46.8730   54.1560 C.1   170  FMN170      0.2513
      6  O4         2.3020   48.0480   54.4460 O.2   170  FMN170     -0.2057
      7  C4A        3.0980   45.9970   53.5070 C.2   170  FMN170      0.2700
      8  N5         4.3050   46.4720   53.2590 N.2   170  FMN170     -0.3878
      9  C5A        5.2280   45.6310   52.6780 C.2   170  FMN170      0.1320
     10  C6         6.5280   46.1110   52.4240 C.2   170  FMN170      0.0250
     11  C7         7.5010   45.3220   51.8420 C.2   170  FMN170     -0.0238
     12  C7M        8.8720   45.9070   51.5370 C.3   170  FMN170      0.0308
     13  C8         7.1820   43.9570   51.5280 C.2   170  FMN170     -0.0280
     14  C8M        8.2300   43.0130   50.9820 C.3   170  FMN170      0.0304
     15  C9         5.9040   43.4680   51.7330 C.2   170  FMN170     -0.0041
     16  C9A        4.9080   44.2860   52.3230 C.3   170  FMN170      0.1497
     17  N10        3.5970   43.8410   52.5860 N.pl3 170  FMN170     -0.2691
     18  C10        2.6720   44.6380   53.2200 C.2   170  FMN170      0.2416
     19  C1'        3.2040   42.4790   52.1750 C.3   170  FMN170      0.1294
     20  C2'        2.8350   42.4170   50.6860 C.3   170  FMN170      0.2044
     21  O2'        1.7280   43.2180   50.2480 O.3   170  FMN170     -0.2185
     22  C3'        2.6080   40.9680   50.2760 C.3   170  FMN170      0.2164
     23  O3'        3.8450   40.2440   50.3430 O.3   170  FMN170     -0.2175
     24  C4'        1.9280   40.7070   48.9280 C.3   170  FMN170      0.2147
     25  O4'        1.8050   39.2970   48.7350 O.3   170  FMN170     -0.2176
     26  C5'        2.7530   41.2790   47.7730 C.3   170  FMN170      0.1892
     27  O5'        2.0100   41.1290   46.5510 O.3   170  FMN170     -0.2674
     28  P          2.6180   41.3140   45.1210 P.3   170  FMN170      0.5327
     29  O1P        3.3270   40.0920   44.7710 O.3   170  FMN170     -0.1145
     30  O2P        3.2360   42.6300   44.9350 O.3   170  FMN170     -0.1145
     31  O3P        1.3360   41.2910   44.2440 O.2   170  FMN170     -0.2224
@<TRIPOS>BOND
     1    31    28    2
     2    29    28    1
     3    30    28    1
     4    28    27    1
     5    27    26    1
     6    26    24    1
     7    25    24    1
     8    24    22    1
     9    21    20    1
    10    22    23    1
    11    22    20    1
    12    20    19    1
    13    14    13    1
    14    13    15    2
    15    13    11    1
    16    12    11    1
    17    15    16    1
    18    11    10    2
    19    19    17    1
    20    16    17    1
    21    16     9    1
    22    10     9    1
    23    17    18    1
    24     9     8    2
    25    18     1    2
    26    18     7    1
    27     8     7    2
    28     1     2    2
    29     7     5    1
    30     2     3    2
    31     2     4    2
    32     5     4    2
    33     5     6    2
