@<TRIPOS>MOLECULE
1czu_FMN_A_1.pdb
 31 33 0 0 0
SMALL
GASTEIGER

@<TRIPOS>ATOM
      1  N1         1.4750   44.1800   53.4490 N.2   170  FMN170     -0.2890
      2  C2         0.5320   45.0020   54.0120 C.1   170  FMN170      0.3669
      3  O2        -0.5800   44.5970   54.2590 O.2   170  FMN170     -0.1744
      4  N3         0.8550   46.3230   54.3240 N.2   170  FMN170     -0.2300
      5  C4         2.0800   46.9000   54.0800 C.1   170  FMN170      0.2513
      6  O4         2.3000   48.0680   54.3520 O.2   170  FMN170     -0.2057
      7  C4A        3.0970   46.0290   53.4590 C.2   170  FMN170      0.2700
      8  N5         4.3090   46.5060   53.2080 N.2   170  FMN170     -0.3878
      9  C5A        5.2350   45.6650   52.6190 C.2   170  FMN170      0.1320
     10  C6         6.5510   46.1580   52.3800 C.2   170  FMN170      0.0250
     11  C7         7.5330   45.3550   51.8250 C.2   170  FMN170     -0.0238
     12  C7M        8.9210   45.9350   51.5650 C.3   170  FMN170      0.0308
     13  C8         7.2070   43.9750   51.5280 C.2   170  FMN170     -0.0280
     14  C8M        8.2560   42.9930   51.1030 C.3   170  FMN170      0.0304
     15  C9         5.9120   43.4930   51.6690 C.2   170  FMN170     -0.0041
     16  C9A        4.9120   44.3180   52.2570 C.3   170  FMN170      0.1497
     17  N10        3.5930   43.8650   52.5310 N.pl3 170  FMN170     -0.2691
     18  C10        2.6670   44.6660   53.1700 C.2   170  FMN170      0.2416
     19  C1'        3.1920   42.5040   52.1510 C.3   170  FMN170      0.1294
     20  C2'        2.8530   42.4690   50.6580 C.3   170  FMN170      0.2044
     21  O2'        1.7430   43.2820   50.2500 O.3   170  FMN170     -0.2185
     22  C3'        2.5960   41.0280   50.2460 C.3   170  FMN170      0.2164
     23  O3'        3.8040   40.2710   50.3680 O.3   170  FMN170     -0.2175
     24  C4'        1.9340   40.7530   48.8880 C.3   170  FMN170      0.2147
     25  O4'        1.7960   39.3430   48.7120 O.3   170  FMN170     -0.2176
     26  C5'        2.7530   41.3320   47.7380 C.3   170  FMN170      0.1892
     27  O5'        1.9880   41.2340   46.5250 O.3   170  FMN170     -0.2674
     28  P          2.5900   41.4110   45.0800 P.3   170  FMN170      0.5327
     29  O1P        3.3630   40.2190   44.8210 O.3   170  FMN170     -0.1145
     30  O2P        3.1820   42.7570   44.8910 O.3   170  FMN170     -0.1145
     31  O3P        1.3560   41.3590   44.1650 O.2   170  FMN170     -0.2224
@<TRIPOS>BOND
     1    31    28    2
     2    29    28    1
     3    30    28    1
     4    28    27    1
     5    27    26    1
     6    26    24    1
     7    25    24    1
     8    24    22    1
     9    22    23    1
    10    22    20    1
    11    21    20    1
    12    20    19    1
    13    14    13    1
    14    13    15    2
    15    13    11    1
    16    12    11    1
    17    15    16    1
    18    11    10    2
    19    19    17    1
    20    16    17    1
    21    16     9    1
    22    10     9    1
    23    17    18    1
    24     9     8    2
    25    18     1    2
    26    18     7    1
    27     8     7    2
    28     1     2    2
    29     7     5    1
    30     2     3    2
    31     2     4    2
    32     5     4    2
    33     5     6    2
