@<TRIPOS>MOLECULE
1d00_III_I_1.pdb
 43 43 0 0 0
SMALL
GASTEIGER

@<TRIPOS>ATOM
      1  C         19.5330    2.0410  -25.3170 C.2   249  ACE249      0.2264
      2  O         19.5470    3.1910  -25.7780 O.2   249  ACE249     -0.2748
      3  CH3       19.3210    0.8460  -26.2270 C.3   249  ACE249      0.0948
      4  N         19.7140    1.7980  -24.0110 N.am  250  PRO250     -0.2729
      5  CA        19.9280    2.8440  -23.0040 C.3   250  PRO250      0.1535
      6  C         21.3700    3.3390  -23.0350 C.2   250  PRO250      0.2598
      7  O         22.2710    2.6290  -23.4830 O.2   250  PRO250     -0.2715
      8  CB        19.6390    2.1220  -21.6800 C.3   250  PRO250      0.0310
      9  CG        19.0430    0.7800  -22.1040 C.3   250  PRO250      0.0237
     10  CD        19.7600    0.4830  -23.3630 C.3   250  PRO250      0.0939
     11  N         21.5720    4.5480  -22.5270 N.am  251  VAL251     -0.1964
     12  CA        22.8780    5.1770  -22.4400 C.3   251  VAL251      0.1727
     13  C         23.1050    5.5070  -20.9600 C.2   251  VAL251      0.2616
     14  O         22.2580    6.1510  -20.3270 O.2   251  VAL251     -0.2715
     15  CB        22.9090    6.4800  -23.2890 C.3   251  VAL251      0.0290
     16  CG1       24.1660    7.2900  -22.9960 C.3   251  VAL251      0.0023
     17  CG2       22.8570    6.1260  -24.7680 C.3   251  VAL251      0.0023
     18  N         24.2350    5.0620  -20.4090 N.am  252  GLN252     -0.1963
     19  CA        24.5290    5.3300  -19.0040 C.3   252  GLN252      0.1733
     20  C         24.6670    6.8110  -18.7400 C.2   252  GLN252      0.2616
     21  O         25.0040    7.5870  -19.6380 O.2   252  GLN252     -0.2715
     22  CB        25.8190    4.6480  -18.5450 C.3   252  GLN252      0.0408
     23  CG        25.7600    3.1300  -18.4660 C.3   252  GLN252      0.0908
     24  CD        26.9520    2.5590  -17.7240 C.2   252  GLN252      0.2608
     25  OE1       28.0950    2.8290  -18.0740 O.2   252  GLN252     -0.2717
     26  NE2       26.6870    1.7650  -16.6900 N.am  252  GLN252     -0.0878
     27  N         24.4050    7.2010  -17.4960 N.am  253  GLU253     -0.1963
     28  CA        24.5220    8.5980  -17.1160 C.3   253  GLU253      0.1733
     29  C         26.0030    8.8970  -17.0120 C.2   253  GLU253      0.2617
     30  O         26.8290    7.9930  -16.8820 O.2   253  GLU253     -0.2715
     31  CB        23.8650    8.8590  -15.7560 C.3   253  GLU253      0.0429
     32  CG        24.5840    8.2260  -14.5890 C.3   253  GLU253      0.1163
     33  CD        23.8440    8.4010  -13.2670 C.2   253  GLU253      0.3649
     34  OE1       23.3400    9.5140  -13.0060 O.co2 253  GLU253     -0.2457
     35  OE2       23.7930    7.4290  -12.4780 O.co2 253  GLU253     -0.2457
     36  N         26.3070   10.1860  -17.0470 N.am  254  THR254     -0.1936
     37  CA        27.6570   10.7180  -16.9630 C.3   254  THR254      0.2045
     38  C         28.0020   11.1590  -15.5280 C.2   254  THR254      0.2831
     39  O         29.0960   10.8010  -15.0530 O.2   254  THR254     -0.2697
     40  CB        27.7880   11.9060  -17.9390 C.3   254  THR254      0.1808
     41  OG1       28.2440   11.4400  -19.2160 O.3   254  THR254     -0.2208
     42  CG2       28.6890   12.9500  -17.3970 C.3   254  THR254      0.0379
     43  N         27.1930   11.8730  -14.8930 N.am  255  NH2255     -0.0862
@<TRIPOS>BOND
     1     3     1    1
     2     2     1    2
     3     1     4   am
     4    17    15    1
     5     4    10    1
     6     4     5    1
     7     7     6    2
     8    10     9    1
     9    15    16    1
    10    15    12    1
    11     6     5    1
    12     6    11   am
    13     5     8    1
    14    11    12    1
    15    12    13    1
    16     9     8    1
    17    13    18   am
    18    13    14    2
    19    18    19    1
    20    21    20    2
    21    41    40    1
    22    19    20    1
    23    19    22    1
    24    20    27   am
    25    22    23    1
    26    23    24    1
    27    25    24    2
    28    40    42    1
    29    40    37    1
    30    24    26   am
    31    27    28    1
    32    28    29    1
    33    28    31    1
    34    36    29   am
    35    36    37    1
    36    29    30    2
    37    37    38    1
    38    31    32    1
    39    38    39    2
    40    38    43   am
    41    32    33    1
    42    33    34   ar
    43    33    35   ar
