@<TRIPOS>MOLECULE
1d03_FMN_A_1.pdb
 31 33 0 0 0
SMALL
GASTEIGER

@<TRIPOS>ATOM
      1  N1        61.8600   34.3370  -17.3160 N.2   170  FMN170     -0.2890
      2  C2        62.4560   35.5390  -17.6520 C.1   170  FMN170      0.3669
      3  O2        62.7150   36.3810  -16.8080 O.2   170  FMN170     -0.1744
      4  N3        62.7810   35.8070  -19.0030 N.2   170  FMN170     -0.2300
      5  C4        62.5020   34.9650  -20.0490 C.1   170  FMN170      0.2513
      6  O4        62.7840   35.2540  -21.2050 O.2   170  FMN170     -0.2057
      7  C4A       61.8400   33.6670  -19.6980 C.2   170  FMN170      0.2700
      8  N5        61.6010   32.7730  -20.6450 N.2   170  FMN170     -0.3878
      9  C5A       61.0100   31.5780  -20.2850 C.2   170  FMN170      0.1320
     10  C6        60.8660   30.5710  -21.2810 C.2   170  FMN170      0.0250
     11  C7        60.4830   29.2760  -20.9540 C.2   170  FMN170     -0.0238
     12  C7M       60.3270   28.2530  -22.0510 C.3   170  FMN170      0.0308
     13  C8        60.2530   28.9350  -19.5670 C.2   170  FMN170     -0.0280
     14  C8M       59.9780   27.5090  -19.1470 C.3   170  FMN170      0.0304
     15  C9        60.3040   29.9290  -18.5950 C.2   170  FMN170     -0.0041
     16  C9A       60.7070   31.2520  -18.9200 C.3   170  FMN170      0.1497
     17  N10       60.9420   32.2530  -17.9510 N.pl3 170  FMN170     -0.2691
     18  C10       61.5530   33.4590  -18.2660 C.2   170  FMN170      0.2416
     19  C1'       60.5580   32.0020  -16.5610 C.3   170  FMN170      0.1294
     20  C2'       59.0630   32.2320  -16.3700 C.3   170  FMN170      0.2044
     21  O2'       58.6800   33.5910  -16.5940 O.3   170  FMN170     -0.2185
     22  C3'       58.6710   31.8200  -14.9560 C.3   170  FMN170      0.2164
     23  O3'       58.7400   30.3920  -14.8280 O.3   170  FMN170     -0.2175
     24  C4'       57.3310   32.3380  -14.4280 C.3   170  FMN170      0.2147
     25  O4'       57.1750   31.9400  -13.0640 O.3   170  FMN170     -0.2176
     26  C5'       56.1730   31.8610  -15.2970 C.3   170  FMN170      0.1892
     27  O5'       54.9870   32.5710  -14.8910 O.3   170  FMN170     -0.2674
     28  P         53.5150   32.1140  -15.2080 P.3   170  FMN170      0.5327
     29  O1P       53.2500   30.8790  -14.4280 O.3   170  FMN170     -0.1145
     30  O2P       53.2670   32.0610  -16.6690 O.2   170  FMN170     -0.2224
     31  O3P       52.5960   33.1950  -14.5840 O.3   170  FMN170     -0.1145
@<TRIPOS>BOND
     1    12    11    1
     2    10    11    2
     3    10     9    1
     4     6     5    2
     5    11    13    1
     6     8     9    2
     7     8     7    2
     8     9    16    1
     9     5     7    1
    10     5     4    2
    11     7    18    1
    12    13    14    1
    13    13    15    2
    14     4     2    2
    15    16    15    1
    16    16    17    1
    17    18    17    1
    18    18     1    2
    19    17    19    1
    20     2     1    2
    21     2     3    2
    22    30    28    2
    23    21    20    1
    24    19    20    1
    25    20    22    1
    26    26    27    1
    27    26    24    1
    28    28    27    1
    29    28    31    1
    30    28    29    1
    31    22    23    1
    32    22    24    1
    33    24    25    1
