@<TRIPOS>MOLECULE
1d04_FMN_A_1.pdb
 31 33 0 0 0
SMALL
GASTEIGER

@<TRIPOS>ATOM
      1  N1        14.6740   21.7790   42.4200 N.2   170  FMN170     -0.2887
      2  C2        15.6310   21.7810   43.3890 C.1   170  FMN170      0.3669
      3  O2        16.8250   21.9320   43.1180 O.2   170  FMN170     -0.1744
      4  N3        15.2880   21.5750   44.7100 N.2   170  FMN170     -0.2300
      5  C4        14.0120   21.3230   45.1340 C.1   170  FMN170      0.2513
      6  O4        13.8260   21.1300   46.3110 O.2   170  FMN170     -0.2057
      7  C4A       12.9370   21.3070   44.1050 C.2   170  FMN170      0.2706
      8  N5        11.6560   21.1590   44.4620 N.2   170  FMN170     -0.3841
      9  C5A       10.7070   21.3060   43.4300 C.2   170  FMN170      0.1452
     10  C6         9.2960   21.3350   43.7590 C.2   170  FMN170      0.0252
     11  C7         8.3460   21.5380   42.7580 C.2   170  FMN170     -0.0375
     12  C7M        6.8790   21.6480   43.1230 C.3   170  FMN170      0.0268
     13  C8         8.7560   21.6410   41.3850 C.3   170  FMN170      0.0417
     14  C8M        7.7710   21.8300   40.2600 C.3   170  FMN170      0.0091
     15  C9        10.1120   21.5770   41.0430 C.2   170  FMN170     -0.0049
     16  C9A       11.0780   21.4560   42.0480 C.2   170  FMN170      0.0795
     17  N10       12.4480   21.5720   41.7440 N.pl3 170  FMN170     -0.2545
     18  C10       13.4030   21.5370   42.7430 C.2   170  FMN170      0.2449
     19  C1'       12.8330   21.8060   40.3510 C.3   170  FMN170      0.1336
     20  C2'       12.9400   20.5440   39.4910 C.3   170  FMN170      0.2048
     21  O2'       13.9430   19.6090   39.9100 O.3   170  FMN170     -0.2185
     22  C3'       13.1680   20.9270   38.0380 C.3   170  FMN170      0.2165
     23  O3'       11.9670   21.4910   37.4900 O.3   170  FMN170     -0.2175
     24  C4'       13.6730   19.7980   37.1330 C.3   170  FMN170      0.2147
     25  O4'       13.8540   20.2940   35.8030 O.3   170  FMN170     -0.2176
     26  C5'       12.6970   18.6190   37.1290 C.3   170  FMN170      0.1892
     27  O5'       13.2770   17.5680   36.3330 O.3   170  FMN170     -0.2674
     28  P         12.4110   16.3010   35.8010 P.3   170  FMN170      0.5327
     29  O1P       11.7380   16.5970   34.5480 O.2   170  FMN170     -0.2224
     30  O2P       11.7220   15.6180   36.9150 O.3   170  FMN170     -0.1145
     31  O3P       13.6180   15.4110   35.3340 O.3   170  FMN170     -0.1145
@<TRIPOS>BOND
     1    29    28    2
     2    31    28    1
     3    28    27    1
     4    28    30    1
     5    25    24    1
     6    27    26    1
     7    26    24    1
     8    24    22    1
     9    23    22    1
    10    22    20    1
    11    20    21    1
    12    20    19    1
    13    14    13    1
    14    19    17    1
    15    15    13    1
    16    15    16    2
    17    13    11    1
    18    17    16    1
    19    17    18    1
    20    16     9    1
    21     1    18    2
    22     1     2    2
    23    18     7    1
    24    11    12    1
    25    11    10    2
    26     3     2    2
    27     2     4    2
    28     9    10    1
    29     9     8    2
    30     7     8    2
    31     7     5    1
    32     4     5    2
    33     5     6    2
