@<TRIPOS>MOLECULE
1d09_PAL_A_1.pdb
 16 15 0 0 0
SMALL
GASTEIGER

@<TRIPOS>ATOM
      1  P         46.0070   29.5840   15.9460 P.3   1311  PAL1311     0.1264
      2  O1P       45.9660   30.5120   17.1780 O.3   1311  PAL1311    -0.3568
      3  O2P       47.0690   28.5590   15.9510 O.3   1311  PAL1311    -0.3568
      4  O3P       46.3960   30.6030   14.7470 O.2   1311  PAL1311    -0.4596
      5  C1P       44.3640   29.0280   15.4540 C.3   1311  PAL1311     0.1454
      6  C1        43.2480   29.9560   15.9130 C.2   1311  PAL1311     0.2492
      7  O1        43.0070   31.0150   15.2890 O.2   1311  PAL1311    -0.2728
      8  N2        42.6070   29.5920   17.0360 N.am  1311  PAL1311    -0.1946
      9  C2        41.5030   30.3420   17.6060 C.3   1311  PAL1311     0.2090
     10  C4        41.8220   31.6970   18.1950 C.2   1311  PAL1311     0.3848
     11  O2        40.8690   32.4270   18.6500 O.co2 1311  PAL1311    -0.2437
     12  O3        43.0400   31.9800   18.2310 O.co2 1311  PAL1311    -0.2437
     13  C3        40.7170   29.4480   18.6010 C.3   1311  PAL1311     0.1472
     14  C5        41.4990   29.1320   19.8640 C.2   1311  PAL1311     0.3672
     15  O4        42.5700   29.7540   20.0760 O.co2 1311  PAL1311    -0.2456
     16  O5        40.9980   28.2940   20.6580 O.co2 1311  PAL1311    -0.2456
@<TRIPOS>BOND
     1     4     1    2
     2     7     6    2
     3     5     6    1
     4     5     1    1
     5     6     8   am
     6     1     3    1
     7     1     2    1
     8     8     9    1
     9     9    10    1
    10     9    13    1
    11    10    12   ar
    12    10    11   ar
    13    13    14    1
    14    14    15   ar
    15    14    16   ar
