@<TRIPOS>MOLECULE
1d0a_III_G_1.pdb
 46 46 0 0 0
SMALL
GASTEIGER

@<TRIPOS>ATOM
      1  C         17.3400   39.0570   66.4790 C.2   261  ACE261      0.2264
      2  O         17.8230   37.9250   66.5420 O.2   261  ACE261     -0.2748
      3  CH3       16.3730   39.5400   67.5430 C.3   261  ACE261      0.0948
      4  N         17.6460   39.8930   65.4780 N.am  262  PRO262     -0.2729
      5  CA        18.5730   39.4920   64.4170 C.3   262  PRO262      0.1535
      6  C         19.9780   39.2190   64.9470 C.2   262  PRO262      0.2598
      7  O         20.3550   39.7020   66.0110 O.2   262  PRO262     -0.2715
      8  CB        18.5320   40.6930   63.4730 C.3   262  PRO262      0.0310
      9  CG        18.3190   41.8500   64.4580 C.3   262  PRO262      0.0237
     10  CD        17.1600   41.2620   65.2310 C.3   262  PRO262      0.0939
     11  N         20.7410   38.4360   64.1940 N.am  263  ILE263     -0.1964
     12  CA        22.1140   38.0980   64.5460 C.3   263  ILE263      0.1727
     13  C         23.0130   38.5690   63.4050 C.2   263  ILE263      0.2616
     14  O         22.7080   38.3360   62.2340 O.2   263  ILE263     -0.2715
     15  CB        22.2740   36.5720   64.7260 C.3   263  ILE263      0.0290
     16  CG1       21.4100   36.0960   65.9010 C.3   263  ILE263      0.0022
     17  CG2       23.7420   36.2220   64.9410 C.3   263  ILE263      0.0023
     18  CD1       21.4240   34.5870   66.1210 C.3   263  ILE263      0.0001
     19  N         24.1170   39.2290   63.7360 N.am  264  GLN264     -0.1963
     20  CA        25.0110   39.7270   62.6980 C.3   264  GLN264      0.1733
     21  C         25.7760   38.6210   61.9940 C.2   264  GLN264      0.2616
     22  O         26.0720   37.5740   62.5750 O.2   264  GLN264     -0.2715
     23  CB        26.0260   40.7230   63.2700 C.3   264  GLN264      0.0408
     24  CG        25.4330   41.9760   63.9010 C.3   264  GLN264      0.0908
     25  CD        26.5040   43.0080   64.2390 C.2   264  GLN264      0.2608
     26  OE1       27.4940   42.6940   64.9030 O.2   264  GLN264     -0.2717
     27  NE2       26.3080   44.2440   63.7850 N.am  264  GLN264     -0.0878
     28  N         26.0920   38.8690   60.7300 N.am  265  GLU265     -0.1963
     29  CA        26.8530   37.9260   59.9340 C.3   265  GLU265      0.1733
     30  C         28.2560   37.9210   60.5340 C.2   265  GLU265      0.2617
     31  O         28.7040   38.9350   61.0750 O.2   265  GLU265     -0.2715
     32  CB        26.9210   38.4040   58.4790 C.3   265  GLU265      0.0429
     33  CG        27.7780   39.6500   58.2840 C.3   265  GLU265      0.1163
     34  CD        27.7560   40.1860   56.8580 C.2   265  GLU265      0.3649
     35  OE1       27.8740   39.3790   55.9080 O.co2 265  GLU265     -0.2457
     36  OE2       27.6460   41.4230   56.6930 O.co2 265  GLU265     -0.2457
     37  N         28.9490   36.7900   60.4520 N.am  266  GLU266     -0.1941
     38  CA        30.3040   36.7280   60.9800 C.3   266  GLU266      0.1984
     39  C         31.2890   36.9220   59.8400 C.2   266  GLU266      0.3842
     40  O         30.8390   36.8940   58.6740 O.co2 266  GLU266     -0.2437
     41  CB        30.5770   35.3800   61.6530 C.3   266  GLU266      0.0451
     42  CG        29.7260   35.1040   62.8790 C.3   266  GLU266      0.1164
     43  CD        30.1490   33.8360   63.6010 C.2   266  GLU266      0.3649
     44  OE1       29.4900   33.4780   64.6030 O.co2 266  GLU266     -0.2457
     45  OE2       31.1420   33.2050   63.1700 O.co2 266  GLU266     -0.2457
     46  OXT       32.4950   37.0810   60.1290 O.co2 266  GLU266     -0.2437
@<TRIPOS>BOND
     1    35    34   ar
     2    36    34   ar
     3    34    33    1
     4    33    32    1
     5    32    29    1
     6    40    39   ar
     7    39    46   ar
     8    39    38    1
     9    29    30    1
    10    29    28    1
    11    37    30   am
    12    37    38    1
    13    30    31    2
    14    28    21   am
    15    38    41    1
    16    41    42    1
    17    21    22    2
    18    21    20    1
    19    14    13    2
    20    20    23    1
    21    20    19    1
    22    42    43    1
    23    45    43   ar
    24    23    24    1
    25    13    19   am
    26    13    12    1
    27     8     5    1
    28     8     9    1
    29    43    44   ar
    30    27    25   am
    31    24    25    1
    32    11    12    1
    33    11     6   am
    34    25    26    2
    35     5     6    1
    36     5     4    1
    37     9    10    1
    38    12    15    1
    39    15    17    1
    40    15    16    1
    41     6     7    2
    42    10     4    1
    43     4     1   am
    44    16    18    1
    45     1     2    2
    46     1     3    1
