@<TRIPOS>MOLECULE
1d0c_HEM_A_1.pdb
 43 50 0 0 0
SMALL
GASTEIGER

@<TRIPOS>ATOM
      1  CHA        9.4000    9.1060   35.1440 C.2   500  HEM500      0.0000
      2  CHB        4.8010    9.3950   33.6600 C.2   500  HEM500      0.0000
      3  CHC        6.2420    7.6820   29.3750 C.2   500  HEM500      0.0000
      4  CHD       10.7240    6.9030   31.0350 C.2   500  HEM500      0.0000
      5  C1A        8.0500    9.4120   35.0760 C.2   500  HEM500      0.0000
      6  C2A        7.2840   10.0960   36.0880 C.2   500  HEM500      0.0000
      7  C3A        5.9930   10.1100   35.7110 C.2   500  HEM500      0.0000
      8  C4A        5.9660    9.4330   34.4260 C.2   500  HEM500      0.0000
      9  CMA        4.7820   10.7830   36.3510 C.3   500  HEM500      0.0000
     10  CAA        7.7890   10.4780   37.4800 C.3   500  HEM500      0.0000
     11  CBA        8.4680   11.8550   37.4920 C.3   500  HEM500      0.0000
     12  CGA        9.9470   11.7430   37.1610 C.2   500  HEM500      0.0000
     13  O1A       10.5990   10.7630   37.6010 O.co2 500  HEM500      0.0000
     14  O2A       10.4860   12.6240   36.4600 O.co2 500  HEM500      0.0000
     15  C1B        4.7830    8.8980   32.3340 C.ar  500  HEM500      0.0000
     16  C2B        3.6080    8.8440   31.5080 C.ar  500  HEM500      0.0000
     17  C3B        4.0090    8.3410   30.3070 C.ar  500  HEM500      0.0000
     18  C4B        5.4210    8.1000   30.4310 C.ar  500  HEM500      0.0000
     19  CMB        2.1930    9.3050   31.8310 C.3   500  HEM500      0.0000
     20  CAB        3.1620    8.1850   29.1990 C.3   500  HEM500      0.0000
     21  CBB        3.1640    7.2400   28.1950 C.3   500  HEM500      0.0000
     22  C1C        7.6180    7.4920   29.4360 C.2   500  HEM500      0.0000
     23  C2C        8.3890    6.9260   28.3500 C.2   500  HEM500      0.0000
     24  C3C        9.6400    6.6870   28.7980 C.2   500  HEM500      0.0000
     25  C4C        9.6250    7.0880   30.1940 C.2   500  HEM500      0.0000
     26  CMC        7.9050    6.9010   26.8950 C.3   500  HEM500      0.0000
     27  CAC       10.7460    6.1410   28.1470 C.3   500  HEM500      0.0000
     28  CBC       10.8530    5.3730   27.0070 C.3   500  HEM500      0.0000
     29  C1D       10.7190    7.3750   32.3630 C.ar  500  HEM500      0.0000
     30  C2D       11.9170    7.5780   33.1310 C.ar  500  HEM500      0.0000
     31  C3D       11.5420    8.2750   34.2360 C.ar  500  HEM500      0.0000
     32  C4D       10.1290    8.4870   34.1220 C.ar  500  HEM500      0.0000
     33  CMD       13.3460    7.1590   32.7950 C.3   500  HEM500      0.0000
     34  CAD       12.4980    8.6950   35.3530 C.3   500  HEM500      0.0000
     35  CBD       12.9990   10.1240   35.2080 C.3   500  HEM500      0.0000
     36  CGD       13.9860   10.6170   36.2400 C.2   500  HEM500      0.0000
     37  O1D       14.4500    9.8720   37.1200 O.co2 500  HEM500      0.0000
     38  O2D       14.3370   11.8230   36.1820 O.co2 500  HEM500      0.0000
     39  NA         7.2270    9.0100   34.0530 N.2   500  HEM500      0.0000
     40  NB         5.8790    8.2790   31.7460 N.ar  500  HEM500      0.0000
     41  NC         8.3490    7.4150   30.6070 N.2   500  HEM500      0.0000
     42  ND         9.6010    7.9550   32.9340 N.ar  500  HEM500      0.0000
     43 FE          7.7020    7.9190   32.4400 Fe    500  HEM500      0.0000
@<TRIPOS>BOND
     1    26    23    1
     2    28    27    1
     3    27    24    1
     4    21    20    1
     5    23    24    2
     6    23    22    1
     7    24    25    1
     8    20    17    1
     9     3    22    2
    10     3    18    1
    11    22    41    1
    12    25    41    2
    13    25     4    1
    14    17    18   ar
    15    17    16   ar
    16    18    40   ar
    17    41    43    1
    18     4    29    2
    19    16    19    1
    20    16    15   ar
    21    40    15   ar
    22    40    43    1
    23    15     2    1
    24    29    42   ar
    25    29    30   ar
    26    43    42    1
    27    43    39    1
    28    33    30    1
    29    42    32   ar
    30    30    31   ar
    31     2     8    2
    32    39     8    1
    33    39     5    2
    34    32    31   ar
    35    32     1    2
    36    31    34    1
    37     8     7    1
    38     5     1    1
    39     5     6    1
    40    35    34    1
    41    35    36    1
    42     7     6    2
    43     7     9    1
    44     6    10    1
    45    38    36   ar
    46    36    37   ar
    47    14    12   ar
    48    12    11    1
    49    12    13   ar
    50    10    11    1
