@<TRIPOS>MOLECULE
1d0c_INE_A_1.pdb
 13 14 0 0 0
SMALL
GASTEIGER

@<TRIPOS>ATOM
      1  N1         5.5810   11.7160   30.6160 N.2   760  INE760     -0.1458
      2  N2         6.2420   11.2380   29.5200 N.2   760  INE760     -0.1411
      3  C3         7.6290   11.2070   29.8480 C.2   760  INE760      0.1381
      4  C4         8.8020   11.8470   32.0270 C.2   760  INE760     -0.0177
      5  C5         8.5440   12.3670   33.3140 C.3   760  INE760      0.0539
      6  C6         7.2630   12.6530   33.7320 C.2   760  INE760      0.0042
      7  C7         6.1800   12.4910   32.8840 C.2   760  INE760      0.1583
      8  C8         6.4330   11.9290   31.5900 C.2   760  INE760      0.1266
      9  C9         7.7030   11.6720   31.1570 C.2   760  INE760      0.0429
     10  N10        4.9440   12.8040   33.2270 N.pl3 760  INE760      0.0589
     11  O11        4.7790   13.2640   34.3380 O.2   760  INE760     -0.1261
     12  O12        3.9280   12.6180   32.5870 O.2   760  INE760     -0.1261
     13 BR          8.9410   10.7540   28.7660 Br    760  INE760     -0.0261
@<TRIPOS>BOND
     1    13     3    1
     2     2     3    2
     3     2     1    1
     4     3     9    1
     5     1     8    2
     6     9     8    1
     7     9     4    2
     8     8     7    1
     9     4     5    1
    10    12    10    2
    11     7    10    1
    12     7     6    2
    13    10    11    2
    14     5     6    1
