@<TRIPOS>MOLECULE
1d0h_A2G_A_1.pdb
 15 15 0 0 0
SMALL
GASTEIGER

@<TRIPOS>ATOM
      1  C1        10.8320   -1.6270   81.9990 C.3   601  A2G601      0.2917
      2  C2        11.4350   -1.3980   80.6080 C.3   601  A2G601      0.1871
      3  C3        10.8830   -2.4150   79.6120 C.3   601  A2G601      0.2095
      4  C4        11.0410   -3.8470   80.0930 C.3   601  A2G601      0.2136
      5  C5        10.4650   -3.9500   81.5020 C.3   601  A2G601      0.1835
      6  C6        10.5550   -5.3050   82.1780 C.3   601  A2G601      0.2142
      7  C7        11.7730    0.9960   80.7680 C.2   601  A2G601      0.2421
      8  C8        11.4730    2.3500   80.1890 C.3   601  A2G601      0.0964
      9  O         11.0670   -2.9880   82.3870 O.3   601  A2G601     -0.3242
     10  O1         9.4710   -1.3540   81.9630 O.3   601  A2G601     -0.1879
     11  O3        11.4350   -2.3010   78.3160 O.3   601  A2G601     -0.2183
     12  O4        12.3920   -4.2560   79.9440 O.3   601  A2G601     -0.2176
     13  O6         9.6540   -5.4310   83.2840 O.3   601  A2G601     -0.2176
     14  O7        12.5280    0.8560   81.7480 O.2   601  A2G601     -0.2733
     15  N2        11.1840   -0.0310   80.1740 N.am  601  A2G601     -0.1991
@<TRIPOS>BOND
     1    11     3    1
     2     3     4    1
     3     3     2    1
     4    12     4    1
     5     4     5    1
     6    15     2    1
     7    15     7   am
     8     8     7    1
     9     2     1    1
    10     7    14    2
    11     5     6    1
    12     5     9    1
    13    10     1    1
    14     1     9    1
    15     6    13    1
