@<TRIPOS>MOLECULE
1d0j_III_G_1.pdb
 34 33 0 0 0
SMALL
GASTEIGER

@<TRIPOS>ATOM
      1  N         18.0550   40.7860   65.3650 N.3   232  ALA232     -0.1231
      2  CA        18.9390   40.6960   64.1690 C.3   232  ALA232      0.1694
      3  C         20.3890   40.4460   64.5890 C.2   232  ALA232      0.2592
      4  O         20.9150   41.1280   65.4680 O.2   232  ALA232     -0.2718
      5  CB        18.8390   41.9870   63.3480 C.3   232  ALA232      0.0304
      6  N         21.0240   39.4690   63.9460 N.am  233  ALA233     -0.1966
      7  CA        22.4100   39.1030   64.2340 C.3   233  ALA233      0.1728
      8  C         23.3540   39.5360   63.1060 C.2   233  ALA233      0.2616
      9  O         23.4160   38.8790   62.0690 O.2   233  ALA233     -0.2715
     10  CB        22.5100   37.5870   64.4420 C.3   233  ALA233      0.0334
     11  N         24.0950   40.6190   63.3130 N.am  234  GLN234     -0.1963
     12  CA        25.0270   41.1200   62.3040 C.3   234  GLN234      0.1733
     13  C         25.8480   40.0030   61.6570 C.2   234  GLN234      0.2616
     14  O         26.0020   38.9210   62.2260 O.2   234  GLN234     -0.2715
     15  CB        25.9820   42.1330   62.9330 C.3   234  GLN234      0.0408
     16  CG        25.2870   43.2300   63.7100 C.3   234  GLN234      0.0908
     17  CD        26.2690   44.2020   64.3260 C.2   234  GLN234      0.2608
     18  OE1       27.2030   43.8010   65.0140 O.2   234  GLN234     -0.2717
     19  NE2       26.0550   45.4910   64.0930 N.am  234  GLN234     -0.0878
     20  N         26.3740   40.2650   60.4630 N.am  235  GLU235     -0.1963
     21  CA        27.1810   39.2690   59.7610 C.3   235  GLU235      0.1733
     22  C         28.5880   39.3770   60.3290 C.2   235  GLU235      0.2617
     23  O         28.9820   40.4490   60.8040 O.2   235  GLU235     -0.2715
     24  CB        27.2210   39.5650   58.2570 C.3   235  GLU235      0.0429
     25  CG        28.1660   40.7080   57.8720 C.3   235  GLU235      0.1163
     26  CD        28.0520   41.1080   56.4170 C.2   235  GLU235      0.3649
     27  OE1       28.0460   40.2070   55.5500 O.co2 235  GLU235     -0.2457
     28  OE2       27.9840   42.3300   56.1470 O.co2 235  GLU235     -0.2457
     29  N         29.3440   38.2820   60.2850 N.am  236  GLU236     -0.1942
     30  CA        30.7070   38.3000   60.8080 C.3   236  GLU236      0.1979
     31  C         31.6970   38.5370   59.6710 C.2   236  GLU236      0.3842
     32  O         31.3340   38.2340   58.5070 O.co2 236  GLU236     -0.2437
     33  CB        31.0210   36.9760   61.5120 C.3   236  GLU236      0.0356
     34  OXT       32.8290   38.9920   59.9640 O.co2 236  GLU236     -0.2437
@<TRIPOS>BOND
     1    27    26   ar
     2    28    26   ar
     3    26    25    1
     4    25    24    1
     5    24    21    1
     6    32    31   ar
     7    31    34   ar
     8    31    30    1
     9    21    22    1
    10    21    20    1
    11    29    22   am
    12    29    30    1
    13    22    23    2
    14    20    13   am
    15    30    33    1
    16    13    14    2
    17    13    12    1
    18     9     8    2
    19    12    15    1
    20    12    11    1
    21    15    16    1
    22     8    11   am
    23     8     7    1
    24     5     2    1
    25    16    17    1
    26     6     7    1
    27     6     3   am
    28    19    17   am
    29     2     3    1
    30     2     1    1
    31     7    10    1
    32    17    18    2
    33     3     4    2
