@<TRIPOS>MOLECULE
1d0k_DGL_A_1.pdb
 10 9 0 0 0
SMALL
GASTEIGER

@<TRIPOS>ATOM
      1  N          0.5230   29.1940   13.9970 N.3   404  DGL404     -0.1208
      2  CA         0.7100   30.5700   14.4420 C.3   404  DGL404      0.1949
      3  C         -0.0170   31.5410   13.5100 C.2   404  DGL404      0.3819
      4  O          0.2550   32.7600   13.5940 O.co2 404  DGL404     -0.2441
      5  CB         0.2040   30.7180   15.8820 C.3   404  DGL404      0.0424
      6  CG         0.6210   32.0070   16.5810 C.3   404  DGL404      0.1161
      7  CD         0.4430   31.9390   18.0860 C.2   404  DGL404      0.3649
      8  OE1       -0.7170   31.9080   18.5520 O.co2 404  DGL404     -0.2457
      9  OE2        1.4680   31.9120   18.8030 O.co2 404  DGL404     -0.2457
     10  OXT       -0.8320   31.0710   12.6830 O.co2 404  DGL404     -0.2441
@<TRIPOS>BOND
     1    10     3   ar
     2     3     4   ar
     3     3     2    1
     4     1     2    1
     5     2     5    1
     6     5     6    1
     7     6     7    1
     8     7     8   ar
     9     7     9   ar
