@<TRIPOS>MOLECULE
1d0k_AMU_A_1.pdb
 19 19 0 0 0
SMALL
GASTEIGER

@<TRIPOS>ATOM
      1  C1         3.5590   20.9770   11.2300 C.3   402  AMU402      0.2916
      2  C2         3.3790   22.4600   11.4890 C.3   402  AMU402      0.1839
      3  C3         4.6630   23.3320   11.4760 C.3   402  AMU402      0.1733
      4  C4         5.7100   22.6510   12.3600 C.3   402  AMU402      0.2103
      5  C5         5.8820   21.1620   11.8890 C.3   402  AMU402      0.1834
      6  C6         6.8850   20.3870   12.7220 C.3   402  AMU402      0.2142
      7  C7         1.3720   23.5640   10.5100 C.2   402  AMU402      0.2420
      8  C8         0.8060   24.0140    9.1770 C.3   402  AMU402      0.0964
      9  C9         3.9540   25.6660   11.1410 C.3   402  AMU402      0.1795
     10  C10        2.8190   26.5540   11.6350 C.2   402  AMU402      0.2366
     11  C11        5.2120   26.4790   10.8640 C.3   402  AMU402      0.0406
     12  O1         2.3570   20.3500   11.6340 O.3   402  AMU402     -0.1879
     13  O3         4.1740   24.5600   12.0270 O.3   402  AMU402     -0.3462
     14  O4         6.9560   23.3490   12.3590 O.3   402  AMU402     -0.2178
     15  O5         4.6350   20.4850   11.9990 O.3   402  AMU402     -0.3242
     16  O6         6.2590   20.0150   13.9380 O.3   402  AMU402     -0.2176
     17  O7         0.7900   23.7330   11.5830 O.2   402  AMU402     -0.2733
     18  O10        2.4070   27.4850   10.9450 O.2   402  AMU402     -0.2856
     19  N2         2.5660   22.9940   10.4140 N.am  402  AMU402     -0.1993
@<TRIPOS>BOND
     1     8     7    1
     2    19     7   am
     3    19     2    1
     4     7    17    2
     5    11     9    1
     6    18    10    2
     7     9    10    1
     8     9    13    1
     9     1     2    1
    10     1    12    1
    11     1    15    1
    12     3     2    1
    13     3    13    1
    14     3     4    1
    15     5    15    1
    16     5     4    1
    17     5     6    1
    18    14     4    1
    19     6    16    1
