@<TRIPOS>MOLECULE
1d0k_NAG_A_1.pdb
 14 14 0 0 0
SMALL
GASTEIGER

@<TRIPOS>ATOM
      1  C1         7.1450   23.9070   13.6700 C.3   401  NAG401      0.1665
      2  C2         8.6500   24.0830   13.9970 C.3   401  NAG401      0.1576
      3  C3         8.8780   24.7850   15.3380 C.3   401  NAG401      0.2069
      4  C4         8.0160   26.0360   15.4580 C.3   401  NAG401      0.2134
      5  C5         6.5430   25.7730   15.0950 C.3   401  NAG401      0.1809
      6  C6         5.8330   27.1300   15.0270 C.3   401  NAG401      0.2141
      7  C7        10.2670   22.3650   13.2480 C.2   401  NAG401      0.2420
      8  C8        10.8470   21.0000   13.5630 C.3   401  NAG401      0.0964
      9  N2         9.3390   22.8110   14.0890 N.am  401  NAG401     -0.2019
     10  O3        10.2310   25.1640   15.4920 O.3   401  NAG401     -0.2184
     11  O4         8.0750   26.4720   16.7810 O.3   401  NAG401     -0.2176
     12  O5         6.4670   25.1640   13.8000 O.3   401  NAG401     -0.3489
     13  O6         4.4900   27.0220   15.4630 O.3   401  NAG401     -0.2176
     14  O7        10.6410   23.0000   12.2610 O.2   401  NAG401     -0.2733
@<TRIPOS>BOND
     1    14     7    2
     2     7     8    1
     3     7     9   am
     4     1    12    1
     5     1     2    1
     6    12     5    1
     7     2     9    1
     8     2     3    1
     9     6     5    1
    10     6    13    1
    11     5     4    1
    12     3     4    1
    13     3    10    1
    14     4    11    1
