@<TRIPOS>MOLECULE
1d0l_BLG_A_1.pdb
 35 36 0 0 0
SMALL
GASTEIGER

@<TRIPOS>ATOM
      1  C1         7.5730   23.7940   13.4880 C.3   401  BLG401      0.2585
      2  C2         9.0640   24.0500   13.7740 C.3   401  BLG401      0.1842
      3  C3         9.2150   25.0660   14.9270 C.3   401  BLG401      0.2085
      4  C4         8.3440   26.3100   14.6710 C.3   401  BLG401      0.2048
      5  C5         6.8720   25.9170   14.3800 C.3   401  BLG401      0.1826
      6  O5         6.8570   25.0120   13.2780 O.3   401  BLG401     -0.3263
      7  O1         7.4870   22.9790   12.3230 O.3   401  BLG401     -0.3301
      8  N2         9.6960   22.7840   14.0940 N.am  401  BLG401     -0.1992
      9  C7        10.6460   22.2620   13.3250 C.2   401  BLG401      0.2420
     10  O7        11.0740   22.8220   12.3140 O.2   401  BLG401     -0.2733
     11  C8        11.2530   20.9350   13.7170 C.3   401  BLG401      0.0964
     12  O3        10.5510   25.4850   15.1350 O.3   401  BLG401     -0.2183
     13  O4         8.4100   27.1340   15.8230 O.3   401  BLG401     -0.2384
     14  S4         8.8950   28.6370   15.6410 S.3   401  BLG401     -0.0001
     15  O41       10.2760   28.6670   15.2100 O.2   401  BLG401     -0.3452
     16  O42        8.7130   29.3040   16.9220 O.3   401  BLG401     -0.2682
     17  O43        8.0780   29.2880   14.6160 O.2   401  BLG401     -0.3452
     18  C6         5.8750   27.0530   14.0520 C.3   401  BLG401      0.2142
     19  O6         6.1490   27.6020   12.7690 O.3   401  BLG401     -0.2176
     20  CA         6.5230   21.0780   11.4190 C.3   401  BLG401      0.1333
     21  CB         6.2340   22.3890   12.0940 C.3   401  BLG401      0.1382
     22  CG         5.4000   23.0840   11.0370 C.3   401  BLG401      0.0579
     23  CD         4.3980   21.9760   10.7490 C.3   401  BLG401      0.1530
     24  N          5.2280   20.7050   10.8650 N.3   401  BLG401     -0.2064
     25  C9         7.0250   19.9890   12.3610 C.3   401  BLG401      0.2018
     26  O9         6.0220   19.6590   13.3090 O.3   401  BLG401     -0.2188
     27  C10        3.7550   22.0640    9.3550 C.2   401  BLG401      0.2573
     28  O10        4.4220   21.7950    8.3520 O.2   401  BLG401     -0.2718
     29  N3         2.4870   22.4670    9.2960 N.am  401  BLG401     -0.2025
     30  C11        1.7320   22.6240    8.0540 C.3   401  BLG401      0.1366
     31  C12        0.3050   22.1230    8.1660 C.3   401  BLG401      0.1286
     32  S          0.1890   20.3060    8.2400 S.3   401  BLG401     -0.1942
     33  OS1       -0.7720   19.8250    7.2480 O.3   401  BLG401     -0.3074
     34  OS2        1.4680   19.6720    7.9210 O.3   401  BLG401     -0.3074
     35  OS3       -0.2250   19.8830    9.5790 O.3   401  BLG401     -0.3074
@<TRIPOS>BOND
     1    33    32    1
     2    34    32    1
     3    30    31    1
     4    30    29    1
     5    31    32    1
     6    32    35    1
     7    28    27    2
     8    29    27   am
     9    27    23    1
    10    23    24    1
    11    23    22    1
    12    24    20    1
    13    22    21    1
    14    20    21    1
    15    20    25    1
    16    21     7    1
    17    10     9    2
    18     7     1    1
    19    25    26    1
    20    19    18    1
    21     6     1    1
    22     6     5    1
    23     9    11    1
    24     9     8   am
    25     1     2    1
    26     2     8    1
    27     2     3    1
    28    18     5    1
    29     5     4    1
    30    17    14    2
    31     4     3    1
    32     4    13    1
    33     3    12    1
    34    15    14    2
    35    14    13    1
    36    14    16    1
