@<TRIPOS>MOLECULE
1d0m_NAG_A_1.pdb
 14 14 0 0 0
SMALL
GASTEIGER

@<TRIPOS>ATOM
      1  C1         2.2730   15.1920    9.4520 C.3   405  NAG405      0.1665
      2  C2         2.9350   16.3500    8.6760 C.3   405  NAG405      0.1576
      3  C3         3.8940   17.2250    9.5260 C.3   405  NAG405      0.2069
      4  C4         3.1510   17.6730   10.8330 C.3   405  NAG405      0.2134
      5  C5         2.5490   16.3890   11.5580 C.3   405  NAG405      0.1809
      6  C6         1.7040   16.7120   12.7850 C.3   405  NAG405      0.2141
      7  C7         3.6000   16.0780    6.3130 C.2   405  NAG405      0.2420
      8  C8         4.4920   15.3960    5.3280 C.3   405  NAG405      0.0964
      9  N2         3.7270   15.7760    7.6010 N.am  405  NAG405     -0.2019
     10  O3         4.3780   18.3540    8.7860 O.3   405  NAG405     -0.2184
     11  O4         3.9710   18.4250   11.7050 O.3   405  NAG405     -0.2176
     12  O5         1.6860   15.6770   10.6650 O.3   405  NAG405     -0.3489
     13  O6         0.8400   17.8030   12.5140 O.3   405  NAG405     -0.2176
     14  O7         2.7940   16.9080    5.8920 O.2   405  NAG405     -0.2733
@<TRIPOS>BOND
     1     8     7    1
     2    14     7    2
     3     7     9   am
     4     9     2    1
     5     2     1    1
     6     2     3    1
     7    10     3    1
     8     1    12    1
     9     3     4    1
    10    12     5    1
    11     4     5    1
    12     4    11    1
    13     5     6    1
    14    13     6    1
