@<TRIPOS>MOLECULE
1d0m_BLG_A_1.pdb
 35 36 0 0 0
SMALL
GASTEIGER

@<TRIPOS>ATOM
      1  C1         7.5140   23.7290   13.4850 C.3   401  BLG401      0.2585
      2  C2         8.9700   23.9900   13.7830 C.3   401  BLG401      0.1842
      3  C3         9.1220   24.9930   14.9090 C.3   401  BLG401      0.2085
      4  C4         8.2800   26.2320   14.6230 C.3   401  BLG401      0.2048
      5  C5         6.8050   25.8430   14.3180 C.3   401  BLG401      0.1826
      6  O5         6.7970   24.9210   13.2410 O.3   401  BLG401     -0.3263
      7  O1         7.4520   22.9140   12.3450 O.3   401  BLG401     -0.3301
      8  N2         9.5750   22.7270   14.1160 N.am  401  BLG401     -0.1992
      9  C7        10.5790   22.1770   13.4380 C.2   401  BLG401      0.2420
     10  O7        11.1170   22.7200   12.4750 O.2   401  BLG401     -0.2733
     11  C8        11.0920   20.8490   13.8920 C.3   401  BLG401      0.0964
     12  O3        10.4730   25.3690   15.0620 O.3   401  BLG401     -0.2183
     13  O4         8.3270   27.0950   15.7280 O.3   401  BLG401     -0.2384
     14  S4         8.7570   28.5940   15.5520 S.3   401  BLG401     -0.0001
     15  O41       10.1490   28.6390   15.2040 O.2   401  BLG401     -0.3452
     16  O42        8.5730   29.2880   16.8250 O.3   401  BLG401     -0.2682
     17  O43        7.9950   29.2420   14.4970 O.2   401  BLG401     -0.3452
     18  C6         5.8970   27.0200   13.9240 C.3   401  BLG401      0.2142
     19  O6         6.1730   27.4570   12.6020 O.3   401  BLG401     -0.2176
     20  CA         6.6330   20.9930   11.4280 C.3   401  BLG401      0.1333
     21  CB         6.2370   22.2570   12.1390 C.3   401  BLG401      0.1382
     22  CG         5.2990   22.9190   11.1030 C.3   401  BLG401      0.0579
     23  CD         4.4310   21.7020   10.7500 C.3   401  BLG401      0.1530
     24  N          5.3830   20.5300   10.8460 N.3   401  BLG401     -0.2064
     25  C9         7.2210   19.9180   12.3370 C.3   401  BLG401      0.2018
     26  O9         6.2710   19.5210   13.3100 O.3   401  BLG401     -0.2188
     27  C10        3.8290   21.7160    9.3570 C.2   401  BLG401      0.2573
     28  O10        4.5070   21.5250    8.3440 O.2   401  BLG401     -0.2718
     29  N3         2.5270   21.9650    9.3230 N.am  401  BLG401     -0.2025
     30  C11        1.7380   22.0330    8.1000 C.3   401  BLG401      0.1366
     31  C12        0.3640   21.4420    8.3090 C.3   401  BLG401      0.1286
     32  S          0.0730   19.9940    7.2520 S.3   401  BLG401     -0.1942
     33  OS1       -1.3410   19.9170    6.9060 O.3   401  BLG401     -0.3074
     34  OS2        0.7740   20.0550    5.9750 O.3   401  BLG401     -0.3074
     35  OS3        0.4680   18.8320    8.0300 O.3   401  BLG401     -0.3074
@<TRIPOS>BOND
     1    34    32    1
     2    33    32    1
     3    32    35    1
     4    32    31    1
     5    30    31    1
     6    30    29    1
     7    28    27    2
     8    29    27   am
     9    27    23    1
    10    23    24    1
    11    23    22    1
    12    24    20    1
    13    22    21    1
    14    20    21    1
    15    20    25    1
    16    21     7    1
    17    25    26    1
    18     7     1    1
    19    10     9    2
    20    19    18    1
    21     6     1    1
    22     6     5    1
    23     9    11    1
    24     9     8   am
    25     1     2    1
    26     2     8    1
    27     2     3    1
    28    18     5    1
    29     5     4    1
    30    17    14    2
    31     4     3    1
    32     4    13    1
    33     3    12    1
    34    15    14    2
    35    14    13    1
    36    14    16    1
