@<TRIPOS>MOLECULE
1d0o_INE_A_1.pdb
 13 14 0 0 0
SMALL
GASTEIGER

@<TRIPOS>ATOM
      1  N1         5.5220   11.6560   30.5800 N.2   760  INE760     -0.1498
      2  N2         6.1740   11.1760   29.4600 N.2   760  INE760     -0.1452
      3  C3         7.5720   11.1640   29.8180 C.2   760  INE760      0.1239
      4  C4         8.7110   11.8250   31.9840 C.2   760  INE760     -0.0138
      5  C5         8.5060   12.3130   33.2560 C.2   760  INE760     -0.0021
      6  C6         7.2470   12.6080   33.6920 C.2   760  INE760      0.0251
      7  C7         6.1600   12.4260   32.8680 C.2   760  INE760      0.1587
      8  C8         6.3590   11.9220   31.5520 C.2   760  INE760      0.1127
      9  C9         7.6200   11.6300   31.1170 C.3   760  INE760      0.1139
     10  N10        4.9360   12.7190   33.3000 N.pl3 760  INE760      0.0589
     11  O11        4.7840   13.1540   34.4230 O.2   760  INE760     -0.1261
     12  O12        3.9370   12.5640   32.5830 O.2   760  INE760     -0.1261
     13 BR          8.9750   10.6880   28.8220 Br    760  INE760     -0.0302
@<TRIPOS>BOND
     1    13     3    1
     2     2     3    2
     3     2     1    1
     4     3     9    1
     5     1     8    2
     6     9     8    1
     7     9     4    1
     8     8     7    1
     9     4     5    2
    10    12    10    2
    11     7    10    1
    12     7     6    2
    13     5     6    1
    14    10    11    2
