@<TRIPOS>MOLECULE
1d0o_HEM_A_1.pdb
 43 50 0 0 0
SMALL
GASTEIGER

@<TRIPOS>ATOM
      1  CHA        9.3510    8.9670   35.2050 C.2   500  HEM500      0.0000
      2  CHB        4.7910    9.2690   33.7670 C.2   500  HEM500      0.0000
      3  CHC        6.2690    7.7150   29.4490 C.2   500  HEM500      0.0000
      4  CHD       10.7040    6.9200   31.0420 C.2   500  HEM500      0.0000
      5  C1A        8.0050    9.3210   35.1520 C.2   500  HEM500      0.0000
      6  C2A        7.2550   10.0630   36.1680 C.2   500  HEM500      0.0000
      7  C3A        5.9840   10.1000   35.7660 C.2   500  HEM500      0.0000
      8  C4A        5.9290    9.4220   34.4940 C.2   500  HEM500      0.0000
      9  CMA        4.8500   10.7280   36.5570 C.3   500  HEM500      0.0000
     10  CAA        7.6300   10.6480   37.5330 C.3   500  HEM500      0.0000
     11  CBA        8.3580   11.9770   37.6020 C.3   500  HEM500      0.0000
     12  CGA        9.8170   11.8520   37.2300 C.2   500  HEM500      0.0000
     13  O1A       10.4780   10.8960   37.6970 O.co2 500  HEM500      0.0000
     14  O2A       10.3080   12.7060   36.4640 O.co2 500  HEM500      0.0000
     15  C1B        4.7870    8.7240   32.5010 C.ar  500  HEM500      0.0000
     16  C2B        3.6290    8.7540   31.6410 C.ar  500  HEM500      0.0000
     17  C3B        4.0180    8.3150   30.4150 C.ar  500  HEM500      0.0000
     18  C4B        5.4460    8.0510   30.5330 C.ar  500  HEM500      0.0000
     19  CMB        2.2310    9.2050   32.0140 C.3   500  HEM500      0.0000
     20  CAB        3.1950    8.1870   29.2780 C.2   500  HEM500      0.0000
     21  CBB        3.3050    7.2270   28.3160 C.2   500  HEM500      0.0000
     22  C1C        7.6100    7.3850   29.4890 C.2   500  HEM500      0.0000
     23  C2C        8.3890    6.9570   28.3420 C.2   500  HEM500      0.0000
     24  C3C        9.6670    6.6940   28.7620 C.2   500  HEM500      0.0000
     25  C4C        9.6150    6.9960   30.2010 C.2   500  HEM500      0.0000
     26  CMC        7.7910    6.8380   26.9510 C.3   500  HEM500      0.0000
     27  CAC       10.7850    6.1650   28.0790 C.2   500  HEM500      0.0000
     28  CBC       10.8190    5.4480   26.9270 C.2   500  HEM500      0.0000
     29  C1D       10.6910    7.3310   32.3490 C.ar  500  HEM500      0.0000
     30  C2D       11.8980    7.4800   33.1440 C.ar  500  HEM500      0.0000
     31  C3D       11.5210    8.1650   34.2420 C.ar  500  HEM500      0.0000
     32  C4D       10.0980    8.3840   34.1770 C.ar  500  HEM500      0.0000
     33  CMD       13.3250    6.9850   32.8830 C.3   500  HEM500      0.0000
     34  CAD       12.4390    8.5510   35.3930 C.3   500  HEM500      0.0000
     35  CBD       12.9400    9.9810   35.4040 C.3   500  HEM500      0.0000
     36  CGD       13.8370   10.2700   36.5930 C.2   500  HEM500      0.0000
     37  O1D       14.8120    9.5150   36.8110 O.co2 500  HEM500      0.0000
     38  O2D       13.5640   11.2550   37.3060 O.co2 500  HEM500      0.0000
     39  NA         7.1750    8.9550   34.1000 N.2   500  HEM500      0.0000
     40  NB         5.9090    8.2420   31.8380 N.ar  500  HEM500      0.0000
     41  NC         8.3510    7.3880   30.6260 N.2   500  HEM500      0.0000
     42  ND         9.5650    7.8740   32.9830 N.ar  500  HEM500      0.0000
     43 FE          7.6820    7.8500   32.4710 Fe    500  HEM500      0.0000
@<TRIPOS>BOND
     1    28    27    2
     2    26    23    1
     3    27    24    1
     4    21    20    2
     5    23    24    2
     6    23    22    1
     7    24    25    1
     8    20    17    1
     9     3    22    2
    10     3    18    1
    11    22    41    1
    12    25    41    2
    13    25     4    1
    14    17    18   ar
    15    17    16   ar
    16    18    40   ar
    17    41    43    1
    18     4    29    2
    19    16    19    1
    20    16    15   ar
    21    40    43    1
    22    40    15   ar
    23    29    42   ar
    24    29    30   ar
    25    43    42    1
    26    43    39    1
    27    15     2    1
    28    33    30    1
    29    42    32   ar
    30    30    31   ar
    31     2     8    2
    32    39     8    1
    33    39     5    2
    34    32    31   ar
    35    32     1    2
    36    31    34    1
    37     8     7    1
    38     5     1    1
    39     5     6    1
    40    34    35    1
    41    35    36    1
    42     7     6    2
    43     7     9    1
    44     6    10    1
    45    14    12   ar
    46    36    37   ar
    47    36    38   ar
    48    12    11    1
    49    12    13   ar
    50    10    11    1
