@<TRIPOS>MOLECULE
1d0s_DMD_A_1.pdb
 11 12 0 0 0
SMALL
GASTEIGER

@<TRIPOS>ATOM
      1  N3        56.7500   41.6980   14.4410 N.2   999  DMD999     -0.2428
      2  N1        57.4150   41.1780   12.3790 N.2   999  DMD999     -0.2428
      3  C2        56.5630   40.9320   13.3470 C.3   999  DMD999      0.2508
      4  C7A       58.2390   42.2100   12.8740 C.ar  999  DMD999      0.0951
      5  C3A       57.8100   42.5460   14.1350 C.ar  999  DMD999      0.0951
      6  C4        58.4610   43.5390   14.8560 C.ar  999  DMD999      0.0157
      7  C5        59.5490   44.2100   14.3020 C.ar  999  DMD999     -0.0242
      8  C6        59.9830   43.8870   13.0090 C.ar  999  DMD999     -0.0242
      9  C7        59.3270   42.8820   12.3000 C.ar  999  DMD999      0.0157
     10  C8        60.2480   45.3160   15.0820 C.3   999  DMD999      0.0307
     11  C9        61.1710   44.6270   12.4110 C.3   999  DMD999      0.0307
@<TRIPOS>BOND
     1     9     4   ar
     2     9     8   ar
     3     2     4    2
     4     2     3    1
     5    11     8    1
     6     4     5   ar
     7     8     7   ar
     8     3     1    1
     9     5     1    2
    10     5     6   ar
    11     7     6   ar
    12     7    10    1
