@<TRIPOS>MOLECULE
1d0v_RBZ_A_1.pdb
 24 26 0 0 0
SMALL
GASTEIGER

@<TRIPOS>ATOM
      1  N3        56.3820   41.5250   14.1250 N.2   990  RBZ990     -0.2468
      2  N1        56.7690   40.9080   11.9840 N.pl3 990  RBZ990     -0.2620
      3  C2        56.0050   40.7620   13.0850 C.3   990  RBZ990      0.2217
      4  C7A       57.7610   41.8370   12.4060 C.2   990  RBZ990      0.0644
      5  C3A       57.5060   42.2240   13.7100 C.2   990  RBZ990      0.0904
      6  C4        58.3130   43.1720   14.3530 C.2   990  RBZ990      0.0118
      7  C5        59.4140   43.6980   13.6940 C.2   990  RBZ990     -0.0386
      8  C6        59.7000   43.2890   12.3730 C.3   990  RBZ990      0.0416
      9  C7        58.8810   42.3600   11.7360 C.2   990  RBZ990     -0.0063
     10  C8        60.3030   44.7380   14.3850 C.3   990  RBZ990      0.0267
     11  C9        60.8940   43.8800   11.6410 C.3   990  RBZ990      0.0091
     12  P         59.6100   39.3980    6.0860 P.3   990  RBZ990      0.5327
     13  O1P       59.2730   38.1200    5.3920 O.3   990  RBZ990     -0.1145
     14  O2P       59.8060   40.5630    5.1960 O.2   990  RBZ990     -0.2224
     15  O3P       60.6100   39.1940    7.1470 O.3   990  RBZ990     -0.1145
     16  O5'       58.3630   39.7350    7.0530 O.3   990  RBZ990     -0.2675
     17  C5'       57.8170   38.7410    7.9720 C.3   990  RBZ990      0.1859
     18  C4'       58.2310   39.0830    9.3880 C.3   990  RBZ990      0.1801
     19  O4'       57.7290   40.3960    9.7960 O.3   990  RBZ990     -0.3326
     20  C3'       57.7310   38.1530   10.4610 C.3   990  RBZ990      0.2158
     21  O3'       58.4610   38.2640   11.6750 O.3   990  RBZ990     -0.2175
     22  C2'       56.3420   38.7690   10.6490 C.3   990  RBZ990      0.2309
     23  O2'       55.8500   38.3330   11.9300 O.3   990  RBZ990     -0.2158
     24  C1'       56.6080   40.2700   10.6480 C.3   990  RBZ990      0.2275
@<TRIPOS>BOND
     1    14    12    2
     2    13    12    1
     3    12    16    1
     4    12    15    1
     5    16    17    1
     6    17    18    1
     7    18    19    1
     8    18    20    1
     9    19    24    1
    10    20    22    1
    11    20    21    1
    12    24    22    1
    13    24     2    1
    14    22    23    1
    15    11     8    1
    16     9     8    1
    17     9     4    2
    18     2     4    1
    19     2     3    1
    20     8     7    1
    21     4     5    1
    22     3     1    1
    23     7     6    2
    24     7    10    1
    25     5     1    2
    26     5     6    1
