@<TRIPOS>MOLECULE
1d0x_MNQ_A_1.pdb
 25 23 0 0 0
SMALL
GASTEIGER

@<TRIPOS>ATOM
      1 BE         32.5820   58.3440   23.0790 Be    999  MNQ999      0.0000
      2  F1        31.3430   57.5020   23.3260 F     999  MNQ999      0.0000
      3  F2        32.2650   59.3750   21.9710 F     999  MNQ999      0.0000
      4  F3        33.2000   59.0520   24.3390 F     999  MNQ999      0.0000
      5  PB        34.0750   56.7990   21.0340 P.3   999  MNQ999      0.0000
      6  OB1       33.5650   55.4260   20.8860 O.3   999  MNQ999      0.0000
      7  OB2       33.6100   57.8140   19.9680 O.2   999  MNQ999      0.0000
      8  OB3       33.7440   57.4050   22.4880 O.3   999  MNQ999      0.0000
      9  OA3       35.6830   56.7850   20.9910 O.3   999  MNQ999      0.0000
     10  PA        36.6680   57.5400   20.0190 P.3   999  MNQ999      0.0000
     11  OA1       36.2520   57.2810   18.5620 O.2   999  MNQ999     -0.5000
     12  OA2       36.7110   58.9750   20.3800 O.3   999  MNQ999     -0.5000
     13  OE2       38.0140   56.7780   20.2010 O.3   999  MNQ999      0.0000
     14  NA3       41.1550   57.2210   22.0010 N.pl3 999  MNQ999      0.0000
     15  CA2       40.1380   56.4780   21.1700 C.3   999  MNQ999      0.0000
     16  CA1       38.6920   56.7900   21.4490 C.3   999  MNQ999      0.0000
     17  C1        42.4020   56.7270   21.5470 C.ar  999  MNQ999      0.0000
     18  C6        43.6840   57.1640   22.0010 C.ar  999  MNQ999      0.0000
     19  C5        44.8530   56.5300   21.3790 C.ar  999  MNQ999      0.0000
     20  C4        44.7310   55.7700   20.2800 C.ar  999  MNQ999      0.0000
     21  C3        43.4140   55.3830   19.8530 C.ar  999  MNQ999      0.0000
     22  C2        42.3120   55.9090   20.4570 C.ar  999  MNQ999      0.0000
     23  N3        43.0570   54.5430   18.7510 N.pl3 999  MNQ999      0.0000
     24  O3A       41.8410   54.3540   18.4770 O.2   999  MNQ999      0.0000
     25  O3B       43.9800   53.8880   18.0530 O.2   999  MNQ999      0.0000
@<TRIPOS>BOND
     1    25    23    2
     2    24    23    2
     3    11    10    2
     4    23    21    1
     5    21    20   ar
     6    21    22   ar
     7     7     5    2
     8    10    13    1
     9    10    12    1
    10    10     9    1
    11    13    16    1
    12    20    19   ar
    13    22    17   ar
    14     6     5    1
    15     9     5    1
    16     5     8    1
    17    15    16    1
    18    15    14    1
    19    19    18   ar
    20    17    14    1
    21    17    18   ar
    22     3     1    1
    23     1     2    1
