@<TRIPOS>MOLECULE
1d0y_ONP_A_1.pdb
 25 23 0 0 0
SMALL
GASTEIGER

@<TRIPOS>ATOM
      1 BE         32.5420   58.1800   23.0430 Be    999  ONP999      0.0000
      2  F1        31.3080   57.3370   23.2180 F     999  ONP999      0.0000
      3  F2        32.2540   59.1850   21.9770 F     999  ONP999      0.0000
      4  F3        33.0190   58.8880   24.2930 F     999  ONP999      0.0000
      5  PB        34.0660   56.6710   21.0680 P.3   999  ONP999      0.0000
      6  OB1       33.6080   55.2660   20.8520 O.3   999  ONP999      0.0000
      7  OB2       33.6320   57.6310   19.9560 O.2   999  ONP999      0.0000
      8  OB3       33.7010   57.2060   22.5430 O.3   999  ONP999      0.0000
      9  OA3       35.6790   56.6510   21.0480 O.3   999  ONP999      0.0000
     10  PA        36.6840   57.3510   20.0650 P.3   999  ONP999      0.0000
     11  OA1       36.3000   57.0650   18.5730 O.2   999  ONP999     -0.5000
     12  OA2       36.6850   58.8020   20.3700 O.3   999  ONP999     -0.5000
     13  OE2       38.1520   56.7180   20.2500 O.3   999  ONP999      0.0000
     14  NA3       40.7080   56.0570   20.4050 N.pl3 999  ONP999      0.0000
     15  CA2       40.2020   56.9010   21.4500 C.3   999  ONP999      0.0000
     16  CA1       38.7070   56.7030   21.5490 C.3   999  ONP999      0.0000
     17  C1        42.1190   56.1080   20.3550 C.ar  999  ONP999      0.0000
     18  C6        42.7940   56.8190   21.2910 C.ar  999  ONP999      0.0000
     19  C5        44.2090   56.8630   21.2480 C.ar  999  ONP999      0.0000
     20  C4        44.9340   56.1780   20.2830 C.ar  999  ONP999      0.0000
     21  C3        44.2220   55.3900   19.3570 C.ar  999  ONP999      0.0000
     22  C2        42.8320   55.3730   19.3940 C.ar  999  ONP999      0.0000
     23  N2        42.0650   54.5630   18.4270 N.pl3 999  ONP999      0.0000
     24  O2A       42.7370   53.8830   17.6570 O.2   999  ONP999      0.0000
     25  O2B       40.7880   54.6060   18.5180 O.2   999  ONP999      0.0000
@<TRIPOS>BOND
     1    24    23    2
     2    23    25    2
     3    23    22    1
     4    11    10    2
     5    21    22   ar
     6    21    20   ar
     7    22    17   ar
     8     7     5    2
     9    10    13    1
    10    10    12    1
    11    10     9    1
    12    13    16    1
    13    20    19   ar
    14    17    14    1
    15    17    18   ar
    16    14    15    1
    17     6     5    1
    18     9     5    1
    19     5     8    1
    20    19    18   ar
    21    15    16    1
    22     3     1    1
    23     1     2    1
