@<TRIPOS>MOLECULE
1d0z_PNQ_A_1.pdb
 25 23 0 0 0
SMALL
GASTEIGER

@<TRIPOS>ATOM
      1 BE         32.7280   58.2810   23.0260 Be    999  PNQ999      0.0000
      2  F1        31.4790   57.4700   23.3580 F     999  PNQ999      0.0000
      3  F2        33.3040   58.9010   24.2950 F     999  PNQ999      0.0000
      4  F3        32.4280   59.2850   21.9030 F     999  PNQ999      0.0000
      5  PB        34.2160   56.7220   20.9970 P.3   999  PNQ999      0.0000
      6  OB1       33.6820   55.3650   20.8420 O.3   999  PNQ999      0.0000
      7  OB2       33.7150   57.6640   19.9570 O.2   999  PNQ999      0.0000
      8  OB3       33.9610   57.3390   22.4640 O.3   999  PNQ999      0.0000
      9  OA3       35.8070   56.6020   20.8950 O.3   999  PNQ999      0.0000
     10  PA        36.8330   57.4180   19.9720 P.3   999  PNQ999      0.0000
     11  OA1       36.4780   57.2280   18.4990 O.2   999  PNQ999     -0.5000
     12  OA2       36.8070   58.8280   20.3470 O.3   999  PNQ999     -0.5000
     13  OE2       38.2980   56.7880   20.1620 O.3   999  PNQ999      0.0000
     14  NA3       40.7540   56.2750   20.7900 N.pl3 999  PNQ999      0.0000
     15  CA2       40.0520   56.9630   21.6960 C.3   999  PNQ999      0.0000
     16  CA1       38.5810   56.5780   21.5280 C.3   999  PNQ999      0.0000
     17  C1        42.2040   56.2100   20.8920 C.ar  999  PNQ999      0.0000
     18  C6        42.8800   57.0090   21.8500 C.ar  999  PNQ999      0.0000
     19  C5        44.2770   57.0350   21.8840 C.ar  999  PNQ999      0.0000
     20  C4        44.9710   56.2440   20.9470 C.ar  999  PNQ999      0.0000
     21  C3        44.2870   55.4760   20.0040 C.ar  999  PNQ999      0.0000
     22  C2        42.9090   55.4890   19.9240 C.ar  999  PNQ999      0.0000
     23  N4        46.4630   56.2770   20.8650 N.pl3 999  PNQ999      0.0000
     24  O4A       47.0700   55.5810   20.0790 O.2   999  PNQ999      0.0000
     25  O4B       47.1000   56.8960   21.6450 O.2   999  PNQ999      0.0000
@<TRIPOS>BOND
     1    11    10    2
     2    22    21   ar
     3    22    17   ar
     4     7     5    2
     5    10    13    1
     6    10    12    1
     7    10     9    1
     8    21    20   ar
     9    24    23    2
    10    13    16    1
    11    14    17    1
    12    14    15    1
    13     6     5    1
    14    23    20    1
    15    23    25    2
    16    17    18   ar
    17     9     5    1
    18    20    19   ar
    19     5     8    1
    20    16    15    1
    21    18    19   ar
    22     1     2    1
    23     1     3    1
