@<TRIPOS>MOLECULE
1d1a_DAE_A_1.pdb
 28 26 0 0 0
SMALL
GASTEIGER

@<TRIPOS>ATOM
      1 BE         32.8680   58.3480   22.9990 Be    999  DAE999      0.0000
      2  F1        31.6150   57.4990   23.2260 F     999  DAE999      0.0000
      3  F2        32.6180   59.4240   21.9700 F     999  DAE999      0.0000
      4  F3        33.3780   58.9910   24.2780 F     999  DAE999      0.0000
      5  PB        34.2860   56.7590   21.0010 P.3   999  DAE999      0.0000
      6  OB1       33.7130   55.3950   20.8220 O.3   999  DAE999      0.0000
      7  OB2       33.6970   57.7890   20.0560 O.2   999  DAE999      0.0000
      8  OB3       34.0330   57.3820   22.4590 O.3   999  DAE999      0.0000
      9  OA3       35.8630   56.6500   20.8350 O.3   999  DAE999      0.0000
     10  PA        36.9090   57.4650   19.9400 P.3   999  DAE999      0.0000
     11  OA1       36.5600   57.2980   18.4570 O.2   999  DAE999     -0.5000
     12  OA2       36.8700   58.9180   20.2500 O.3   999  DAE999     -0.5000
     13  OE2       38.3280   56.8090   20.3530 O.3   999  DAE999      0.0000
     14  NA3       41.3770   56.0430   20.4290 N.pl3 999  DAE999      0.0000
     15  CA2       40.6060   57.0290   21.2000 C.3   999  DAE999      0.0000
     16  CA1       39.4740   57.6680   20.4170 C.3   999  DAE999      0.0000
     17  C1        42.8110   56.1840   20.5650 C.ar  999  DAE999      0.0000
     18  C6        43.3470   57.1170   21.4610 C.ar  999  DAE999      0.0000
     19  C5        44.7290   57.2670   21.5880 C.ar  999  DAE999      0.0000
     20  C4        45.5890   56.4630   20.8290 C.ar  999  DAE999      0.0000
     21  C3        45.0610   55.5260   19.9460 C.ar  999  DAE999      0.0000
     22  C2        43.6810   55.3810   19.8030 C.ar  999  DAE999      0.0000
     23  N4        47.0710   56.5940   20.9400 N.pl3 999  DAE999      0.0000
     24  O4A       47.8060   55.8860   20.2640 O.2   999  DAE999      0.0000
     25  O4B       47.6060   57.4030   21.7090 O.2   999  DAE999      0.0000
     26  N2        43.1440   54.3660   18.8400 N.pl3 999  DAE999      0.0000
     27  O2A       41.9110   54.2300   18.6900 O.2   999  DAE999      0.0000
     28  O2B       43.9290   53.6540   18.1800 O.2   999  DAE999      0.0000
@<TRIPOS>BOND
     1    28    26    2
     2    11    10    2
     3    27    26    2
     4    26    22    1
     5    22    21   ar
     6    22    17   ar
     7    10    12    1
     8    10    13    1
     9    10     9    1
    10    21    20   ar
    11     7     5    2
    12    24    23    2
    13    13    16    1
    14    16    15    1
    15    14    17    1
    16    14    15    1
    17    17    18   ar
    18     6     5    1
    19    20    23    1
    20    20    19   ar
    21     9     5    1
    22    23    25    2
    23     5     8    1
    24    18    19   ar
    25     3     1    1
    26     1     4    1
