@<TRIPOS>MOLECULE
1d1b_DAQ_A_1.pdb
 29 27 0 0 0
SMALL
GASTEIGER

@<TRIPOS>ATOM
      1 BE         32.6220   58.3470   23.0060 Be    999  DAQ999      0.0000
      2  F1        31.3350   57.5630   23.3130 F     999  DAQ999      0.0000
      3  F2        33.1350   58.9660   24.2760 F     999  DAQ999      0.0000
      4  F3        32.3810   59.4400   22.0230 F     999  DAQ999      0.0000
      5  PB        34.1950   56.8360   21.0090 P.3   999  DAQ999      0.0000
      6  OB1       33.6590   55.4910   20.9360 O.3   999  DAQ999      0.0000
      7  OB2       33.6310   57.8190   19.9810 O.2   999  DAQ999      0.0000
      8  OB3       33.8400   57.4890   22.4660 O.3   999  DAQ999      0.0000
      9  OA3       35.7830   56.7560   20.9200 O.3   999  DAQ999      0.0000
     10  PA        36.8800   57.5880   20.0640 P.3   999  DAQ999      0.0000
     11  OA1       36.4900   57.4370   18.5630 O.2   999  DAQ999     -0.5000
     12  OA2       36.8630   59.0360   20.3110 O.3   999  DAQ999     -0.5000
     13  OE2       38.3840   57.0420   20.4400 O.3   999  DAQ999      0.0000
     14  NA3       42.2220   56.4350   21.0140 N.pl3 999  DAQ999      0.0000
     15  CA2       40.0680   56.6650   22.2630 C.3   999  DAQ999      0.0000
     16  CA1       38.8500   57.4010   21.7710 C.3   999  DAQ999      0.0000
     17  C1        43.6550   56.5580   21.0320 C.ar  999  DAQ999      0.0000
     18  C6        44.2290   57.5300   21.8230 C.ar  999  DAQ999      0.0000
     19  C5        45.6100   57.7320   21.7870 C.ar  999  DAQ999      0.0000
     20  C4        46.4150   56.9140   21.0040 C.ar  999  DAQ999      0.0000
     21  C3        45.8280   55.9350   20.2240 C.ar  999  DAQ999      0.0000
     22  C2        44.4400   55.7230   20.2590 C.ar  999  DAQ999      0.0000
     23  N4        47.8790   57.1620   21.0110 N.pl3 999  DAQ999      0.0000
     24  O4A       48.3080   58.0470   21.7860 O.2   999  DAQ999      0.0000
     25  O4B       48.6250   56.3660   20.3880 O.2   999  DAQ999      0.0000
     26  N2        43.8040   54.5960   19.4350 N.pl3 999  DAQ999      0.0000
     27  O2A       42.6060   54.4460   19.4140 O.2   999  DAQ999      0.0000
     28  O2B       44.4690   53.8060   18.6720 O.2   999  DAQ999      0.0000
     29  CA3       41.3960   57.2910   21.8480 C.3   999  DAQ999      0.0000
@<TRIPOS>BOND
     1    11    10    2
     2    28    26    2
     3    27    26    2
     4    26    22    1
     5     7     5    2
     6    10    12    1
     7    10    13    1
     8    10     9    1
     9    21    22   ar
    10    21    20   ar
    11    22    17   ar
    12    25    23    2
    13    13    16    1
    14     9     5    1
    15     6     5    1
    16    20    23    1
    17    20    19   ar
    18     5     8    1
    19    23    24    2
    20    14    17    1
    21    14    29    1
    22    17    18   ar
    23    16    15    1
    24    19    18   ar
    25    29    15    1
    26     4     1    1
    27     1     3    1
