@<TRIPOS>MOLECULE
1d1c_NMQ_A_1.pdb
 26 24 0 0 0
SMALL
GASTEIGER

@<TRIPOS>ATOM
      1 BE         32.6610   58.4390   22.9210 Be    999  NMQ999      0.0000
      2  F1        31.3750   57.6480   23.1590 F     999  NMQ999      0.0000
      3  F2        32.4660   59.4860   21.8350 F     999  NMQ999      0.0000
      4  F3        33.1580   59.1290   24.1530 F     999  NMQ999      0.0000
      5  PB        34.1630   56.9160   21.0470 P.3   999  NMQ999      0.0000
      6  OB1       33.5680   55.5440   20.8590 O.3   999  NMQ999      0.0000
      7  OB2       33.6280   57.9340   20.0450 O.2   999  NMQ999      0.0000
      8  OB3       33.8130   57.4130   22.5180 O.3   999  NMQ999      0.0000
      9  OA3       35.7550   56.8370   20.9180 O.3   999  NMQ999      0.0000
     10  PA        36.7830   57.4030   19.8240 P.3   999  NMQ999      0.0000
     11  OA1       36.3910   57.0400   18.3920 O.2   999  NMQ999     -0.5000
     12  OA2       36.8740   58.8540   19.9450 O.3   999  NMQ999     -0.5000
     13  OE2       38.1760   56.7320   20.1870 O.3   999  NMQ999      0.0000
     14  NA3       40.7570   56.0630   20.5050 N.pl3 999  NMQ999      0.0000
     15  CA2       40.3840   57.4310   20.5450 C.3   999  NMQ999      0.0000
     16  CA1       38.9870   57.4810   21.1210 C.3   999  NMQ999      0.0000
     17  C1        42.0840   56.0090   20.5280 C.ar  999  NMQ999      0.0000
     18  C6        42.6750   55.4490   19.3650 C.ar  999  NMQ999      0.0000
     19  C5        44.0460   55.3420   19.3410 C.ar  999  NMQ999      0.0000
     20  C4        44.8620   55.7410   20.4510 C.ar  999  NMQ999      0.0000
     21  C3        44.2720   56.2070   21.6100 C.ar  999  NMQ999      0.0000
     22  C2        42.8590   56.3530   21.6300 C.ar  999  NMQ999      0.0000
     23  N2        42.2440   56.8390   22.8620 N.pl3 999  NMQ999      0.0000
     24  O2A       42.9710   57.1270   23.7820 O.2   999  NMQ999      0.0000
     25  O2B       41.0480   56.8690   23.0000 O.2   999  NMQ999      0.0000
     26  CA3       40.3280   55.4170   19.3420 C.3   999  NMQ999      0.0000
@<TRIPOS>BOND
     1    11    10    2
     2    19    18   ar
     3    19    20   ar
     4    26    14    1
     5    18    17   ar
     6    10    12    1
     7    10    13    1
     8    10     9    1
     9     7     5    2
    10    13    16    1
    11    20    21   ar
    12    14    17    1
    13    14    15    1
    14    17    22   ar
    15    15    16    1
    16     6     5    1
    17     9     5    1
    18     5     8    1
    19    21    22   ar
    20    22    23    1
    21     3     1    1
    22    23    25    2
    23    23    24    2
    24     1     4    1
