@<TRIPOS>MOLECULE
1d1g_NDP_A_1.pdb
 48 52 0 0 0
SMALL
GASTEIGER

@<TRIPOS>ATOM
      1  PA        22.4500   45.4510   51.5200 P.3   170  NDP170      0.2189
      2  O1A       21.0290   45.7010   51.8280 O.3   170  NDP170     -0.4371
      3  O2A       22.8230   46.1550   50.3410 O.2   170  NDP170     -0.5170
      4  O5B       23.3820   46.0670   52.6730 O.3   170  NDP170     -0.3112
      5  C5B       24.7950   45.8620   52.7400 C.3   170  NDP170      0.1813
      6  C4B       25.3110   46.7810   53.8190 C.3   170  NDP170      0.1820
      7  O4B       24.4970   46.8850   54.9670 O.3   170  NDP170     -0.3136
      8  C3B       26.7440   46.6880   54.1730 C.3   170  NDP170      0.2157
      9  O3B       27.6000   47.3390   53.2240 O.3   170  NDP170     -0.2175
     10  C2B       26.7650   47.3710   55.5170 C.3   170  NDP170      0.2314
     11  O2B       26.7350   48.8150   55.3970 O.3   170  NDP170     -0.2630
     12  C1B       25.3740   47.0360   56.0900 C.3   170  NDP170      0.3158
     13  N9A       25.2760   45.8470   56.9950 N.pl3 170  NDP170     -0.1439
     14  C8A       24.9350   44.5370   56.7380 C.3   170  NDP170      0.3377
     15  N7A       24.9600   43.8020   57.8160 N.2   170  NDP170     -0.2095
     16  C5A       25.3330   44.6630   58.8200 C.2   170  NDP170      0.2526
     17  C6A       25.5410   44.5010   60.2290 C.2   170  NDP170      0.4393
     18  N6A       25.3780   43.3310   60.8370 N.pl3 170  NDP170      0.2180
     19  N1A       25.9190   45.5950   60.9730 N.2   170  NDP170      0.0021
     20  C2A       26.0860   46.7880   60.3810 C.3   170  NDP170      0.5254
     21  N3A       25.9090   47.0200   59.0670 N.2   170  NDP170     -0.0055
     22  C4A       25.5280   45.8930   58.3510 C.2   170  NDP170      0.3518
     23  O3        22.8780   43.9910   51.1740 O.3   170  NDP170     -0.2703
     24  PN        23.2880   43.3710   49.6930 P.3   170  NDP170      0.2189
     25  O1N       23.9390   42.0980   49.9810 O.3   170  NDP170     -0.4371
     26  O2N       24.0980   44.4220   48.9930 O.2   170  NDP170     -0.5170
     27  O5D       21.9480   43.2620   48.7740 O.3   170  NDP170     -0.3112
     28  C5D       21.2520   44.4110   48.1750 C.3   170  NDP170      0.1813
     29  C4D       20.7230   44.0230   46.7740 C.3   170  NDP170      0.1799
     30  O4D       19.5790   43.1900   46.8960 O.3   170  NDP170     -0.3327
     31  C3D       20.2620   45.1560   45.8270 C.3   170  NDP170      0.2158
     32  O3D       20.4990   44.8790   44.5080 O.3   170  NDP170     -0.2175
     33  C2D       18.7780   45.2890   46.0430 C.3   170  NDP170      0.2309
     34  O2D       18.0640   45.7020   44.9070 O.3   170  NDP170     -0.2158
     35  C1D       18.4150   43.8340   46.3970 C.3   170  NDP170      0.2263
     36  N1N       17.2550   43.6860   47.2790 N.pl3 170  NDP170     -0.2787
     37  C2N       16.2660   42.8540   46.7120 C.3   170  NDP170      0.1244
     38  C3N       15.0910   42.6070   47.4740 C.2   170  NDP170      0.0544
     39  C7N       14.0260   41.7440   46.9480 C.2   170  NDP170      0.2818
     40  O7N       13.0210   41.4950   47.5790 O.2   170  NDP170     -0.2670
     41  N7N       14.1230   41.1800   45.7230 N.am  170  NDP170     -0.0839
     42  C4N       14.9830   43.2070   48.7420 C.2   170  NDP170      0.0033
     43  C5N       15.9520   44.0210   49.2690 C.2   170  NDP170      0.0157
     44  C6N       17.0920   44.2590   48.5400 C.2   170  NDP170      0.0633
     45  P2B       28.0300   49.7660   55.4780 P.3   170  NDP170      0.5328
     46  O1X       28.8070   49.4220   56.6840 O.3   170  NDP170     -0.1145
     47  O2X       28.6590   49.4550   54.2010 O.2   170  NDP170     -0.2224
     48  O3X       27.4320   51.0980   55.4830 O.3   170  NDP170     -0.1145
@<TRIPOS>BOND
     1    32    31    1
     2    34    33    1
     3    41    39   am
     4    31    33    1
     5    31    29    1
     6    33    35    1
     7    35    30    1
     8    35    36    1
     9    37    36    1
    10    37    38    1
    11    29    30    1
    12    29    28    1
    13    39    38    1
    14    39    40    2
    15    36    44    1
    16    38    42    2
    17    28    27    1
    18    44    43    2
    19    42    43    1
    20    27    24    1
    21    26    24    2
    22    24    25    1
    23    24    23    1
    24     3     1    2
    25    23     1    1
    26     1     2    1
    27     1     4    1
    28     4     5    1
    29     5     6    1
    30     9     8    1
    31     6     8    1
    32     6     7    1
    33     8    10    1
    34    47    45    2
    35     7    12    1
    36    11    45    1
    37    11    10    1
    38    45    48    1
    39    45    46    1
    40    10    12    1
    41    12    13    1
    42    14    13    1
    43    14    15    1
    44    13    22    1
    45    15    16    2
    46    22    16    1
    47    22    21    2
    48    16    17    1
    49    21    20    1
    50    17    18    1
    51    17    19    2
    52    20    19    1
