@<TRIPOS>MOLECULE
1d1g_MTX_A_1.pdb
 33 35 0 0 0
SMALL
GASTEIGER

@<TRIPOS>ATOM
      1  N1         9.0630   43.1530   47.3760 N.2   171  MTX171     -0.2684
      2  C2         9.0100   42.2080   48.4220 C.1   171  MTX171      0.2519
      3  NA2        7.9670   41.3240   48.3880 N.pl3 171  MTX171     -0.0226
      4  N3         9.9520   42.2070   49.3940 N.2   171  MTX171     -0.3033
      5  C4        11.0340   43.0590   49.5290 C.2   171  MTX171      0.2728
      6  NA4       11.9200   43.0240   50.4850 N.pl3 171  MTX171     -0.0887
      7  C4A       11.1070   44.0540   48.4650 C.2   171  MTX171      0.2518
      8  N5        12.1170   44.9880   48.4590 N.2   171  MTX171     -0.3917
      9  C6        12.1270   45.8850   47.4450 C.2   171  MTX171      0.1330
     10  C7        11.0930   45.7920   46.4500 C.3   171  MTX171      0.1930
     11  N8        10.1500   44.9990   46.3630 N.2   171  MTX171     -0.1998
     12  C8A       10.1090   44.0600   47.4130 C.1   171  MTX171      0.1314
     13  C9        13.2860   46.9100   47.5510 C.3   171  MTX171      0.1481
     14  N10       12.9470   48.1160   46.9570 N.pl3 171  MTX171     -0.2999
     15  CM        13.9180   48.4070   45.8200 C.3   171  MTX171      0.1125
     16  C11        9.7280   50.8230   47.8090 C.ar  171  MTX171      0.0551
     17  C12       10.6270   51.0810   46.7450 C.ar  171  MTX171      0.0058
     18  C13       11.7100   50.3790   46.2980 C.ar  171  MTX171      0.0147
     19  C14       11.9380   49.0770   47.1600 C.ar  171  MTX171      0.0482
     20  C15       10.9310   48.8490   48.3000 C.ar  171  MTX171      0.0147
     21  C16        9.9290   49.6310   48.6030 C.ar  171  MTX171      0.0058
     22  C          8.7850   51.7140   47.9580 C.2   171  MTX171      0.2652
     23  O          8.4370   52.7830   47.4220 O.2   171  MTX171     -0.2684
     24  N          7.7950   51.6850   48.8130 N.am  171  MTX171     -0.1918
     25  CA         6.4510   51.7800   48.9500 C.3   171  MTX171      0.1986
     26  CT         6.0590   51.3910   50.3600 C.2   171  MTX171      0.3842
     27  O1         6.1210   50.3740   50.9930 O.co2 171  MTX171     -0.2437
     28  O2         5.5340   52.4970   50.9810 O.co2 171  MTX171     -0.2437
     29  CB         5.4230   50.8700   48.1730 C.3   171  MTX171      0.0451
     30  CG         4.1850   51.4520   47.6450 C.3   171  MTX171      0.1164
     31  CD         3.5760   51.7000   46.1220 C.2   171  MTX171      0.3649
     32  OE1        4.2410   51.4290   44.9550 O.co2 171  MTX171     -0.2457
     33  OE2        2.4850   52.1450   46.7270 O.co2 171  MTX171     -0.2457
@<TRIPOS>BOND
     1    32    31   ar
     2    15    14    1
     3    31    33   ar
     4    31    30    1
     5    18    17   ar
     6    18    19   ar
     7    11    10    1
     8    11    12    2
     9    10     9    1
    10    17    16   ar
    11    14    19    1
    12    14    13    1
    13    19    20   ar
    14     1    12    2
    15     1     2    2
    16    12     7    1
    17    23    22    2
    18     9    13    1
    19     9     8    2
    20    30    29    1
    21    16    22    1
    22    16    21   ar
    23    22    24   am
    24    29    25    1
    25    20    21   ar
    26     3     2    1
    27     2     4    2
    28     8     7    2
    29     7     5    1
    30    24    25    1
    31    25    26    1
    32     4     5    2
    33     5     6    1
    34    26    28   ar
    35    26    27   ar
