@<TRIPOS>MOLECULE
1d1i_GLA_A_1.pdb
 11 11 0 0 0
SMALL
GASTEIGER

@<TRIPOS>ATOM
      1  C1        -2.6140   -0.7000  -23.3860 C.3   170  GLA170      0.1777
      2  C2        -1.6250   -1.8740  -23.4120 C.3   170  GLA170      0.2141
      3  C3        -2.0860   -2.9790  -24.3680 C.3   170  GLA170      0.2173
      4  C4        -3.5240   -3.3920  -24.0320 C.3   170  GLA170      0.2142
      5  C5        -4.4440   -2.1540  -24.0030 C.3   170  GLA170      0.1810
      6  C6        -5.8710   -2.4570  -23.5780 C.3   170  GLA170      0.2141
      7  O2        -0.3320   -1.4180  -23.7850 O.3   170  GLA170     -0.2176
      8  O3        -1.2230   -4.1050  -24.2460 O.3   170  GLA170     -0.2175
      9  O4        -3.5500   -4.0670  -22.7770 O.3   170  GLA170     -0.2176
     10  O5        -3.9320   -1.1560  -23.0890 O.3   170  GLA170     -0.3481
     11  O6        -6.5450   -1.2780  -23.1650 O.3   170  GLA170     -0.2176
@<TRIPOS>BOND
     1     3     8    1
     2     3     4    1
     3     3     2    1
     4     4     5    1
     5     4     9    1
     6     5     6    1
     7     5    10    1
     8     7     2    1
     9     6    11    1
    10     2     1    1
    11     1    10    1
