@<TRIPOS>MOLECULE
1d1i_GAL_A_1.pdb
 12 12 0 0 0
SMALL
GASTEIGER

@<TRIPOS>ATOM
      1  C1        -2.1390    2.6490  -26.9450 C.3   171  GAL171      0.3024
      2  C2        -3.2250    1.5860  -27.1050 C.3   171  GAL171      0.2434
      3  C3        -4.0800    1.4930  -25.8340 C.3   171  GAL171      0.2199
      4  C4        -3.1900    1.3180  -24.5940 C.3   171  GAL171      0.2144
      5  C5        -2.1400    2.4310  -24.5670 C.3   171  GAL171      0.1836
      6  C6        -1.1770    2.3470  -23.3950 C.3   171  GAL171      0.2142
      7  O1        -1.2910    2.6140  -28.0460 O.3   171  GAL171     -0.1869
      8  O2        -4.0520    1.9200  -28.2110 O.3   171  GAL171     -0.2148
      9  O3        -4.9900    0.4060  -25.9380 O.3   171  GAL171     -0.2174
     10  O4        -2.5510    0.0180  -24.5950 O.3   171  GAL171     -0.2176
     11  O5        -1.3470    2.3990  -25.7750 O.3   171  GAL171     -0.3236
     12  O6        -0.3790    3.5180  -23.3140 O.3   171  GAL171     -0.2176
@<TRIPOS>BOND
     1     8     2    1
     2     7     1    1
     3     2     1    1
     4     2     3    1
     5     1    11    1
     6     9     3    1
     7     3     4    1
     8    11     5    1
     9    10     4    1
    10     4     5    1
    11     5     6    1
    12     6    12    1
