@<TRIPOS>MOLECULE
1d1k_GAL_A_1.pdb
 11 11 0 0 0
SMALL
GASTEIGER

@<TRIPOS>ATOM
      1  C1       -10.0770   10.9750  -24.1320 C.3   191  GAL191      0.1777
      2  C2        -8.6710   10.3820  -24.0630 C.3   191  GAL191      0.2141
      3  C3        -8.6820    9.1560  -23.1430 C.3   191  GAL191      0.2173
      4  C4        -9.2900    9.5160  -21.7790 C.3   191  GAL191      0.2142
      5  C5       -10.6480   10.1940  -21.9590 C.3   191  GAL191      0.1810
      6  C6       -11.2350   10.6870  -20.6470 C.3   191  GAL191      0.2141
      7  O2        -8.2470   10.0040  -25.3680 O.3   191  GAL191     -0.2176
      8  O3        -7.3560    8.6790  -22.9720 O.3   191  GAL191     -0.2175
      9  O4        -8.4130   10.4080  -21.0750 O.3   191  GAL191     -0.2176
     10  O5       -10.5170   11.3400  -22.8180 O.3   191  GAL191     -0.3481
     11  O6       -12.6540   10.6770  -20.6820 O.3   191  GAL191     -0.2176
@<TRIPOS>BOND
     1     7     2    1
     2     1     2    1
     3     1    10    1
     4     2     3    1
     5     3     8    1
     6     3     4    1
     7    10     5    1
     8     5     4    1
     9     5     6    1
    10     4     9    1
    11    11     6    1
