@<TRIPOS>MOLECULE
1d1k_GLA_A_1.pdb
 11 11 0 0 0
SMALL
GASTEIGER

@<TRIPOS>ATOM
      1  C1        -8.2190   10.1260  -19.7150 C.3   190  GLA190      0.1777
      2  C2        -7.6590   11.3670  -19.0250 C.3   190  GLA190      0.2141
      3  C3        -6.2700   11.6900  -19.5980 C.3   190  GLA190      0.2173
      4  C4        -5.3570   10.4640  -19.4720 C.3   190  GLA190      0.2142
      5  C5        -6.0310    9.2530  -20.1240 C.3   190  GLA190      0.1810
      6  C6        -5.2420    7.9530  -20.0190 C.3   190  GLA190      0.2141
      7  O2        -8.5420   12.4640  -19.2210 O.3   190  GLA190     -0.2176
      8  O3        -5.6970   12.7820  -18.8940 O.3   190  GLA190     -0.2175
      9  O4        -5.1160   10.1930  -18.0970 O.3   190  GLA190     -0.2176
     10  O5        -7.3280    9.0400  -19.5250 O.3   190  GLA190     -0.3481
     11  O6        -5.2620    7.4180  -18.7000 O.3   190  GLA190     -0.2176
@<TRIPOS>BOND
     1     5     6    1
     2     5    10    1
     3     5     4    1
     4     6    11    1
     5     1    10    1
     6     1     2    1
     7     3     4    1
     8     3     2    1
     9     3     8    1
    10     4     9    1
    11     7     2    1
