@<TRIPOS>MOLECULE
1d1p_EPE_A_1.pdb
 15 15 0 0 0
SMALL
GASTEIGER

@<TRIPOS>ATOM
      1  N1        -4.1490    2.2440   29.2940 N.3   201  EPE201     -0.2689
      2  C2        -4.7340    2.5950   28.0110 C.3   201  EPE201      0.0897
      3  C3        -6.0290    3.3870   28.3020 C.3   201  EPE201      0.0897
      4  N4        -6.9950    2.5910   29.1150 N.3   201  EPE201     -0.2681
      5  C5        -6.3200    2.1380   30.3750 C.3   201  EPE201      0.0897
      6  C6        -5.0370    1.3620   30.0780 C.3   201  EPE201      0.0897
      7  C7        -8.2130    3.4030   29.3810 C.3   201  EPE201      0.1081
      8  C8        -9.2680    2.7150   30.2100 C.3   201  EPE201      0.1993
      9  O8        -9.7770    1.4870   29.6800 O.3   201  EPE201     -0.2189
     10  C9        -2.7100    2.0330   29.4200 C.3   201  EPE201      0.0939
     11  C10       -2.0160    0.7880   28.9150 C.3   201  EPE201      0.1225
     12  S         -0.3250    1.0900   29.4660 S.3   201  EPE201     -0.1946
     13  O1S       -0.4120    1.8640   30.7390 O.3   201  EPE201     -0.3074
     14  O2S        0.3470   -0.1810   29.6400 O.3   201  EPE201     -0.3074
     15  O3S        0.2900    1.9030   28.4270 O.3   201  EPE201     -0.3074
@<TRIPOS>BOND
     1     2     3    1
     2     2     1    1
     3     3     4    1
     4    15    12    1
     5    11    10    1
     6    11    12    1
     7     4     7    1
     8     4     5    1
     9     1    10    1
    10     1     6    1
    11     7     8    1
    12    12    14    1
    13    12    13    1
    14     9     8    1
    15     6     5    1
