@<TRIPOS>MOLECULE
1d1q_4NP_A_1.pdb
 14 14 0 0 0
SMALL
GASTEIGER

@<TRIPOS>ATOM
      1  P          0.7860    2.9100   29.0260 P.3   401  4NP401      0.5887
      2  O1        -0.6960    3.1720   29.7590 O.3   401  4NP401     -0.3998
      3  O2         1.7280    3.6470   29.9540 O.3   401  4NP401     -0.1039
      4  O3         0.6700    3.4530   27.6060 O.2   401  4NP401     -0.2114
      5  O4         0.9490    1.4220   29.0420 O.3   401  4NP401     -0.1039
      6  C1        -1.9240    3.1360   29.1580 C.ar  401  4NP401      0.1491
      7  C2        -2.1950    2.1760   28.1570 C.ar  401  4NP401      0.0391
      8  C3        -3.4490    2.1510   27.5290 C.ar  401  4NP401      0.0272
      9  C4        -4.4310    3.0750   27.8990 C.ar  401  4NP401      0.1431
     10  C5        -4.2000    4.0330   28.8940 C.ar  401  4NP401      0.0272
     11  C6        -2.9450    4.0720   29.5300 C.ar  401  4NP401      0.0391
     12  N         -5.7500    3.0390   27.2130 N.pl3 401  4NP401      0.0577
     13  O5        -6.6790    3.6090   27.7490 O.2   401  4NP401     -0.1261
     14  O6        -5.8310    2.4560   26.1390 O.2   401  4NP401     -0.1261
@<TRIPOS>BOND
     1    14    12    2
     2    12    13    2
     3    12     9    1
     4     8     9   ar
     5     8     7   ar
     6     4     1    2
     7     9    10   ar
     8     7     6   ar
     9    10    11   ar
    10     1     5    1
    11     1     2    1
    12     1     3    1
    13     6    11   ar
    14     6     2    1
