@<TRIPOS>MOLECULE
1d1s_NAD_A_1.pdb
 44 48 0 0 0
SMALL
GASTEIGER

@<TRIPOS>ATOM
      1  PA        -1.8140    0.2540   24.6460 P.3   1377  NAD1377     0.2189
      2  O1A       -2.5560    1.5210   24.4140 O.3   1377  NAD1377    -0.4371
      3  O2A       -2.1510   -0.8320   23.6670 O.2   1377  NAD1377    -0.5170
      4  O5B       -2.2720   -0.4090   26.0750 O.3   1377  NAD1377    -0.3112
      5  C5B       -2.5940    0.4410   27.1610 C.3   1377  NAD1377     0.1813
      6  C4B       -3.5390   -0.4560   27.9500 C.3   1377  NAD1377     0.1821
      7  O4B       -3.7290    0.1720   29.2420 O.3   1377  NAD1377    -0.3135
      8  C3B       -4.8880   -0.6050   27.2190 C.3   1377  NAD1377     0.2184
      9  O3B       -5.3120   -1.9670   27.2700 O.3   1377  NAD1377    -0.2174
     10  C2B       -5.7340    0.2230   28.1970 C.3   1377  NAD1377     0.2570
     11  O2B       -7.0740   -0.2840   28.2350 O.3   1377  NAD1377    -0.2130
     12  C1B       -5.0750    0.0200   29.5690 C.3   1377  NAD1377     0.3186
     13  N9A       -5.4100    1.1030   30.4740 N.pl3 1377  NAD1377    -0.1439
     14  C8A       -5.2620    2.4710   30.3160 C.3   1377  NAD1377     0.3377
     15  N7A       -5.5890    3.1720   31.5000 N.2   1377  NAD1377    -0.2095
     16  C5A       -5.9420    2.1630   32.3820 C.2   1377  NAD1377     0.2526
     17  C6A       -6.0130    2.2440   33.7640 C.2   1377  NAD1377     0.4393
     18  N6A       -6.1220    3.3960   34.4090 N.pl3 1377  NAD1377     0.2180
     19  N1A       -5.9960    1.0650   34.5160 N.2   1377  NAD1377     0.0021
     20  C2A       -5.8800   -0.1630   33.8590 C.3   1377  NAD1377     0.5254
     21  N3A       -5.8050   -0.2550   32.4760 N.2   1377  NAD1377    -0.0055
     22  C4A       -5.8300    0.9390   31.7670 C.2   1377  NAD1377     0.3518
     23  O3        -0.3150    0.6560   24.6850 O.3   1377  NAD1377    -0.2703
     24  PN         1.0090   -0.1370   24.4000 P.3   1377  NAD1377     0.2189
     25  O1N        1.5320    0.0480   23.0100 O.2   1377  NAD1377    -0.5170
     26  O2N        1.1700   -1.5560   24.8380 O.3   1377  NAD1377    -0.4371
     27  O5D        1.9870    0.7730   25.3300 O.3   1377  NAD1377    -0.3112
     28  C5D        1.9560    0.8110   26.8210 C.3   1377  NAD1377     0.1813
     29  C4D        2.9130    1.8440   27.4330 C.3   1377  NAD1377     0.1799
     30  O4D        4.2710    1.4740   27.1710 O.3   1377  NAD1377    -0.3327
     31  C3D        2.7520    3.2020   26.7550 C.3   1377  NAD1377     0.2158
     32  O3D        2.8970    4.2400   27.7160 O.3   1377  NAD1377    -0.2175
     33  C2D        3.9050    3.2950   25.7750 C.3   1377  NAD1377     0.2309
     34  O2D        4.2450    4.6750   25.6020 O.3   1377  NAD1377    -0.2158
     35  C1D        4.9790    2.5740   26.6060 C.3   1377  NAD1377     0.2263
     36  N1N        6.0640    1.8980   25.8820 N.pl3 1377  NAD1377    -0.2787
     37  C2N        7.2860    1.9670   26.4220 C.3   1377  NAD1377     0.1244
     38  C3N        8.3380    1.2840   25.9020 C.2   1377  NAD1377     0.0544
     39  C7N        9.5630    1.3790   26.4990 C.2   1377  NAD1377     0.2818
     40  O7N       10.5630    0.8200   25.9840 O.2   1377  NAD1377    -0.2670
     41  N7N        9.6410    1.5160   27.8330 N.am  1377  NAD1377    -0.0839
     42  C4N        8.1390    0.5000   24.8020 C.2   1377  NAD1377     0.0033
     43  C5N        6.9110    0.4130   24.2320 C.2   1377  NAD1377     0.0157
     44  C6N        5.8530    1.1380   24.8010 C.2   1377  NAD1377     0.0633
@<TRIPOS>BOND
     1    25    24    2
     2     3     1    2
     3    43    44    2
     4    43    42    1
     5    24    23    1
     6    24    26    1
     7    24    27    1
     8     2     1    1
     9     1    23    1
    10     1     4    1
    11    44    36    1
    12    42    38    2
    13    27    28    1
    14    34    33    1
    15    33    35    1
    16    33    31    1
    17    36    37    1
    18    36    35    1
    19    38    37    1
    20    38    39    1
    21    40    39    2
    22     4     5    1
    23    39    41   am
    24    35    30    1
    25    31    29    1
    26    31    32    1
    27    28    29    1
    28     5     6    1
    29    30    29    1
    30     8     9    1
    31     8     6    1
    32     8    10    1
    33     6     7    1
    34    10    11    1
    35    10    12    1
    36     7    12    1
    37    12    13    1
    38    14    13    1
    39    14    15    1
    40    13    22    1
    41    15    16    2
    42    22    16    1
    43    22    21    2
    44    16    17    1
    45    21    20    1
    46    17    18    1
    47    17    19    2
    48    20    19    1
