@<TRIPOS>MOLECULE
1d1t_NAD_A_1.pdb
 44 48 0 0 0
SMALL
GASTEIGER

@<TRIPOS>ATOM
      1  PA        -1.4870    0.2420   24.4000 P.3   1377  NAD1377     0.2189
      2  O1A       -2.5450    1.2740   24.1310 O.3   1377  NAD1377    -0.4371
      3  O2A       -1.7290   -0.9170   23.4910 O.2   1377  NAD1377    -0.5170
      4  O5B       -1.7220   -0.3650   25.8610 O.3   1377  NAD1377    -0.3112
      5  C5B       -2.2400    0.5410   26.8680 C.3   1377  NAD1377     0.1813
      6  C4B       -3.0980   -0.4260   27.6690 C.3   1377  NAD1377     0.1821
      7  O4B       -3.2190    0.1370   28.9770 O.3   1377  NAD1377    -0.3135
      8  C3B       -4.4740   -0.6190   26.9900 C.3   1377  NAD1377     0.2184
      9  O3B       -4.8960   -1.9790   27.1260 O.3   1377  NAD1377    -0.2174
     10  C2B       -5.3020    0.2660   27.9260 C.3   1377  NAD1377     0.2570
     11  O2B       -6.6290   -0.2610   28.0190 O.3   1377  NAD1377    -0.2130
     12  C1B       -4.5770    0.0590   29.2740 C.3   1377  NAD1377     0.3186
     13  N9A       -4.9500    1.0890   30.2240 N.pl3 1377  NAD1377    -0.1439
     14  C8A       -4.8990    2.4790   30.1410 C.3   1377  NAD1377     0.3377
     15  N7A       -5.2810    3.1080   31.3310 N.2   1377  NAD1377    -0.2095
     16  C5A       -5.5770    2.0280   32.1530 C.2   1377  NAD1377     0.2526
     17  C6A       -5.6320    2.0350   33.5510 C.2   1377  NAD1377     0.4393
     18  N6A       -5.7340    3.1330   34.3010 N.pl3 1377  NAD1377     0.2180
     19  N1A       -5.5040    0.8210   34.2010 N.2   1377  NAD1377     0.0021
     20  C2A       -5.2900   -0.3700   33.4970 C.3   1377  NAD1377     0.5254
     21  N3A       -5.2300   -0.3820   32.1040 N.2   1377  NAD1377    -0.0055
     22  C4A       -5.3610    0.8470   31.4810 C.2   1377  NAD1377     0.3518
     23  O3        -0.0750    0.7690   24.2330 O.3   1377  NAD1377    -0.2703
     24  PN         1.2390   -0.0210   24.2180 P.3   1377  NAD1377     0.2189
     25  O1N        1.8800    0.0340   22.8860 O.2   1377  NAD1377    -0.5170
     26  O2N        1.1960   -1.4560   24.5780 O.3   1377  NAD1377    -0.4371
     27  O5D        2.2500    0.8270   25.1520 O.3   1377  NAD1377    -0.3112
     28  C5D        2.1010    0.9570   26.6910 C.3   1377  NAD1377     0.1813
     29  C4D        3.1490    1.8750   27.3400 C.3   1377  NAD1377     0.1799
     30  O4D        4.4910    1.4100   27.0340 O.3   1377  NAD1377    -0.3327
     31  C3D        3.0760    3.2770   26.7290 C.3   1377  NAD1377     0.2158
     32  O3D        3.3420    4.2530   27.7290 O.3   1377  NAD1377    -0.2175
     33  C2D        4.1950    3.3040   25.7130 C.3   1377  NAD1377     0.2309
     34  O2D        4.6350    4.6590   25.5560 O.3   1377  NAD1377    -0.2158
     35  C1D        5.2580    2.4850   26.4840 C.3   1377  NAD1377     0.2263
     36  N1N        6.3210    1.8010   25.7170 N.pl3 1377  NAD1377    -0.2787
     37  C2N        7.5380    1.9250   26.1920 C.3   1377  NAD1377     0.1244
     38  C3N        8.6090    1.3250   25.6490 C.2   1377  NAD1377     0.0544
     39  C7N        9.8490    1.4850   26.2530 C.2   1377  NAD1377     0.2818
     40  O7N       10.9430    1.0490   25.8000 O.2   1377  NAD1377    -0.2670
     41  N7N        9.8210    1.4600   27.5910 N.am  1377  NAD1377    -0.0839
     42  C4N        8.4120    0.5640   24.5390 C.2   1377  NAD1377     0.0033
     43  C5N        7.1770    0.4190   23.9960 C.2   1377  NAD1377     0.0157
     44  C6N        6.1150    1.0640   24.6320 C.2   1377  NAD1377     0.0633
@<TRIPOS>BOND
     1    25    24    2
     2     3     1    2
     3    43    42    1
     4    43    44    2
     5     2     1    1
     6    24    23    1
     7    24    26    1
     8    24    27    1
     9    23     1    1
    10     1     4    1
    11    42    38    2
    12    44    36    1
    13    27    28    1
    14    34    33    1
    15    38    37    1
    16    38    39    1
    17    33    35    1
    18    33    31    1
    19    36    37    1
    20    36    35    1
    21    40    39    2
    22     4     5    1
    23    39    41   am
    24    35    30    1
    25    28    29    1
    26    31    29    1
    27    31    32    1
    28     5     6    1
    29     8     9    1
    30     8     6    1
    31     8    10    1
    32    30    29    1
    33     6     7    1
    34    10    11    1
    35    10    12    1
    36     7    12    1
    37    12    13    1
    38    14    13    1
    39    14    15    1
    40    13    22    1
    41    15    16    2
    42    22    21    2
    43    22    16    1
    44    21    20    1
    45    16    17    1
    46    20    19    1
    47    17    19    2
    48    17    18    1
