@<TRIPOS>MOLECULE
1d1v_PTU_A_1.pdb
 12 12 0 0 0
SMALL
GASTEIGER

@<TRIPOS>ATOM
      1  N1         4.8170   12.0740   31.9490 N.2   810  PTU810     -0.1227
      2  C          6.2630   11.8960   31.6810 C.2   810  PTU810      0.2002
      3  S          6.7840   10.7150   30.4230 S.3   810  PTU810     -0.0766
      4  N2         7.1170   12.6390   32.4190 N.pl3 810  PTU810     -0.1874
      5  C1         8.4350   12.6140   32.7480 C.ar  810  PTU810      0.0726
      6  C2         9.0500   13.8530   33.0860 C.ar  810  PTU810      0.0166
      7  C3        10.4180   13.9130   33.4450 C.ar  810  PTU810      0.0013
      8  C4        11.1910   12.7340   33.4810 C.ar  810  PTU810      0.0001
      9  C5        10.6090   11.4870   33.1460 C.ar  810  PTU810      0.0013
     10  C6         9.2410   11.4210   32.7850 C.ar  810  PTU810      0.0166
     11  C1'        8.0620   11.4470   29.3710 C.3   810  PTU810      0.0650
     12  C2'        9.1260   10.4050   29.0580 C.3   810  PTU810      0.0130
@<TRIPOS>BOND
     1    12    11    1
     2    11     3    1
     3     3     2    1
     4     2     1    2
     5     2     4    1
     6     4     5    1
     7     5    10   ar
     8     5     6   ar
     9    10     9   ar
    10     6     7   ar
    11     9     8   ar
    12     7     8   ar
