@<TRIPOS>MOLECULE
1d1v_H4B_A_1.pdb
 17 18 0 0 0
SMALL
GASTEIGER

@<TRIPOS>ATOM
      1  N1         8.3080   11.7410   42.8980 N.2   700  H4B700     -0.2683
      2  C2         8.2450   12.0670   41.5840 C.1   700  H4B700      0.2608
      3  N2         7.4070   11.4850   40.7370 N.pl3 700  H4B700     -0.0220
      4  N3         9.0820   13.0370   41.1300 N.2   700  H4B700     -0.2474
      5  C4        10.0200   13.7340   41.9250 C.1   700  H4B700      0.2441
      6  O4        10.7250   14.5960   41.3920 O.2   700  H4B700     -0.2063
      7  C4A       10.0250   13.3380   43.2860 C.2   700  H4B700      0.2463
      8  C8A        9.1840   12.3490   43.7750 C.1   700  H4B700      0.1270
      9  N5        10.9750   14.0160   44.1730 N.2   700  H4B700     -0.2460
     10  N8         9.1800   11.9690   45.0580 N.2   700  H4B700     -0.2054
     11  C6        11.3510   13.2050   45.4150 C.3   700  H4B700      0.1627
     12  C7        10.0930   12.5860   46.0390 C.3   700  H4B700      0.1643
     13  C9        12.1530   14.1670   46.3350 C.3   700  H4B700      0.2063
     14  O9        11.4560   15.3620   46.6880 O.3   700  H4B700     -0.2183
     15  C10       12.6110   13.4720   47.6420 C.3   700  H4B700      0.1842
     16  C11       13.5630   14.3220   48.4240 C.3   700  H4B700      0.0383
     17  O10       13.2760   12.2790   47.1930 O.3   700  H4B700     -0.2204
@<TRIPOS>BOND
     1     3     2    1
     2     4     2    2
     3     4     5    2
     4     6     5    2
     5     2     1    2
     6     5     7    1
     7     1     8    2
     8     7     8    1
     9     7     9    2
    10     8    10    2
    11     9    11    1
    12    10    12    1
    13    11    12    1
    14    11    13    1
    15    13    14    1
    16    13    15    1
    17    17    15    1
    18    15    16    1
