@<TRIPOS>MOLECULE
1d1v_HEM_A_1.pdb
 43 50 0 0 0
SMALL
GASTEIGER

@<TRIPOS>ATOM
      1  CHA        9.2220    8.8800   35.3660 C.2   500  HEM500      0.0000
      2  CHB        4.6270    9.0300   33.7710 C.2   500  HEM500      0.0000
      3  CHC        6.1050    7.3170   29.4860 C.2   500  HEM500      0.0000
      4  CHD       10.5900    6.7130   31.2330 C.2   500  HEM500      0.0000
      5  C1A        7.8700    9.1990   35.2070 C.2   500  HEM500      0.0000
      6  C2A        7.1520   10.1190   36.0730 C.2   500  HEM500      0.0000
      7  C3A        5.8330   10.0640   35.7030 C.2   500  HEM500      0.0000
      8  C4A        5.7700    9.2160   34.5260 C.2   500  HEM500      0.0000
      9  CMA        4.6420   10.6540   36.4560 C.3   500  HEM500      0.0000
     10  CAA        7.7890   11.0740   37.1090 C.3   500  HEM500      0.0000
     11  CBA        8.2870   12.3360   36.4290 C.3   500  HEM500      0.0000
     12  CGA        8.7900   13.3820   37.4110 C.2   500  HEM500      0.0000
     13  O1A        8.3970   13.3340   38.6010 O.co2 500  HEM500      0.0000
     14  O2A        9.5640   14.2680   36.9820 O.co2 500  HEM500      0.0000
     15  C1B        4.6000    8.4080   32.5230 C.ar  500  HEM500      0.0000
     16  C2B        3.4370    8.4080   31.6630 C.ar  500  HEM500      0.0000
     17  C3B        3.8170    7.9100   30.4510 C.ar  500  HEM500      0.0000
     18  C4B        5.2480    7.6180   30.5670 C.ar  500  HEM500      0.0000
     19  CMB        2.0760    8.9450   32.0530 C.3   500  HEM500      0.0000
     20  CAB        2.9850    7.8420   29.3240 C.2   500  HEM500      0.0000
     21  CBB        3.0280    6.8950   28.3390 C.2   500  HEM500      0.0000
     22  C1C        7.4720    7.1130   29.5710 C.2   500  HEM500      0.0000
     23  C2C        8.2900    6.6440   28.4660 C.2   500  HEM500      0.0000
     24  C3C        9.5350    6.3470   28.9620 C.2   500  HEM500      0.0000
     25  C4C        9.4720    6.7070   30.3770 C.2   500  HEM500      0.0000
     26  CMC        7.8330    6.4980   27.0110 C.3   500  HEM500      0.0000
     27  CAC       10.6670    5.8220   28.3040 C.2   500  HEM500      0.0000
     28  CBC       10.6880    5.1680   27.1040 C.2   500  HEM500      0.0000
     29  C1D       10.5860    7.2020   32.5560 C.ar  500  HEM500      0.0000
     30  C2D       11.7580    7.3030   33.4060 C.ar  500  HEM500      0.0000
     31  C3D       11.3940    7.9570   34.5390 C.ar  500  HEM500      0.0000
     32  C4D        9.9710    8.1810   34.4190 C.ar  500  HEM500      0.0000
     33  CMD       13.1660    6.7750   33.1640 C.3   500  HEM500      0.0000
     34  CAD       12.3170    8.4010   35.6900 C.3   500  HEM500      0.0000
     35  CBD       13.1660    9.6150   35.3350 C.3   500  HEM500      0.0000
     36  CGD       13.9590   10.1560   36.5150 C.2   500  HEM500      0.0000
     37  O1D       14.5000    9.3490   37.2960 O.co2 500  HEM500      0.0000
     38  O2D       14.0560   11.3940   36.6530 O.co2 500  HEM500      0.0000
     39  NA         7.0360    8.6940   34.1990 N.2   500  HEM500      0.0000
     40  NB         5.7170    7.8790   31.8720 N.ar  500  HEM500      0.0000
     41  NC         8.1830    7.1380   30.7590 N.2   500  HEM500      0.0000
     42  ND         9.4530    7.6980   33.1960 N.ar  500  HEM500      0.0000
     43 FE          7.5180    7.5070   32.6500 Fe    500  HEM500      0.0000
@<TRIPOS>BOND
     1    26    23    1
     2    28    27    2
     3    27    24    1
     4    21    20    2
     5    23    24    2
     6    23    22    1
     7    24    25    1
     8    20    17    1
     9     3    22    2
    10     3    18    1
    11    22    41    1
    12    25    41    2
    13    25     4    1
    14    17    18   ar
    15    17    16   ar
    16    18    40   ar
    17    41    43    1
    18     4    29    2
    19    16    19    1
    20    16    15   ar
    21    40    15   ar
    22    40    43    1
    23    15     2    1
    24    29    42   ar
    25    29    30   ar
    26    43    42    1
    27    43    39    1
    28    33    30    1
    29    42    32   ar
    30    30    31   ar
    31     2     8    2
    32    39     8    1
    33    39     5    2
    34    32    31   ar
    35    32     1    2
    36     8     7    1
    37    31    34    1
    38     5     1    1
    39     5     6    1
    40    35    34    1
    41    35    36    1
    42     7     6    2
    43     7     9    1
    44     6    10    1
    45    11    10    1
    46    11    12    1
    47    36    38   ar
    48    36    37   ar
    49    14    12   ar
    50    12    13   ar
