@<TRIPOS>MOLECULE
1d1w_HEM_A_1.pdb
 43 50 0 0 0
SMALL
GASTEIGER

@<TRIPOS>ATOM
      1  CHA        9.0400    9.1110   34.6410 C.2   500  HEM500      0.0000
      2  CHB        4.3840    8.9560   33.3220 C.2   500  HEM500      0.0000
      3  CHC        5.7720    7.2660   29.0150 C.2   500  HEM500      0.0000
      4  CHD       10.3060    6.5780   30.7380 C.2   500  HEM500      0.0000
      5  C1A        7.6740    9.4120   34.5150 C.2   500  HEM500      0.0000
      6  C2A        6.9060   10.2050   35.4670 C.2   500  HEM500      0.0000
      7  C3A        5.5930   10.0260   35.2150 C.2   500  HEM500      0.0000
      8  C4A        5.5470    9.2270   34.0140 C.2   500  HEM500      0.0000
      9  CMA        4.4270   10.5430   36.0640 C.3   500  HEM500      0.0000
     10  CAA        7.4880   11.1290   36.5340 C.3   500  HEM500      0.0000
     11  CBA        7.8730   12.5050   36.0240 C.3   500  HEM500      0.0000
     12  CGA        8.5770   13.3440   37.0790 C.2   500  HEM500      0.0000
     13  O1A        8.1660   13.2940   38.2550 O.co2 500  HEM500      0.0000
     14  O2A        9.5330   14.0700   36.7310 O.co2 500  HEM500      0.0000
     15  C1B        4.3370    8.2480   32.1240 C.ar  500  HEM500      0.0000
     16  C2B        3.1590    8.2630   31.2890 C.ar  500  HEM500      0.0000
     17  C3B        3.5080    7.7920   30.0520 C.ar  500  HEM500      0.0000
     18  C4B        4.9420    7.4990   30.1310 C.ar  500  HEM500      0.0000
     19  CMB        1.7670    8.7100   31.7480 C.3   500  HEM500      0.0000
     20  CAB        2.6340    7.7830   28.9660 C.2   500  HEM500      0.0000
     21  CBB        2.5060    6.8550   27.9780 C.2   500  HEM500      0.0000
     22  C1C        7.1610    7.0790   29.0880 C.2   500  HEM500      0.0000
     23  C2C        7.9560    6.5880   27.9830 C.2   500  HEM500      0.0000
     24  C3C        9.2190    6.2960   28.4660 C.2   500  HEM500      0.0000
     25  C4C        9.1840    6.6290   29.8840 C.2   500  HEM500      0.0000
     26  CMC        7.4140    6.4000   26.5630 C.3   500  HEM500      0.0000
     27  CAC       10.3770    5.8500   27.7940 C.2   500  HEM500      0.0000
     28  CBC       10.4420    5.1940   26.6060 C.2   500  HEM500      0.0000
     29  C1D       10.3310    7.0940   32.0280 C.ar  500  HEM500      0.0000
     30  C2D       11.5510    7.2790   32.8090 C.ar  500  HEM500      0.0000
     31  C3D       11.1840    8.0190   33.8730 C.ar  500  HEM500      0.0000
     32  C4D        9.7540    8.2710   33.7720 C.ar  500  HEM500      0.0000
     33  CMD       12.9820    6.7910   32.5510 C.3   500  HEM500      0.0000
     34  CAD       12.1050    8.6150   34.9180 C.3   500  HEM500      0.0000
     35  CBD       12.6680    9.9430   34.4410 C.3   500  HEM500      0.0000
     36  CGD       13.3220   10.7190   35.5580 C.2   500  HEM500      0.0000
     37  O1D       14.0450   10.0990   36.3670 O.co2 500  HEM500      0.0000
     38  O2D       13.1230   11.9470   35.6290 O.co2 500  HEM500      0.0000
     39  NA         6.8340    8.8050   33.5960 N.2   500  HEM500      0.0000
     40  NB         5.4390    7.7340   31.4380 N.ar  500  HEM500      0.0000
     41  NC         7.9150    7.1090   30.2810 N.2   500  HEM500      0.0000
     42  ND         9.2220    7.6630   32.6490 N.ar  500  HEM500      0.0000
     43 FE          7.3080    7.5430   32.1190 Fe    500  HEM500      0.0000
@<TRIPOS>BOND
     1    26    23    1
     2    28    27    2
     3    27    24    1
     4    21    20    2
     5    23    24    2
     6    23    22    1
     7    24    25    1
     8    20    17    1
     9     3    22    2
    10     3    18    1
    11    22    41    1
    12    25    41    2
    13    25     4    1
    14    17    18   ar
    15    17    16   ar
    16    18    40   ar
    17    41    43    1
    18     4    29    2
    19    16    19    1
    20    16    15   ar
    21    40    43    1
    22    40    15   ar
    23    29    42   ar
    24    29    30   ar
    25    43    42    1
    26    43    39    1
    27    15     2    1
    28    33    30    1
    29    42    32   ar
    30    30    31   ar
    31     2     8    2
    32    39     8    1
    33    39     5    2
    34    32    31   ar
    35    32     1    2
    36    31    34    1
    37     8     7    1
    38    35    34    1
    39    35    36    1
    40     5     1    1
    41     5     6    1
    42     7     6    2
    43     7     9    1
    44     6    10    1
    45    36    38   ar
    46    36    37   ar
    47    11    10    1
    48    11    12    1
    49    14    12   ar
    50    12    13   ar
