@<TRIPOS>MOLECULE
1d1w_H4B_A_1.pdb
 17 18 0 0 0
SMALL
GASTEIGER

@<TRIPOS>ATOM
      1  N1         8.1380   11.6700   42.3930 N.2   600  H4B600     -0.2683
      2  C2         8.0650   12.0420   41.0910 C.1   600  H4B600      0.2608
      3  N2         7.2340   11.4760   40.2240 N.pl3 600  H4B600     -0.0220
      4  N3         8.8960   13.0280   40.6680 N.2   600  H4B600     -0.2474
      5  C4         9.8240   13.7130   41.4840 C.1   600  H4B600      0.2441
      6  O4        10.5220   14.5960   40.9760 O.2   600  H4B600     -0.2063
      7  C4A        9.8390   13.2660   42.8330 C.2   600  H4B600      0.2463
      8  C8A        9.0060   12.2580   43.2920 C.1   600  H4B600      0.1270
      9  N5        10.7790   13.9180   43.7490 N.2   600  H4B600     -0.2460
     10  N8         9.0090   11.8340   44.5640 N.2   600  H4B600     -0.2054
     11  C6        11.1580   13.0720   44.9740 C.3   600  H4B600      0.1627
     12  C7         9.9100   12.4170   45.5720 C.3   600  H4B600      0.1643
     13  C9        11.9490   14.0300   45.9100 C.3   600  H4B600      0.2063
     14  O9        11.2530   15.2310   46.2470 O.3   600  H4B600     -0.2183
     15  C10       12.4080   13.3480   47.2280 C.3   600  H4B600      0.1842
     16  C11       13.3550   14.2100   47.9980 C.3   600  H4B600      0.0383
     17  O10       13.0670   12.1480   46.8210 O.3   600  H4B600     -0.2204
@<TRIPOS>BOND
     1     3     2    1
     2     4     2    2
     3     4     5    2
     4     6     5    2
     5     2     1    2
     6     5     7    1
     7     1     8    2
     8     7     8    1
     9     7     9    2
    10     8    10    2
    11     9    11    1
    12    10    12    1
    13    11    12    1
    14    11    13    1
    15    13    14    1
    16    13    15    1
    17    17    15    1
    18    15    16    1
