@<TRIPOS>MOLECULE
1d1x_4BT_A_1.pdb
 18 18 0 0 0
SMALL
GASTEIGER

@<TRIPOS>ATOM
      1  CA         7.6840   10.2910   30.0500 C.3   830  4BT830      0.0699
      2  CB         8.8440   11.1970   29.5900 C.3   830  4BT830      0.0384
      3  C4         9.9180   13.7750   32.9450 C.ar  830  4BT830     -0.0213
      4  C5         9.4040   14.3450   31.7350 C.ar  830  4BT830     -0.0046
      5  C6         9.0540   13.5070   30.6550 C.ar  830  4BT830     -0.0046
      6  C1         9.2190   12.0990   30.7720 C.ar  830  4BT830     -0.0213
      7  C2         9.7180   11.5360   31.9760 C.ar  830  4BT830     -0.0046
      8  C3        10.0710   12.3590   33.0450 C.ar  830  4BT830     -0.0046
      9  CD        10.3010   14.6500   34.1660 C.3   830  4BT830      0.0384
     10  CC        11.5410   15.1850   34.0970 C.3   830  4BT830      0.0699
     11  N1'       15.3280   13.5440   33.6840 N.pl3 830  4BT830     -0.1181
     12  C'        14.2720   14.3390   33.5030 C.2   830  4BT830      0.2304
     13  S'        12.8820   14.0920   34.5460 S.3   830  4BT830     -0.0721
     14  N2'       14.2300   15.2660   32.5420 N.pl3 830  4BT830     -0.1181
     15  N1         4.4230   12.0020   31.8160 N.pl3 830  4BT830     -0.1181
     16  C          5.6740   11.7950   31.4830 C.2   830  4BT830      0.2304
     17  S          6.0420   10.9990   29.9840 S.3   830  4BT830     -0.0721
     18  N2         6.6500   12.1760   32.3080 N.pl3 830  4BT830     -0.1181
@<TRIPOS>BOND
     1     2     1    1
     2     2     6    1
     3    17     1    1
     4    17    16    1
     5     5     6   ar
     6     5     4   ar
     7     6     7   ar
     8    16    15    2
     9    16    18    1
    10     4     3   ar
    11     7     8   ar
    12    14    12    2
    13     3     8   ar
    14     3     9    1
    15    12    11    1
    16    12    13    1
    17    10     9    1
    18    10    13    1
