@<TRIPOS>MOLECULE
1d1x_HEM_A_1.pdb
 43 50 0 0 0
SMALL
GASTEIGER

@<TRIPOS>ATOM
      1  CHA        9.1200    8.9730   34.8630 C.2   500  HEM500      0.0000
      2  CHB        4.4460    8.8940   33.4670 C.2   500  HEM500      0.0000
      3  CHC        5.9040    7.1670   29.1720 C.2   500  HEM500      0.0000
      4  CHD       10.4000    6.4990   30.9540 C.2   500  HEM500      0.0000
      5  C1A        7.7490    9.2110   34.7470 C.2   500  HEM500      0.0000
      6  C2A        6.9810   10.0380   35.6560 C.2   500  HEM500      0.0000
      7  C3A        5.6640    9.9500   35.3570 C.2   500  HEM500      0.0000
      8  C4A        5.6140    9.1180   34.1670 C.2   500  HEM500      0.0000
      9  CMA        4.5000   10.5460   36.1880 C.3   500  HEM500      0.0000
     10  CAA        7.5980   10.9010   36.7400 C.3   500  HEM500      0.0000
     11  CBA        7.8060   12.3110   36.2390 C.3   500  HEM500      0.0000
     12  CGA        8.3790   13.2160   37.3050 C.2   500  HEM500      0.0000
     13  O1A        8.0930   12.9790   38.5000 O.co2 500  HEM500      0.0000
     14  O2A        9.1010   14.1760   36.9510 O.co2 500  HEM500      0.0000
     15  C1B        4.4360    8.2400   32.2480 C.ar  500  HEM500      0.0000
     16  C2B        3.2630    8.2840   31.4010 C.ar  500  HEM500      0.0000
     17  C3B        3.6240    7.8070   30.1690 C.ar  500  HEM500      0.0000
     18  C4B        5.0770    7.4990   30.2720 C.ar  500  HEM500      0.0000
     19  CMB        1.8950    8.7910   31.8380 C.3   500  HEM500      0.0000
     20  CAB        2.7230    7.7370   29.0940 C.2   500  HEM500      0.0000
     21  CBB        2.6780    6.8440   28.0680 C.2   500  HEM500      0.0000
     22  C1C        7.2880    6.9280   29.2360 C.2   500  HEM500      0.0000
     23  C2C        8.1280    6.4840   28.1470 C.2   500  HEM500      0.0000
     24  C3C        9.3580    6.1900   28.6670 C.2   500  HEM500      0.0000
     25  C4C        9.2970    6.5150   30.0700 C.2   500  HEM500      0.0000
     26  CMC        7.7080    6.2660   26.6950 C.3   500  HEM500      0.0000
     27  CAC       10.4870    5.6320   28.0420 C.2   500  HEM500      0.0000
     28  CBC       10.6490    5.1340   26.7850 C.2   500  HEM500      0.0000
     29  C1D       10.4380    7.0650   32.2170 C.ar  500  HEM500      0.0000
     30  C2D       11.6430    7.2350   33.0260 C.ar  500  HEM500      0.0000
     31  C3D       11.2780    7.9740   34.0840 C.ar  500  HEM500      0.0000
     32  C4D        9.8610    8.1930   33.9740 C.ar  500  HEM500      0.0000
     33  CMD       13.0290    6.6110   32.8400 C.3   500  HEM500      0.0000
     34  CAD       12.1620    8.6130   35.1510 C.3   500  HEM500      0.0000
     35  CBD       13.0200    9.7680   34.6630 C.3   500  HEM500      0.0000
     36  CGD       13.6740   10.5100   35.8030 C.2   500  HEM500      0.0000
     37  O1D       14.1600    9.8430   36.7370 O.co2 500  HEM500      0.0000
     38  O2D       13.7110   11.7580   35.7640 O.co2 500  HEM500      0.0000
     39  NA         6.9000    8.6400   33.7860 N.2   500  HEM500      0.0000
     40  NB         5.5590    7.7290   31.5710 N.ar  500  HEM500      0.0000
     41  NC         8.0210    6.9830   30.4410 N.2   500  HEM500      0.0000
     42  ND         9.3360    7.6200   32.8260 N.ar  500  HEM500      0.0000
     43 FE          7.4050    7.4410   32.2890 Fe    500  HEM500      0.0000
@<TRIPOS>BOND
     1    26    23    1
     2    28    27    2
     3    27    24    1
     4    21    20    2
     5    23    24    2
     6    23    22    1
     7    24    25    1
     8    20    17    1
     9     3    22    2
    10     3    18    1
    11    22    41    1
    12    25    41    2
    13    25     4    1
    14    17    18   ar
    15    17    16   ar
    16    18    40   ar
    17    41    43    1
    18     4    29    2
    19    16    19    1
    20    16    15   ar
    21    40    15   ar
    22    40    43    1
    23    29    42   ar
    24    29    30   ar
    25    15     2    1
    26    43    42    1
    27    43    39    1
    28    42    32   ar
    29    33    30    1
    30    30    31   ar
    31     2     8    2
    32    39     8    1
    33    39     5    2
    34    32    31   ar
    35    32     1    2
    36    31    34    1
    37     8     7    1
    38    35    34    1
    39    35    36    1
    40     5     1    1
    41     5     6    1
    42     7     6    2
    43     7     9    1
    44     6    10    1
    45    38    36   ar
    46    36    37   ar
    47    11    10    1
    48    11    12    1
    49    14    12   ar
    50    12    13   ar
