@<TRIPOS>MOLECULE
1d1x_H4B_A_1.pdb
 17 18 0 0 0
SMALL
GASTEIGER

@<TRIPOS>ATOM
      1  N1         8.1920   11.6130   42.6680 N.2   600  H4B600     -0.2683
      2  C2         8.1090   11.9400   41.3520 C.1   600  H4B600      0.2608
      3  N2         7.2880   11.3390   40.5110 N.pl3 600  H4B600     -0.0220
      4  N3         8.9170   12.9230   40.8920 N.2   600  H4B600     -0.2474
      5  C4         9.8400   13.6460   41.6700 C.1   600  H4B600      0.2441
      6  O4        10.5160   14.5320   41.1170 O.2   600  H4B600     -0.2063
      7  C4A        9.8630   13.2600   43.0380 C.2   600  H4B600      0.2463
      8  C8A        9.0640   12.2350   43.5360 C.1   600  H4B600      0.1270
      9  N5        10.8140   13.9600   43.9150 N.2   600  H4B600     -0.2460
     10  N8         9.0780   11.8600   44.8280 N.2   600  H4B600     -0.2054
     11  C6        11.2220   13.1540   45.1610 C.3   600  H4B600      0.1627
     12  C7         9.9890   12.4990   45.8020 C.3   600  H4B600      0.1643
     13  C9        12.0190   14.1340   46.0670 C.3   600  H4B600      0.2063
     14  O9        11.3180   15.3450   46.4010 O.3   600  H4B600     -0.2183
     15  C10       12.4960   13.4560   47.3850 C.3   600  H4B600      0.1842
     16  C11       13.4470   14.3250   48.1320 C.3   600  H4B600      0.0383
     17  O10       13.1540   12.2430   46.9900 O.3   600  H4B600     -0.2204
@<TRIPOS>BOND
     1     3     2    1
     2     4     2    2
     3     4     5    2
     4     6     5    2
     5     2     1    2
     6     5     7    1
     7     1     8    2
     8     7     8    1
     9     7     9    2
    10     8    10    2
    11     9    11    1
    12    10    12    1
    13    11    12    1
    14    11    13    1
    15    13    14    1
    16    13    15    1
    17    17    15    1
    18    15    16    1
