@<TRIPOS>MOLECULE
1d1y_3BT_A_1.pdb
 18 18 0 0 0
SMALL
GASTEIGER

@<TRIPOS>ATOM
      1  CA         8.2780   10.4270   30.2160 C.3   820  3BT820      0.0699
      2  CB         9.2960   11.5430   29.9930 C.3   820  3BT820      0.0384
      3  N1         4.4490   11.8270   31.4460 N.pl3 820  3BT820     -0.1181
      4  N2         6.6520   12.1750   32.4260 N.pl3 820  3BT820     -0.1181
      5  C          5.8570   11.6900   31.3620 C.2   820  3BT820      0.2304
      6  S          6.5600   10.9360   29.9450 S.3   820  3BT820     -0.0721
      7  C3         9.7410   13.3850   33.4410 C.ar  820  3BT820     -0.0216
      8  C2         9.7830   12.2810   32.3560 C.ar  820  3BT820     -0.0085
      9  C1         9.2820   12.5750   31.0830 C.ar  820  3BT820     -0.0216
     10  C6         8.7500   13.8810   30.8210 C.ar  820  3BT820     -0.0043
     11  C5         8.7010   14.9000   31.8040 C.ar  820  3BT820     -0.0006
     12  C4         9.2000   14.6500   33.1200 C.ar  820  3BT820     -0.0043
     13  CC        11.8300   13.2530   34.9700 C.3   820  3BT820      0.0699
     14  CD        10.3050   13.0720   34.8360 C.3   820  3BT820      0.0384
     15  N1'       14.5360   15.5990   32.7730 N.pl3 820  3BT820     -0.1181
     16  N2'       14.8950   13.6340   34.1990 N.pl3 820  3BT820     -0.1181
     17  C'        14.0310   14.6750   33.7290 C.2   820  3BT820      0.2304
     18  S'        12.3840   14.8460   34.2820 S.3   820  3BT820     -0.0721
@<TRIPOS>BOND
     1     6     1    1
     2     6     5    1
     3     2     1    1
     4     2     9    1
     5    10     9   ar
     6    10    11   ar
     7     9     8   ar
     8     5     3    2
     9     5     4    1
    10    11    12   ar
    11     8     7   ar
    12    15    17    2
    13    12     7   ar
    14     7    14    1
    15    17    16    1
    16    17    18    1
    17    18    13    1
    18    14    13    1
