@<TRIPOS>MOLECULE
1d1y_HEM_A_1.pdb
 43 50 0 0 0
SMALL
GASTEIGER

@<TRIPOS>ATOM
      1  CHA        9.1720    8.9270   35.0000 C.2   500  HEM500      0.0000
      2  CHB        4.5230    8.9880   33.5400 C.2   500  HEM500      0.0000
      3  CHC        5.9240    7.2840   29.2430 C.2   500  HEM500      0.0000
      4  CHD       10.4280    6.4710   31.0630 C.2   500  HEM500      0.0000
      5  C1A        7.7920    9.1520   34.9210 C.2   500  HEM500      0.0000
      6  C2A        7.0640    9.9800   35.8590 C.2   500  HEM500      0.0000
      7  C3A        5.7570    9.9450   35.5030 C.2   500  HEM500      0.0000
      8  C4A        5.6760    9.1280   34.3020 C.2   500  HEM500      0.0000
      9  CMA        4.6220   10.6070   36.3210 C.3   500  HEM500      0.0000
     10  CAA        7.6300   10.7340   37.0710 C.3   500  HEM500      0.0000
     11  CBA        7.5310   12.2360   36.9360 C.3   500  HEM500      0.0000
     12  CGA        8.2700   12.9660   38.0410 C.2   500  HEM500      0.0000
     13  O1A        7.9910   12.6940   39.2310 O.co2 500  HEM500      0.0000
     14  O2A        9.1270   13.8180   37.7220 O.co2 500  HEM500      0.0000
     15  C1B        4.4800    8.3630   32.3170 C.ar  500  HEM500      0.0000
     16  C2B        3.2910    8.3590   31.5160 C.ar  500  HEM500      0.0000
     17  C3B        3.6360    7.8110   30.3000 C.ar  500  HEM500      0.0000
     18  C4B        5.0730    7.5310   30.3700 C.ar  500  HEM500      0.0000
     19  CMB        1.9470    8.9260   31.9430 C.3   500  HEM500      0.0000
     20  CAB        2.7550    7.7060   29.2270 C.2   500  HEM500      0.0000
     21  CBB        2.8190    6.8490   28.1770 C.2   500  HEM500      0.0000
     22  C1C        7.3200    7.0760   29.3340 C.2   500  HEM500      0.0000
     23  C2C        8.1510    6.6050   28.2400 C.2   500  HEM500      0.0000
     24  C3C        9.3970    6.2350   28.7810 C.2   500  HEM500      0.0000
     25  C4C        9.3190    6.5470   30.1970 C.2   500  HEM500      0.0000
     26  CMC        7.6630    6.4150   26.8080 C.3   500  HEM500      0.0000
     27  CAC       10.5220    5.6210   28.1830 C.2   500  HEM500      0.0000
     28  CBC       10.6020    5.0300   26.9610 C.2   500  HEM500      0.0000
     29  C1D       10.4610    7.0070   32.3400 C.ar  500  HEM500      0.0000
     30  C2D       11.6720    7.1520   33.1490 C.ar  500  HEM500      0.0000
     31  C3D       11.3030    7.8860   34.2040 C.ar  500  HEM500      0.0000
     32  C4D        9.9000    8.1970   34.0670 C.ar  500  HEM500      0.0000
     33  CMD       13.1100    6.6820   32.9090 C.3   500  HEM500      0.0000
     34  CAD       12.2190    8.3420   35.3180 C.3   500  HEM500      0.0000
     35  CBD       13.0510    9.5490   34.9120 C.3   500  HEM500      0.0000
     36  CGD       13.7620   10.1750   36.0950 C.2   500  HEM500      0.0000
     37  O1D       14.3220    9.4120   36.9160 O.co2 500  HEM500      0.0000
     38  O2D       13.7640   11.4250   36.2000 O.co2 500  HEM500      0.0000
     39  NA         6.9350    8.6240   33.9390 N.2   500  HEM500      0.0000
     40  NB         5.5630    7.8150   31.6490 N.ar  500  HEM500      0.0000
     41  NC         8.0380    7.0620   30.5460 N.2   500  HEM500      0.0000
     42  ND         9.3660    7.6140   32.9240 N.ar  500  HEM500      0.0000
     43 FE          7.4220    7.5340   32.3710 Fe    500  HEM500      0.0000
@<TRIPOS>BOND
     1    26    23    1
     2    28    27    2
     3    21    20    2
     4    27    24    1
     5    23    24    2
     6    23    22    1
     7    24    25    1
     8    20    17    1
     9     3    22    2
    10     3    18    1
    11    22    41    1
    12    25    41    2
    13    25     4    1
    14    17    18   ar
    15    17    16   ar
    16    18    40   ar
    17    41    43    1
    18     4    29    2
    19    16    19    1
    20    16    15   ar
    21    40    15   ar
    22    40    43    1
    23    15     2    1
    24    29    42   ar
    25    29    30   ar
    26    43    42    1
    27    43    39    1
    28    33    30    1
    29    42    32   ar
    30    30    31   ar
    31     2     8    2
    32    39     8    1
    33    39     5    2
    34    32    31   ar
    35    32     1    2
    36    31    34    1
    37     8     7    1
    38    35    34    1
    39    35    36    1
    40     5     1    1
    41     5     6    1
    42     7     6    2
    43     7     9    1
    44     6    10    1
    45    36    38   ar
    46    36    37   ar
    47    11    10    1
    48    11    12    1
    49    14    12   ar
    50    12    13   ar
