@<TRIPOS>MOLECULE
1d2a_ADE_B_1.pdb
 10 11 0 0 0
SMALL
GASTEIGER

@<TRIPOS>ATOM
      1  N9        -3.7120   63.9030   22.9290 N.2   401  ADE401     -0.1914
      2  C8        -4.7700   64.2300   22.1150 C.3   401  ADE401      0.2618
      3  N7        -5.5190   65.1930   22.5880 N.2   401  ADE401     -0.2267
      4  C5        -4.9190   65.5300   23.7780 C.2   401  ADE401      0.2303
      5  C6        -5.2250   66.4680   24.7690 C.2   401  ADE401      0.4393
      6  N6        -6.2680   67.2750   24.6600 N.pl3 401  ADE401      0.2185
      7  N1        -4.3870   66.5300   25.8560 N.2   401  ADE401     -0.0265
      8  C2        -3.3290   65.7030   25.9460 C.3   401  ADE401      0.4008
      9  N3        -2.9580   64.7700   25.0640 N.2   401  ADE401     -0.1640
     10  C4        -3.8110   64.7380   24.0050 C.1   401  ADE401      0.0579
@<TRIPOS>BOND
     1     2     3    1
     2     2     1    1
     3     3     4    2
     4     1    10    2
     5     4    10    1
     6     4     5    1
     7    10     9    2
     8     6     5    1
     9     5     7    2
    10     9     8    1
    11     7     8    1
