@<TRIPOS>MOLECULE
1d2e_GDP_A_1.pdb
 28 30 0 0 0
SMALL
GASTEIGER

@<TRIPOS>ATOM
      1  PB        15.0110   -9.2550   51.5850 P.3   1301  GDP1301     0.5373
      2  O1B       13.9500   -8.2270   51.4310 O.3   1301  GDP1301    -0.1143
      3  O2B       16.3970   -8.8090   51.3940 O.2   1301  GDP1301    -0.2221
      4  O3B       14.9260   -9.9600   52.8640 O.3   1301  GDP1301    -0.1143
      5  O3A       14.7190  -10.3520   50.4300 O.3   1301  GDP1301    -0.2261
      6  PA        15.7050  -11.0870   49.3880 P.3   1301  GDP1301     0.2231
      7  O1A       16.7180  -11.7660   50.1830 O.3   1301  GDP1301    -0.4370
      8  O2A       16.1670  -10.1300   48.3710 O.2   1301  GDP1301    -0.5169
      9  O5'       14.6570  -12.0580   48.6940 O.3   1301  GDP1301    -0.3111
     10  C5'       14.0320  -13.1030   49.4630 C.3   1301  GDP1301     0.1813
     11  C4'       13.6600  -14.2930   48.5890 C.3   1301  GDP1301     0.1799
     12  O4'       12.7790  -13.7980   47.5370 O.3   1301  GDP1301    -0.3326
     13  C3'       14.8410  -14.9450   47.8800 C.3   1301  GDP1301     0.2158
     14  O3'       14.5130  -16.3390   47.8370 O.3   1301  GDP1301    -0.2175
     15  C2'       14.7960  -14.2460   46.5010 C.3   1301  GDP1301     0.2310
     16  O2'       15.4360  -15.0050   45.4610 O.3   1301  GDP1301    -0.2158
     17  C1'       13.3110  -14.0890   46.2500 C.3   1301  GDP1301     0.2293
     18  N9        13.0310  -12.9640   45.3100 N.pl3 1301  GDP1301    -0.2354
     19  C8        13.5230  -11.6600   45.2960 C.3   1301  GDP1301     0.2246
     20  N7        13.0810  -10.9130   44.3050 N.2   1301  GDP1301    -0.2322
     21  C5        12.2370  -11.7830   43.6180 C.2   1301  GDP1301     0.2182
     22  C6        11.4500  -11.6020   42.4490 C.1   1301  GDP1301     0.2372
     23  O6        11.3410  -10.5700   41.7410 O.2   1301  GDP1301    -0.2069
     24  N1        10.7290  -12.7430   42.0810 N.2   1301  GDP1301    -0.2485
     25  C2        10.7530  -13.9570   42.7630 C.1   1301  GDP1301     0.2531
     26  N2        10.0130  -14.9500   42.2960 N.pl3 1301  GDP1301    -0.0226
     27  N3        11.4940  -14.1540   43.8660 N.2   1301  GDP1301    -0.3074
     28  C4        12.2010  -13.0460   44.2380 C.2   1301  GDP1301     0.2300
@<TRIPOS>BOND
     1    23    22    2
     2    24    22    2
     3    24    25    2
     4    26    25    1
     5    22    21    1
     6    25    27    2
     7    21    28    1
     8    21    20    2
     9    27    28    2
    10    28    18    1
    11    20    19    1
    12    19    18    1
    13    18    17    1
    14    16    15    1
    15    17    15    1
    16    17    12    1
    17    15    13    1
    18    12    11    1
    19    14    13    1
    20    13    11    1
    21     8     6    2
    22    11    10    1
    23     9     6    1
    24     9    10    1
    25     6     7    1
    26     6     5    1
    27     5     1    1
    28     3     1    2
    29     2     1    1
    30     1     4    1
