@<TRIPOS>MOLECULE
1d2f_PLP_A_1.pdb
 15 15 0 0 0
SMALL
GASTEIGER

@<TRIPOS>ATOM
      1  N1       -29.8250   12.8030  -19.6120 N.ar  400  PLP400     -0.2452
      2  C2       -28.6710   13.1930  -18.9340 C.ar  400  PLP400      0.0978
      3  C2A      -28.9010   14.2860  -17.9140 C.3   400  PLP400      0.0555
      4  C3       -27.4140   12.4820  -19.2960 C.ar  400  PLP400      0.2049
      5  O3       -26.3390   12.9290  -18.6430 O.3   400  PLP400     -0.2857
      6  C4       -27.4300   11.4760  -20.2610 C.ar  400  PLP400      0.0182
      7  C4A      -26.1810   10.7730  -20.5950 C.3   400  PLP400      0.0342
      8  C5       -28.7530   11.1540  -20.9080 C.ar  400  PLP400      0.0261
      9  C6       -29.9030   11.8360  -20.5600 C.ar  400  PLP400      0.0965
     10  C5A      -28.8220   10.0140  -21.8970 C.3   400  PLP400      0.1815
     11  O4P      -29.3780   10.3700  -23.1380 O.3   400  PLP400     -0.2653
     12  P        -29.4950    9.2290  -24.2910 P.3   400  PLP400      0.5329
     13  O1P      -30.2800    9.9860  -25.3150 O.2   400  PLP400     -0.2224
     14  O2P      -30.3660    8.0650  -23.6930 O.3   400  PLP400     -0.1145
     15  O3P      -28.0310    8.8730  -24.4960 O.3   400  PLP400     -0.1145
@<TRIPOS>BOND
     1    13    12    2
     2    15    12    1
     3    12    14    1
     4    12    11    1
     5    11    10    1
     6    10     8    1
     7     8     9   ar
     8     8     6   ar
     9     7     6    1
    10     9     1   ar
    11     6     4   ar
    12     1     2   ar
    13     4     2   ar
    14     4     5    1
    15     2     3    1
