@<TRIPOS>MOLECULE
1d2h_SAH_A_1.pdb
 26 28 0 0 0
SMALL
GASTEIGER

@<TRIPOS>ATOM
      1  N         17.2880   19.4900   11.9490 N.3   1301  SAH1301    -0.1208
      2  CA        17.8830   18.3590   12.7150 C.3   1301  SAH1301     0.1952
      3  CB        18.7410   18.8930   13.8650 C.3   1301  SAH1301     0.0422
      4  CG        20.0210   19.5820   13.4250 C.3   1301  SAH1301     0.0597
      5  SD        20.0040   21.3540   13.7570 S.3   1301  SAH1301    -0.1375
      6  C         16.7910   17.4590   13.2720 C.2   1301  SAH1301     0.3819
      7  O         15.6180   17.6360   12.8810 O.co2 1301  SAH1301    -0.2441
      8  OXT       17.1270   16.5850   14.0940 O.co2 1301  SAH1301    -0.2441
      9  C5'       19.1240   21.9390   12.3100 C.3   1301  SAH1301     0.0899
     10  C4'       20.0680   22.4100   11.2270 C.3   1301  SAH1301     0.1630
     11  O4'       21.4380   22.5100   11.6450 O.3   1301  SAH1301    -0.3153
     12  C3'       20.1320   21.5290    9.9920 C.3   1301  SAH1301     0.2168
     13  O3'       19.2630   22.0220    8.9740 O.3   1301  SAH1301    -0.2175
     14  C2'       21.5800   21.6970    9.5480 C.3   1301  SAH1301     0.2569
     15  O2'       21.7320   21.8820    8.1440 O.3   1301  SAH1301    -0.2130
     16  C1'       21.9860   22.8950   10.3730 C.3   1301  SAH1301     0.3185
     17  N9        23.4190   23.2450   10.3580 N.pl3 1301  SAH1301    -0.1439
     18  C8        24.4140   22.5260   10.8880 C.3   1301  SAH1301     0.3377
     19  N7        25.6030   23.0540   10.5820 N.2   1301  SAH1301    -0.2095
     20  C5        25.3040   24.1150    9.8540 C.2   1301  SAH1301     0.2526
     21  C6        26.2410   25.0270    9.4130 C.2   1301  SAH1301     0.4393
     22  N6        27.5450   24.7930    9.5050 N.pl3 1301  SAH1301     0.2180
     23  N1        25.7450   26.1270    8.8240 N.2   1301  SAH1301     0.0021
     24  C2        24.4330   26.2870    8.6840 C.3   1301  SAH1301     0.5254
     25  N3        23.5420   25.3960    9.1050 N.2   1301  SAH1301    -0.0055
     26  C4        23.9550   24.2770    9.7150 C.2   1301  SAH1301     0.3518
@<TRIPOS>BOND
     1    15    14    1
     2    24    23    1
     3    24    25    1
     4    23    21    2
     5    13    12    1
     6    25    26    2
     7    21    22    1
     8    21    20    1
     9    14    12    1
    10    14    16    1
    11    26    20    1
    12    26    17    1
    13    20    19    2
    14    12    10    1
    15    17    16    1
    16    17    18    1
    17    16    11    1
    18    19    18    1
    19    10    11    1
    20    10     9    1
    21     1     2    1
    22     9     5    1
    23     2     6    1
    24     2     3    1
    25     7     6   ar
    26     6     8   ar
    27     4     5    1
    28     4     3    1
