@<TRIPOS>MOLECULE
1d2n_ANP_A_1.pdb
 31 33 0 0 0
SMALL
GASTEIGER

@<TRIPOS>ATOM
      1  PG       -12.4360   27.7390   13.6770 P.3     1  ANP1        0.4884
      2  O1G      -12.0950   27.7040   15.1490 O.3     1  ANP1       -0.1240
      3  O2G      -11.2810   27.6210   12.7330 O.2     1  ANP1       -0.2331
      4  O3G      -13.6940   27.0190   13.2710 O.3     1  ANP1       -0.1240
      5  PB       -12.0680   30.6780   13.5780 P.3     1  ANP1        0.4669
      6  O1B      -11.0150   30.7400   12.5110 O.2     1  ANP1       -0.2351
      7  O2B      -11.6830   30.9210   15.0130 O.3     1  ANP1       -0.1253
      8  N3B      -12.8720   29.2820   13.4680 N.3     1  ANP1       -0.0163
      9  PA       -13.4610   32.4150   11.7140 P.3     1  ANP1        0.2220
     10  O1A      -12.4330   33.4770   11.4340 O.3     1  ANP1       -0.4370
     11  O2A      -13.6480   31.2810   10.7390 O.2     1  ANP1       -0.5170
     12  O3A      -13.1610   31.7750   13.1530 O.3     1  ANP1       -0.2360
     13  O5'      -14.8850   33.0900   11.9310 O.3     1  ANP1       -0.3111
     14  C5'      -15.0200   34.3480   12.5740 C.3     1  ANP1        0.1813
     15  C4'      -16.2360   35.0700   12.0340 C.3     1  ANP1        0.1821
     16  O4'      -16.5210   36.2210   12.8720 O.3     1  ANP1       -0.3135
     17  C3'      -16.0860   35.6110   10.6160 C.3     1  ANP1        0.2184
     18  O3'      -17.3490   35.6090    9.9560 O.3     1  ANP1       -0.2174
     19  C2'      -15.6140   37.0380   10.8600 C.3     1  ANP1        0.2570
     20  O2'      -15.9160   37.9070    9.7850 O.3     1  ANP1       -0.2130
     21  C1'      -16.4200   37.4050   12.1060 C.3     1  ANP1        0.3186
     22  N9       -15.8060   38.4310   12.9470 N.pl3   1  ANP1       -0.1439
     23  C8       -16.3730   39.6070   13.3750 C.3     1  ANP1        0.3377
     24  N7       -15.5870   40.3260   14.1350 N.2     1  ANP1       -0.2095
     25  C5       -14.4200   39.5780   14.2130 C.2     1  ANP1        0.2526
     26  C6       -13.1980   39.7960   14.8770 C.2     1  ANP1        0.4393
     27  N6       -12.9410   40.8710   15.6270 N.pl3   1  ANP1        0.2180
     28  N1       -12.2370   38.8550   14.7450 N.2     1  ANP1        0.0021
     29  C2       -12.4970   37.7720   14.0040 C.3     1  ANP1        0.5254
     30  N3       -13.6050   37.4520   13.3390 N.2     1  ANP1       -0.0055
     31  C4       -14.5390   38.4100   13.4830 C.2     1  ANP1        0.3518
@<TRIPOS>BOND
     1    20    19    1
     2    18    17    1
     3    17    19    1
     4    17    15    1
     5    11     9    2
     6    19    21    1
     7    10     9    1
     8     9    13    1
     9     9    12    1
    10    13    14    1
    11    15    14    1
    12    15    16    1
    13    21    16    1
    14    21    22    1
    15     6     5    2
    16     3     1    2
    17    22    23    1
    18    22    31    1
    19    12     5    1
    20     4     1    1
    21    30    31    2
    22    30    29    1
    23    23    24    1
    24     8     5    1
    25     8     1    1
    26    31    25    1
    27     5     7    1
    28     1     2    1
    29    29    28    1
    30    24    25    2
    31    25    26    1
    32    28    26    2
    33    26    27    1
