@<TRIPOS>MOLECULE
1d2s_DHT_A_1.pdb
 21 24 0 0 0
SMALL
GASTEIGER

@<TRIPOS>ATOM
      1  C1        24.1170   10.0290   30.8710 C.3   301  DHT301      0.0078
      2  C2        25.6170   10.2080   30.7070 C.3   301  DHT301      0.0645
      3  C3        25.9240   11.6880   30.9260 C.2   301  DHT301      0.1506
      4  O3        26.7490   12.2160   30.1970 O.2   301  DHT301     -0.2961
      5  C4        25.3280   12.3550   32.0980 C.3   301  DHT301      0.0645
      6  C5        23.8150   12.1130   32.2100 C.3   301  DHT301      0.0073
      7  C6        23.1680   12.8120   33.4110 C.3   301  DHT301      0.0004
      8  C7        21.6550   12.6940   33.3480 C.3   301  DHT301      0.0000
      9  C8        21.2150   11.2150   33.2530 C.3   301  DHT301      0.0001
     10  C9        21.9310   10.4950   32.0790 C.3   301  DHT301      0.0000
     11  C10       23.4820   10.5860   32.1520 C.3   301  DHT301      0.0008
     12  C11       21.3950    9.0530   31.9520 C.3   301  DHT301      0.0001
     13  C12       19.8950    8.8690   31.9120 C.3   301  DHT301      0.0024
     14  C13       19.2090    9.6180   33.0450 C.3   301  DHT301      0.0282
     15  C14       19.7140   11.0760   33.0650 C.3   301  DHT301      0.0024
     16  C15       18.8010   11.7140   34.1110 C.3   301  DHT301      0.0027
     17  C16       17.4270   11.0930   33.8070 C.3   301  DHT301      0.0329
     18  C17       17.7320    9.9090   32.8670 C.3   301  DHT301      0.1519
     19  O17       16.8630    8.8090   33.1480 O.3   301  DHT301     -0.2232
     20  C18       19.4690    8.9360   34.4120 C.3   301  DHT301      0.0025
     21  C19       24.0060    9.8790   33.4240 C.3   301  DHT301      0.0000
@<TRIPOS>BOND
     1     4     3    2
     2     2     1    1
     3     2     3    1
     4     1    11    1
     5     3     5    1
     6    13    12    1
     7    13    14    1
     8    12    10    1
     9    10    11    1
    10    10     9    1
    11     5     6    1
    12    11     6    1
    13    11    21    1
    14     6     7    1
    15    18    14    1
    16    18    19    1
    17    18    17    1
    18    14    15    1
    19    14    20    1
    20    15     9    1
    21    15    16    1
    22     9     8    1
    23     8     7    1
    24    17    16    1
