@<TRIPOS>MOLECULE
1d2u_HEM_A_1.pdb
 43 50 0 0 0
SMALL
GASTEIGER

@<TRIPOS>ATOM
      1 FE         11.1300   20.1920   36.3690 Fe    185  HEM185      0.0000
      2  CHA       11.6440   23.1490   34.7990 C.2   185  HEM185      0.0000
      3  CHB        7.7950   20.5730   35.9750 C.2   185  HEM185      0.0000
      4  CHC       10.6630   17.4760   38.3060 C.2   185  HEM185      0.0000
      5  CHD       14.4480   19.6150   36.3670 C.2   185  HEM185      0.0000
      6  NA         9.9380   21.5690   35.5760 N.ar  185  HEM185      0.0000
      7  C1A       10.3410   22.8120   35.0030 C.ar  185  HEM185      0.0000
      8  C2A        9.1410   23.5630   34.6920 C.ar  185  HEM185      0.0000
      9  C3A        8.1000   22.7840   34.9400 C.ar  185  HEM185      0.0000
     10  C4A        8.5890   21.5740   35.5100 C.ar  185  HEM185      0.0000
     11  CMA        6.6400   23.2100   34.8240 C.3   185  HEM185      0.0000
     12  CAA        9.1470   24.9830   34.1320 C.3   185  HEM185      0.0000
     13  CBA        8.8680   26.0040   35.2400 C.3   185  HEM185      0.0000
     14  CGA        8.9930   27.4300   34.7630 C.2   185  HEM185      0.0000
     15  O1A        9.6990   27.7810   33.8040 O.co2 185  HEM185      0.0000
     16  O2A        8.2820   28.2270   35.3820 O.co2 185  HEM185      0.0000
     17  NB         9.5300   19.1600   36.9920 N.2   185  HEM185      0.0000
     18  C1B        8.2100   19.4520   36.7120 C.2   185  HEM185      0.0000
     19  C2B        7.3410   18.4420   37.3230 C.2   185  HEM185      0.0000
     20  C3B        8.1770   17.5980   38.0000 C.2   185  HEM185      0.0000
     21  C4B        9.4930   18.0630   37.8140 C.2   185  HEM185      0.0000
     22  CMB        5.8670   18.3890   37.1710 C.3   185  HEM185      0.0000
     23  CAB        7.8690   16.3390   38.8680 C.2   185  HEM185      0.0000
     24  CBB        6.7470   16.1410   39.4630 C.2   185  HEM185      0.0000
     25  NC        12.3080   18.8220   37.2000 N.ar  185  HEM185      0.0000
     26  C1C       11.9150   17.7650   38.0050 C.ar  185  HEM185      0.0000
     27  C2C       13.1310   17.0690   38.4060 C.ar  185  HEM185      0.0000
     28  C3C       14.1890   17.6000   37.8270 C.ar  185  HEM185      0.0000
     29  C4C       13.7190   18.7410   37.0530 C.ar  185  HEM185      0.0000
     30  CMC       13.1620   15.8890   39.3370 C.3   185  HEM185      0.0000
     31  CAC       15.6310   17.0920   37.8530 C.2   185  HEM185      0.0000
     32  CBC       16.1780   16.6980   36.7070 C.2   185  HEM185      0.0000
     33  ND        12.7100   21.1930   35.6650 N.2   185  HEM185      0.0000
     34  C1D       13.9680   20.8280   35.8010 C.2   185  HEM185      0.0000
     35  C2D       14.8500   21.8370   35.2110 C.2   185  HEM185      0.0000
     36  C3D       14.0590   22.7330   34.7070 C.2   185  HEM185      0.0000
     37  C4D       12.7210   22.4040   35.0630 C.2   185  HEM185      0.0000
     38  CMD       16.4470   21.6650   35.1290 C.3   185  HEM185      0.0000
     39  CAD       14.4150   24.0610   33.9980 C.3   185  HEM185      0.0000
     40  CBD       14.0380   23.9700   32.5060 C.3   185  HEM185      0.0000
     41  CGD       14.5260   25.2940   31.8250 C.2   185  HEM185      0.0000
     42  O1D       15.2550   25.0170   30.7660 O.co2 185  HEM185      0.0000
     43  O2D       14.0230   26.3240   31.9170 O.co2 185  HEM185      0.0000
@<TRIPOS>BOND
     1    42    41   ar
     2    41    43   ar
     3    41    40    1
     4    40    39    1
     5    15    14   ar
     6    39    36    1
     7    12     8    1
     8    12    13    1
     9     8     9   ar
    10     8     7   ar
    11    36    37    1
    12    36    35    2
    13    14    13    1
    14    14    16   ar
    15     2     7    2
    16     2    37    1
    17    11     9    1
    18     9    10   ar
    19     7     6   ar
    20    37    33    2
    21    38    35    1
    22    35    34    1
    23    10     6   ar
    24    10     3    2
    25     6     1    1
    26    33    34    1
    27    33     1    1
    28    34     5    2
    29     3    18    1
    30     5    29    1
    31     1    17    1
    32     1    25    1
    33    32    31    2
    34    18    17    2
    35    18    19    1
    36    17    21    1
    37    29    25   ar
    38    29    28   ar
    39    22    19    1
    40    25    26   ar
    41    19    20    2
    42    21    20    1
    43    21     4    2
    44    28    31    1
    45    28    27   ar
    46    20    23    1
    47    26     4    1
    48    26    27   ar
    49    27    30    1
    50    23    24    2
