@<TRIPOS>MOLECULE
1d2v_HEM_A_1.pdb
 43 50 0 0 0
SMALL
GASTEIGER

@<TRIPOS>ATOM
      1  CHA       19.1450  -12.4160   -3.1650 C.2   605  HEM605      0.0000
      2  CHB       17.9100  -15.1180   -6.8770 C.2   605  HEM605      0.0000
      3  CHC       21.3960  -13.0990   -9.4960 C.2   605  HEM605      0.0000
      4  CHD       22.6080  -10.3960   -5.7360 C.2   605  HEM605      0.0000
      5  C1A       18.3750  -13.1650   -4.0210 C.ar  605  HEM605      0.0000
      6  C2A       17.2690  -13.9590   -3.5730 C.ar  605  HEM605      0.0000
      7  C3A       16.9440  -14.7670   -4.6150 C.ar  605  HEM605      0.0000
      8  C4A       17.8360  -14.4220   -5.6930 C.ar  605  HEM605      0.0000
      9  CMA       15.8520  -15.8240   -4.6500 C.3   605  HEM605      0.0000
     10  CAA       16.5080  -13.7750   -2.2410 C.3   605  HEM605      0.0000
     11  CBA       15.1490  -13.1320   -2.4770 C.3   605  HEM605      0.0000
     12  CGA       14.3930  -12.8440   -1.2240 C.2   605  HEM605      0.0000
     13  O1A       13.3590  -13.5030   -0.9800 O.co2 605  HEM605      0.0000
     14  O2A       14.8290  -11.9410   -0.4830 O.co2 605  HEM605      0.0000
     15  C1B       18.8300  -14.8720   -7.8900 C.2   605  HEM605      0.0000
     16  C2B       18.9020  -15.6250   -9.1290 C.2   605  HEM605      0.0000
     17  C3B       19.9030  -15.0750   -9.8620 C.2   605  HEM605      0.0000
     18  C4B       20.4190  -13.9660   -9.0630 C.2   605  HEM605      0.0000
     19  CMB       17.9570  -16.7400   -9.5690 C.3   605  HEM605      0.0000
     20  CAB       20.3590  -15.4510  -11.1300 C.3   605  HEM605      0.0000
     21  CBB       20.5950  -16.8170  -11.5630 C.3   605  HEM605      0.0000
     22  C1C       21.9140  -12.0500   -8.7610 C.ar  605  HEM605      0.0000
     23  C2C       23.0000  -11.2040   -9.2120 C.ar  605  HEM605      0.0000
     24  C3C       23.3670  -10.4490   -8.1190 C.ar  605  HEM605      0.0000
     25  C4C       22.4680  -10.8220   -7.0550 C.ar  605  HEM605      0.0000
     26  CMC       23.4630  -11.0540  -10.6770 C.3   605  HEM605      0.0000
     27  CAC       24.4020   -9.5320   -7.9890 C.3   605  HEM605      0.0000
     28  CBC       25.0460   -8.8830   -9.0950 C.3   605  HEM605      0.0000
     29  C1D       21.8260  -10.8040   -4.6690 C.2   605  HEM605      0.0000
     30  C2D       22.1010  -10.4750   -3.2760 C.2   605  HEM605      0.0000
     31  C3D       21.1290  -11.0920   -2.5420 C.2   605  HEM605      0.0000
     32  C4D       20.2710  -11.7440   -3.5040 C.2   605  HEM605      0.0000
     33  CMD       23.3130   -9.6640   -2.7520 C.3   605  HEM605      0.0000
     34  CAD       21.0750  -11.2750   -1.0110 C.3   605  HEM605      0.0000
     35  CBD       21.9220  -12.4810   -0.5160 C.3   605  HEM605      0.0000
     36  CGD       21.8200  -12.7490    0.9990 C.2   605  HEM605      0.0000
     37  O1D       22.4800  -12.0170    1.7870 O.co2 605  HEM605      0.0000
     38  O2D       21.0860  -13.7000    1.4120 O.co2 605  HEM605      0.0000
     39  NA        18.6920  -13.4030   -5.3310 N.ar  605  HEM605      0.0000
     40  NB        19.7770  -13.8520   -7.8440 N.2   605  HEM605      0.0000
     41  NC        21.5580  -11.7760   -7.4570 N.ar  605  HEM605      0.0000
     42  ND        20.7280  -11.6140   -4.7920 N.2   605  HEM605      0.0000
     43 FE         20.0170  -12.4470   -6.4450 Fe    605  HEM605      0.0000
@<TRIPOS>BOND
     1    21    20    1
     2    20    17    1
     3    26    23    1
     4    17    16    2
     5    17    18    1
     6    19    16    1
     7     3    18    2
     8     3    22    1
     9    23    22   ar
    10    23    24   ar
    11    16    15    1
    12    28    27    1
    13    18    40    1
    14    22    41   ar
    15    24    27    1
    16    24    25   ar
    17    15    40    2
    18    15     2    1
    19    40    43    1
    20    41    25   ar
    21    41    43    1
    22    25     4    1
    23     2     8    2
    24    43    39    1
    25    43    42    1
    26     4    29    2
    27     8    39   ar
    28     8     7   ar
    29    39     5   ar
    30    42    29    1
    31    42    32    2
    32    29    30    1
    33     9     7    1
    34     7     6   ar
    35     5     6   ar
    36     5     1    2
    37     6    10    1
    38    32     1    1
    39    32    31    1
    40    30    33    1
    41    30    31    2
    42    31    34    1
    43    11    10    1
    44    11    12    1
    45    12    13   ar
    46    12    14   ar
    47    34    35    1
    48    35    36    1
    49    36    38   ar
    50    36    37   ar
