@<TRIPOS>MOLECULE
1d2v_MAN_C_1.pdb
 11 11 0 0 0
SMALL
GASTEIGER

@<TRIPOS>ATOM
      1  C1        32.7140   10.7510   13.7460 C.3   1644  MAN1644     0.1777
      2  C2        31.9780   11.3580   12.5490 C.3   1644  MAN1644     0.2141
      3  C3        30.6330   11.8840   13.0330 C.3   1644  MAN1644     0.2173
      4  C4        29.8220   10.7040   13.6020 C.3   1644  MAN1644     0.2142
      5  C5        30.6290   10.0020   14.7200 C.3   1644  MAN1644     0.1810
      6  C6        29.9850    8.7130   15.1970 C.3   1644  MAN1644     0.2141
      7  O2        31.7810   10.3580   11.5660 O.3   1644  MAN1644    -0.2176
      8  O3        29.9310   12.5440   11.9810 O.3   1644  MAN1644    -0.2175
      9  O4        28.5730   11.1750   14.1220 O.3   1644  MAN1644    -0.2176
     10  O5        31.9520    9.6450   14.2490 O.3   1644  MAN1644    -0.3481
     11  O6        29.7590    7.8240   14.1020 O.3   1644  MAN1644    -0.2176
@<TRIPOS>BOND
     1     7     2    1
     2     8     3    1
     3     2     3    1
     4     2     1    1
     5     3     4    1
     6     4     9    1
     7     4     5    1
     8     1    10    1
     9    11     6    1
    10    10     5    1
    11     5     6    1
