@<TRIPOS>MOLECULE
1d2v_FUC_C_1.pdb
 10 10 0 0 0
SMALL
GASTEIGER

@<TRIPOS>ATOM
      1  C1        37.0320    5.1590    7.3170 C.3   1645  FUC1645     0.1776
      2  C2        36.7920    6.4460    6.5330 C.3   1645  FUC1645     0.2141
      3  C3        37.9090    6.6110    5.4820 C.3   1645  FUC1645     0.2172
      4  C4        37.9290    5.3940    4.5680 C.3   1645  FUC1645     0.2116
      5  C5        38.0630    4.1180    5.3950 C.3   1645  FUC1645     0.1483
      6  C6        37.9190    2.8760    4.5260 C.3   1645  FUC1645     0.0349
      7  O2        36.7840    7.5500    7.4360 O.3   1645  FUC1645    -0.2176
      8  O3        37.7260    7.7890    4.7070 O.3   1645  FUC1645    -0.2175
      9  O4        36.7230    5.3560    3.8220 O.3   1645  FUC1645    -0.2177
     10  O5        37.0220    4.0640    6.4120 O.3   1645  FUC1645    -0.3508
@<TRIPOS>BOND
     1     9     4    1
     2     6     5    1
     3     4     5    1
     4     4     3    1
     5     8     3    1
     6     5    10    1
     7     3     2    1
     8    10     1    1
     9     2     1    1
    10     2     7    1
