@<TRIPOS>MOLECULE
1d3c_GLC_A_10.pdb
 11 11 0 0 0
SMALL
GASTEIGER

@<TRIPOS>ATOM
      1  C1        71.4480   83.1700   53.4750 C.3   708  GLC708      0.3022
      2  C2        72.0560   83.3800   52.0760 C.3   708  GLC708      0.2409
      3  C3        71.3960   84.5200   51.3590 C.3   708  GLC708      0.1899
      4  C4        69.9090   84.3440   51.4120 C.3   708  GLC708      0.0681
      5  C5        69.5210   84.3820   52.8590 C.3   708  GLC708      0.1534
      6  C6        68.0210   84.5640   53.0490 C.3   708  GLC708      0.2116
      7  O1        71.9540   84.1460   54.2890 O.3   708  GLC708     -0.1869
      8  O2        73.4420   83.6570   52.2450 O.3   708  GLC708     -0.2149
      9  O3        71.8230   84.4960   50.0040 O.3   708  GLC708     -0.2201
     10  O5        70.0280   83.2670   53.5000 O.3   708  GLC708     -0.3263
     11  O6        67.4570   83.5880   53.9150 O.3   708  GLC708     -0.2177
@<TRIPOS>BOND
     1     9     3    1
     2     3     4    1
     3     3     2    1
     4     4     5    1
     5     2     8    1
     6     2     1    1
     7     5     6    1
     8     5    10    1
     9     6    11    1
    10     1    10    1
    11     1     7    1
