@<TRIPOS>MOLECULE
1d3d_BZT_B_1.pdb
 38 43 0 0 0
SMALL
GASTEIGER

@<TRIPOS>ATOM
      1  C1       -24.0350  -30.4500   24.2640 C.ar  400  BZT400      0.1962
      2  C2       -24.3170  -31.5200   23.3160 C.ar  400  BZT400      0.0485
      3  C3       -23.4150  -31.8990   22.2780 C.ar  400  BZT400      0.0323
      4  C4       -22.1640  -31.2090   22.1440 C.ar  400  BZT400      0.0030
      5  C5       -21.8720  -30.1510   23.0670 C.ar  400  BZT400      0.0035
      6  C6       -22.7970  -29.7740   24.1230 C.ar  400  BZT400      0.0421
      7  S1       -23.5320  -33.1090   21.0650 S.2   400  BZT400     -0.0871
      8  C8       -22.0620  -32.7980   20.3770 C.ar  400  BZT400      0.0258
      9  C9       -21.3850  -31.7250   21.0720 C.ar  400  BZT400     -0.0113
     10  C7       -19.9710  -31.4780   20.7020 C.3   400  BZT400      0.0531
     11  C10      -21.5630  -33.5970   19.2000 C.ar  400  BZT400      0.0059
     12  C12      -20.9090  -33.0210   18.0190 C.ar  400  BZT400      0.0036
     13  C14      -20.4460  -33.8360   16.9690 C.ar  400  BZT400      0.0369
     14  C16      -20.5930  -35.2450   17.0130 C.ar  400  BZT400      0.1386
     15  C18      -21.2520  -35.8150   18.1900 C.ar  400  BZT400      0.0369
     16  C20      -21.7360  -35.0190   19.2830 C.ar  400  BZT400      0.0036
     17  O2       -20.0690  -35.9550   15.8820 O.3   400  BZT400     -0.4740
     18  C24      -20.1990  -37.4370   15.8820 C.3   400  BZT400      0.2226
     19  C11      -19.0980  -33.6610   21.9920 C.ar  400  BZT400     -0.0042
     20  C13      -18.8100  -32.5210   21.1830 C.ar  400  BZT400     -0.0173
     21  C15      -17.4520  -32.3350   20.7780 C.ar  400  BZT400      0.0025
     22  C32      -16.4170  -33.2730   21.1780 C.ar  400  BZT400      0.0316
     23  C19      -16.7000  -34.4010   21.9880 C.ar  400  BZT400      0.0001
     24  C21      -18.0690  -34.5420   22.3680 C.ar  400  BZT400     -0.0027
     25 BR1       -14.7860  -32.8190   20.5240 Br    400  BZT400     -0.0493
     26  C31      -15.6910  -35.4540   22.4810 C.3   400  BZT400      0.0996
     27  C17      -14.2590  -35.6570   25.9730 C.3   400  BZT400      0.0188
     28  C23      -14.4620  -34.1290   25.8850 C.3   400  BZT400      0.0188
     29  C26      -14.6010  -34.0250   24.3150 C.3   400  BZT400      0.0724
     30  N2       -15.2820  -35.3250   23.8710 N.3   400  BZT400     -0.2690
     31  C27      -14.3020  -36.2570   24.5330 C.3   400  BZT400      0.0724
     32  C22      -17.3350  -38.2190   13.5550 C.3   400  BZT400      0.0722
     33  N3       -18.1380  -38.5400   14.7330 N.3   400  BZT400     -0.2696
     34  C28      -17.8940  -39.9830   14.8510 C.3   400  BZT400      0.0722
     35  C29      -16.3620  -39.9680   14.9020 C.3   400  BZT400      0.0188
     36  C30      -15.9450  -38.7570   14.0180 C.3   400  BZT400      0.0188
     37  C34      -19.6010  -38.1560   14.6320 C.3   400  BZT400      0.1200
     38  O1       -24.8940  -30.0890   25.2580 O.3   400  BZT400     -0.2866
@<TRIPOS>BOND
     1    32    36    1
     2    32    33    1
     3    36    35    1
     4    37    33    1
     5    37    18    1
     6    33    34    1
     7    34    35    1
     8    17    18    1
     9    17    14    1
    10    13    14   ar
    11    13    12   ar
    12    14    15   ar
    13    12    11   ar
    14    15    16   ar
    15    11    16   ar
    16    11     8    1
    17     8     7   ar
    18     8     9   ar
    19    25    22    1
    20    10     9    1
    21    10    20    1
    22    21    22   ar
    23    21    20   ar
    24     7     3   ar
    25     9     4   ar
    26    22    23   ar
    27    20    19   ar
    28    23    24   ar
    29    23    26    1
    30    19    24   ar
    31     4     3   ar
    32     4     5   ar
    33     3     2   ar
    34    26    30    1
    35     5     6   ar
    36     2     1   ar
    37    30    29    1
    38    30    31    1
    39     6     1   ar
    40     1    38    1
    41    29    28    1
    42    31    27    1
    43    28    27    1
