@<TRIPOS>MOLECULE
1d3g_BRE_A_1.pdb
 27 30 0 0 0
SMALL
GASTEIGER

@<TRIPOS>ATOM
      1  C1        50.0330   43.3060   -5.2500 C.3   397  BRE397      0.0339
      2  C2        49.7120   42.4580   -4.0370 C.2   397  BRE397      0.0141
      3  C3        50.2340   42.7540   -2.7920 C.2   397  BRE397      0.1272
      4  C4        48.8510   41.3720   -4.1630 C.2   397  BRE397      0.0805
      5  N1        49.9670   41.9490   -1.7270 N.2   397  BRE397     -0.4062
      6  C5        48.2990   41.0310   -5.5210 C.2   397  BRE397      0.3876
      7  C23       51.1700   43.8720   -2.4830 C.ar  397  BRE397      0.0293
      8  C6        48.5240   40.5940   -3.0520 C.2   397  BRE397      0.0341
      9  C7        49.1130   40.9190   -1.8360 C.2   397  BRE397      0.1136
     10  C8        52.2830   44.0620   -3.3090 C.ar  397  BRE397      0.0025
     11  C9        50.9840   44.6410   -1.3570 C.ar  397  BRE397      0.0025
     12  O1        47.1710   41.2320   -5.8680 O.co2 397  BRE397     -0.2406
     13  O2        49.1690   40.4600   -6.3790 O.co2 397  BRE397     -0.2406
     14  C10       47.5990   39.5560   -3.0780 C.2   397  BRE397      0.0317
     15  C11       48.7810   40.2100   -0.6860 C.3   397  BRE397      0.0872
     16  C12       53.1650   45.0550   -2.9440 C.ar  397  BRE397      0.0001
     17  C13       51.8860   45.6300   -1.0000 C.ar  397  BRE397      0.0001
     18  C14       47.2690   38.8550   -1.9320 C.2   397  BRE397      0.1364
     19  C15       47.8720   39.1670   -0.7230 C.2   397  BRE397      0.0110
     20  C16       52.9960   45.8600   -1.8290 C.ar  397  BRE397      0.0000
     21  F1        46.3970   37.9740   -1.9620 F     397  BRE397     -0.2045
     22  C17       54.0720   46.8850   -1.4230 C.ar  397  BRE397      0.0000
     23  C18       54.6510   46.7710   -0.1480 C.ar  397  BRE397      0.0000
     24  C19       54.6160   47.7880   -2.3290 C.ar  397  BRE397      0.0000
     25  C20       55.6780   47.6130    0.2470 C.ar  397  BRE397      0.0000
     26  C21       56.1860   48.5320   -0.6530 C.ar  397  BRE397      0.0000
     27  C22       55.6390   48.6290   -1.9150 C.ar  397  BRE397      0.0000
@<TRIPOS>BOND
     1    13     6   ar
     2    12     6   ar
     3     6     4    1
     4     1     2    1
     5     4     2    2
     6     4     8    1
     7     2     3    1
     8    10    16   ar
     9    10     7   ar
    10    14     8    2
    11    14    18    1
    12     8     9    1
    13    16    20   ar
    14     3     7    1
    15     3     5    2
    16     7    11   ar
    17    24    27   ar
    18    24    22   ar
    19    21    18    1
    20    18    19    2
    21    27    26   ar
    22     9     5    2
    23     9    15    1
    24    20    22    1
    25    20    17   ar
    26    22    23   ar
    27    11    17   ar
    28    19    15    1
    29    26    25   ar
    30    23    25   ar
