@<TRIPOS>MOLECULE
1d3g_FMN_A_1.pdb
 31 33 0 0 0
SMALL
GASTEIGER

@<TRIPOS>ATOM
      1  N1        41.9300   36.3360    8.4170 N.2   398  FMN398     -0.2887
      2  C2        42.3430   35.7130    9.5410 C.1   398  FMN398      0.3669
      3  O2        41.8080   35.8130   10.6130 O.2   398  FMN398     -0.1744
      4  N3        43.4880   34.8810    9.4560 N.2   398  FMN398     -0.2300
      5  C4        44.1890   34.6720    8.3240 C.1   398  FMN398      0.2513
      6  O4        45.1990   33.9350    8.3360 O.2   398  FMN398     -0.2057
      7  C4A       43.7220   35.3240    7.1200 C.2   398  FMN398      0.2706
      8  N5        44.3630   35.1900    5.9810 N.2   398  FMN398     -0.3841
      9  C5A       43.9410   35.9130    4.9120 C.2   398  FMN398      0.1452
     10  C6        44.6330   35.8700    3.6590 C.2   398  FMN398      0.0252
     11  C7        44.3050   36.6220    2.5910 C.2   398  FMN398     -0.0375
     12  C7M       45.0710   36.5910    1.2660 C.3   398  FMN398      0.0268
     13  C8        43.1860   37.4940    2.6840 C.3   398  FMN398      0.0417
     14  C8M       42.7670   38.3630    1.5380 C.3   398  FMN398      0.0091
     15  C9        42.4750   37.5150    3.8580 C.2   398  FMN398     -0.0049
     16  C9A       42.8200   36.7800    4.9740 C.2   398  FMN398      0.0795
     17  N10       42.1360   36.8420    6.1750 N.pl3 398  FMN398     -0.2545
     18  C10       42.5410   36.1780    7.2690 C.2   398  FMN398      0.2449
     19  C1'       40.9580   37.7300    6.2940 C.3   398  FMN398      0.1336
     20  C2'       41.2990   39.1750    6.5300 C.3   398  FMN398      0.2048
     21  O2'       41.8630   39.3560    7.8450 O.3   398  FMN398     -0.2185
     22  C3'       40.0270   40.0400    6.5010 C.3   398  FMN398      0.2165
     23  O3'       39.1310   39.6100    7.5770 O.3   398  FMN398     -0.2175
     24  C4'       39.2530   39.9860    5.2070 C.3   398  FMN398      0.2147
     25  O4'       40.1510   39.8230    4.0910 O.3   398  FMN398     -0.2176
     26  C5'       38.3590   41.1690    4.9580 C.3   398  FMN398      0.1892
     27  O5'       39.0910   42.3910    4.8460 O.3   398  FMN398     -0.2674
     28  P         39.4860   43.0790    3.4650 P.3   398  FMN398      0.5327
     29  O1P       40.5790   42.1930    2.8930 O.3   398  FMN398     -0.1145
     30  O2P       40.0100   44.4330    3.8380 O.3   398  FMN398     -0.1145
     31  O3P       38.2070   43.0720    2.6090 O.2   398  FMN398     -0.2224
@<TRIPOS>BOND
     1    12    11    1
     2    14    13    1
     3    11    13    1
     4    11    10    2
     5    31    28    2
     6    13    15    1
     7    29    28    1
     8    28    30    1
     9    28    27    1
    10    10     9    1
    11    15    16    2
    12    25    24    1
    13    27    26    1
    14     9    16    1
    15     9     8    2
    16    26    24    1
    17    16    17    1
    18    24    22    1
    19     8     7    2
    20    17    19    1
    21    17    18    1
    22    19    20    1
    23    22    20    1
    24    22    23    1
    25    20    21    1
    26     7    18    1
    27     7     5    1
    28    18     1    2
    29     5     6    2
    30     5     4    2
    31     1     2    2
    32     4     2    2
    33     2     3    2
