@<TRIPOS>MOLECULE
1d3h_FMN_A_1.pdb
 31 33 0 0 0
SMALL
GASTEIGER

@<TRIPOS>ATOM
      1  N1        41.7560   36.2120    8.5900 N.2   398  FMN398     -0.2890
      2  C2        42.1720   35.5790    9.7170 C.1   398  FMN398      0.3669
      3  O2        41.6210   35.7040   10.7840 O.2   398  FMN398     -0.1744
      4  N3        43.3100   34.7270    9.6280 N.2   398  FMN398     -0.2300
      5  C4        44.0050   34.4850    8.5200 C.1   398  FMN398      0.2513
      6  O4        44.9940   33.7330    8.5530 O.2   398  FMN398     -0.2057
      7  C4A       43.5460   35.1460    7.3010 C.2   398  FMN398      0.2700
      8  N5        44.1900   34.9840    6.1670 N.2   398  FMN398     -0.3878
      9  C5A       43.7790   35.7120    5.0920 C.2   398  FMN398      0.1320
     10  C6        44.4880   35.6230    3.8500 C.2   398  FMN398      0.0250
     11  C7        44.1610   36.3790    2.7730 C.2   398  FMN398     -0.0238
     12  C7M       44.9570   36.2780    1.4650 C.3   398  FMN398      0.0308
     13  C8        43.0660   37.2720    2.8410 C.2   398  FMN398     -0.0280
     14  C8M       42.6690   38.1310    1.6540 C.3   398  FMN398      0.0304
     15  C9        42.3440   37.3420    4.0080 C.2   398  FMN398     -0.0041
     16  C9A       42.6870   36.6010    5.1340 C.3   398  FMN398      0.1497
     17  N10       41.9900   36.6950    6.3420 N.pl3 398  FMN398     -0.2691
     18  C10       42.3830   36.0220    7.4430 C.2   398  FMN398      0.2416
     19  C1'       40.8280   37.5980    6.4410 C.3   398  FMN398      0.1294
     20  C2'       41.1940   39.0640    6.6060 C.3   398  FMN398      0.2044
     21  O2'       41.7610   39.2220    7.9390 O.3   398  FMN398     -0.2185
     22  C3'       39.9140   39.9410    6.6080 C.3   398  FMN398      0.2164
     23  O3'       38.9950   39.4780    7.6620 O.3   398  FMN398     -0.2175
     24  C4'       39.1280   39.8230    5.3040 C.3   398  FMN398      0.2147
     25  O4'       40.0300   39.6290    4.1980 O.3   398  FMN398     -0.2176
     26  C5'       38.2730   41.0560    5.0500 C.3   398  FMN398      0.1892
     27  O5'       39.0700   42.2330    4.9410 O.3   398  FMN398     -0.2674
     28  P         39.5380   42.8460    3.5370 P.3   398  FMN398      0.5327
     29  O1P       40.6170   41.9490    2.9680 O.3   398  FMN398     -0.1145
     30  O2P       40.0350   44.2320    3.8900 O.3   398  FMN398     -0.1145
     31  O3P       38.3030   42.9050    2.6250 O.2   398  FMN398     -0.2224
@<TRIPOS>BOND
     1    12    11    1
     2    14    13    1
     3    31    28    2
     4    11    13    1
     5    11    10    2
     6    13    15    2
     7    29    28    1
     8    28    30    1
     9    28    27    1
    10    10     9    1
    11    15    16    1
    12    25    24    1
    13    27    26    1
    14    26    24    1
    15     9    16    1
    16     9     8    2
    17    16    17    1
    18    24    22    1
    19     8     7    2
    20    17    19    1
    21    17    18    1
    22    19    20    1
    23    20    22    1
    24    20    21    1
    25    22    23    1
    26     7    18    1
    27     7     5    1
    28    18     1    2
    29     5     6    2
    30     5     4    2
    31     1     2    2
    32     4     2    2
    33     2     3    2
