@<TRIPOS>MOLECULE
1d3h_A26_A_1.pdb
 19 19 0 0 0
SMALL
GASTEIGER

@<TRIPOS>ATOM
      1  C1        50.1810   43.2660    0.0200 C.ar  397  A26397      0.0166
      2  C2        50.6820   44.4900    0.4310 C.ar  397  A26397      0.0052
      3  C3        51.1870   45.3780   -0.5400 C.ar  397  A26397      0.0715
      4  C4        51.1660   45.0150   -1.8730 C.ar  397  A26397      0.0052
      5  C5        50.6520   43.8260   -2.2890 C.ar  397  A26397      0.0166
      6  C6        50.1500   42.9190   -1.3190 C.ar  397  A26397      0.0737
      7  C11       51.7730   46.7000   -0.1590 C.3   397  A26397      0.4186
      8  F12       52.7580   46.9440   -0.7650 F     397  A26397     -0.1659
      9  F13       52.0500   46.6020    1.0900 F     397  A26397     -0.1659
     10  F14       50.9500   47.3820   -0.0700 F     397  A26397     -0.1659
     11  N15       49.6420   41.7010   -1.6210 N.am  397  A26397     -0.1748
     12  C16       49.1460   41.2830   -2.7790 C.2   397  A26397      0.2815
     13  C17       48.3010   40.0430   -2.8350 C.2   397  A26397      0.1581
     14  C18       47.7490   39.7500   -4.1330 C.1   397  A26397      0.1080
     15  C19       48.0610   39.3550   -1.6810 C.2   397  A26397      0.1876
     16  O20       48.6190   39.7530   -0.5020 O.2   397  A26397     -0.2905
     17  C21       47.3010   38.0580   -1.5100 C.3   397  A26397      0.0782
     18  O25       49.2510   41.9160   -3.8450 O.2   397  A26397     -0.2672
     19  N26       47.1810   39.2610   -5.0110 N.1   397  A26397     -0.1906
@<TRIPOS>BOND
     1    19    14    3
     2    14    13    1
     3    18    12    2
     4    13    12    1
     5    13    15    2
     6    12    11   am
     7     5     4   ar
     8     5     6   ar
     9     4     3   ar
    10    15    17    1
    11    15    16    1
    12    11     6    1
    13     6     1   ar
    14     8     7    1
    15     3     7    1
    16     3     2   ar
    17     7    10    1
    18     7     9    1
    19     1     2   ar
