@<TRIPOS>MOLECULE
1d3p_BT3_B_1.pdb
 39 44 0 0 0
SMALL
GASTEIGER

@<TRIPOS>ATOM
      1  C1       -23.9940  -30.7750   24.3250 C.ar  400  BT3400      0.1962
      2  C2       -24.3270  -32.0090   23.5060 C.ar  400  BT3400      0.0485
      3  C3       -23.4380  -32.3890   22.3880 C.ar  400  BT3400      0.0323
      4  C4       -22.2370  -31.5650   22.0390 C.ar  400  BT3400      0.0030
      5  C5       -21.9300  -30.3610   22.8010 C.ar  400  BT3400      0.0035
      6  C6       -22.7970  -29.9500   23.9710 C.ar  400  BT3400      0.0421
      7  S1       -23.4720  -33.7660   21.3860 S.2   400  BT3400     -0.0871
      8  C8       -22.0890  -33.3730   20.4860 C.ar  400  BT3400      0.0273
      9  C9       -21.4850  -32.1650   20.9830 C.ar  400  BT3400     -0.0113
     10  C7       -20.0220  -31.7720   20.6760 C.3   400  BT3400      0.0531
     11  C10      -21.5670  -34.2480   19.4080 C.ar  400  BT3400      0.0251
     12  C12      -20.9210  -33.7190   18.1810 C.ar  400  BT3400      0.0068
     13  C14      -20.2840  -34.6560   17.1910 C.ar  400  BT3400      0.0577
     14  C16      -20.4120  -36.1460   17.5260 C.ar  400  BT3400      0.2249
     15  N1       -21.0100  -36.6180   18.7200 N.ar  400  BT3400     -0.2101
     16  C20      -21.5800  -35.7130   19.6340 C.ar  400  BT3400      0.1025
     17  O2       -20.2720  -36.9910   16.5030 O.3   400  BT3400     -0.4587
     18  C24      -19.2670  -38.0560   16.8160 C.3   400  BT3400      0.2244
     19  C11      -18.9900  -33.8760   22.0940 C.ar  400  BT3400     -0.0008
     20  C13      -18.8250  -32.6320   21.2430 C.ar  400  BT3400     -0.0176
     21  C15      -17.4020  -32.2260   20.9170 C.ar  400  BT3400     -0.0008
     22  C32      -16.2300  -33.0930   21.3540 C.ar  400  BT3400      0.0366
     23  C19      -16.4900  -34.3800   22.0930 C.ar  400  BT3400      0.1386
     24  C21      -17.8510  -34.7010   22.5430 C.ar  400  BT3400      0.0366
     25  O3       -15.4370  -35.2690   22.1850 O.3   400  BT3400     -0.4740
     26  C25      -15.2970  -36.3530   23.1420 C.3   400  BT3400      0.2226
     27  C17      -13.3210  -33.9030   26.1030 C.3   400  BT3400      0.0188
     28  C23      -14.3200  -34.1770   27.1840 C.3   400  BT3400      0.0188
     29  C26      -15.1360  -35.4110   26.7880 C.3   400  BT3400      0.0722
     30  N2       -14.5280  -35.7720   25.4690 N.3   400  BT3400     -0.2696
     31  C27      -13.7400  -34.6460   24.8620 C.3   400  BT3400      0.0722
     32  C22      -18.3920  -37.5470   13.8330 C.3   400  BT3400      0.0722
     33  N3       -17.7740  -38.3120   14.9930 N.3   400  BT3400     -0.2696
     34  C28      -16.5970  -39.1690   14.5220 C.3   400  BT3400      0.0722
     35  C29      -16.1140  -38.3340   13.3300 C.3   400  BT3400      0.0188
     36  C30      -17.1020  -37.1810   13.1160 C.3   400  BT3400      0.0188
     37  C33      -15.6990  -36.0210   24.5810 C.3   400  BT3400      0.1200
     38  C34      -19.0660  -38.8860   15.5360 C.3   400  BT3400      0.1201
     39  O1       -24.6930  -30.4970   25.4850 O.3   400  BT3400     -0.2866
@<TRIPOS>BOND
     1    36    35    1
     2    36    32    1
     3    35    34    1
     4    32    33    1
     5    34    33    1
     6    33    38    1
     7    38    18    1
     8    17    18    1
     9    17    14    1
    10    13    14   ar
    11    13    12   ar
    12    14    15   ar
    13    12    11   ar
    14    15    16   ar
    15    11    16   ar
    16    11     8    1
    17     8     9   ar
    18     8     7   ar
    19    10     9    1
    20    10    20    1
    21    21    20   ar
    22    21    22   ar
    23     9     4   ar
    24    20    19   ar
    25    22    23   ar
    26     7     3   ar
    27     4     3   ar
    28     4     5   ar
    29    23    25    1
    30    23    24   ar
    31    19    24   ar
    32    25    26    1
    33     3     2   ar
    34     5     6   ar
    35    26    37    1
    36     2     1   ar
    37     6     1   ar
    38     1    39    1
    39    37    30    1
    40    31    30    1
    41    31    27    1
    42    30    29    1
    43    27    28    1
    44    29    28    1
