@<TRIPOS>MOLECULE
1d3q_BT2_B_1.pdb
 38 43 0 0 0
SMALL
GASTEIGER

@<TRIPOS>ATOM
      1  C1       -24.4230  -31.4070   24.2210 C.ar  400  BT2400      0.0005
      2  C2       -24.6650  -32.4170   23.0810 C.ar  400  BT2400      0.0065
      3  C3       -23.6790  -32.6080   21.9900 C.ar  400  BT2400      0.0292
      4  C4       -22.4190  -31.8410   21.9370 C.ar  400  BT2400      0.0028
      5  C5       -22.1770  -30.8350   22.9600 C.ar  400  BT2400      0.0002
      6  C6       -23.1530  -30.5660   24.1330 C.ar  400  BT2400      0.0000
      7  S1       -23.6470  -33.8000   20.8240 S.2   400  BT2400     -0.0873
      8  C8       -22.0880  -33.4520   20.1540 C.ar  400  BT2400      0.0258
      9  C9       -21.5320  -32.3500   20.8900 C.ar  400  BT2400     -0.0113
     10  C7       -20.0330  -31.8890   20.7210 C.3   400  BT2400      0.0531
     11  C10      -21.4260  -34.1300   18.9550 C.ar  400  BT2400      0.0059
     12  C12      -20.6730  -33.4050   17.8610 C.ar  400  BT2400      0.0036
     13  C14      -19.8730  -34.1180   16.7580 C.ar  400  BT2400      0.0369
     14  C16      -19.8620  -35.6420   16.7600 C.ar  400  BT2400      0.1386
     15  C18      -20.6000  -36.3640   17.9070 C.ar  400  BT2400      0.0369
     16  C20      -21.3850  -35.5920   18.9530 C.ar  400  BT2400      0.0036
     17  O2       -19.2780  -36.3290   15.6790 O.3   400  BT2400     -0.4740
     18  C24      -19.7400  -37.7380   15.4470 C.3   400  BT2400      0.2226
     19  C11      -19.0820  -34.1270   22.0000 C.ar  400  BT2400     -0.0008
     20  C13      -18.8900  -32.7840   21.3360 C.ar  400  BT2400     -0.0176
     21  C15      -17.4420  -32.2930   21.2360 C.ar  400  BT2400     -0.0008
     22  C32      -16.2420  -33.1290   21.7230 C.ar  400  BT2400      0.0366
     23  C19      -16.4770  -34.5320   22.2930 C.ar  400  BT2400      0.1386
     24  C21      -17.9200  -34.9490   22.4970 C.ar  400  BT2400      0.0366
     25  O3       -15.4510  -35.4620   22.4970 O.3   400  BT2400     -0.4734
     26  C25      -15.4980  -36.3170   23.6870 C.3   400  BT2400      0.2297
     27  C17      -13.6880  -34.0420   27.4530 C.ar  400  BT2400      0.0202
     28  C23      -13.3740  -33.1640   26.2400 C.ar  400  BT2400      0.0202
     29  C26      -13.5440  -33.9740   24.9710 C.ar  400  BT2400      0.0761
     30  N2       -14.0910  -35.3050   25.4950 N.ar  400  BT2400     -0.3211
     31  C27      -14.0850  -35.4630   26.9900 C.ar  400  BT2400      0.0761
     32  C22      -16.5820  -39.7150   14.1100 C.3   400  BT2400      0.0722
     33  N3       -17.5190  -39.0810   15.1530 N.3   400  BT2400     -0.2696
     34  C28      -17.7980  -39.9780   16.3550 C.3   400  BT2400      0.0722
     35  C29      -17.3290  -41.3500   15.8450 C.3   400  BT2400      0.0188
     36  C30      -16.7400  -41.2040   14.4320 C.3   400  BT2400      0.0188
     37  C33      -14.1860  -36.4010   24.4910 C.3   400  BT2400      0.1533
     38  C34      -18.8370  -38.6190   14.5710 C.3   400  BT2400      0.1200
@<TRIPOS>BOND
     1    32    36    1
     2    32    33    1
     3    36    35    1
     4    38    33    1
     5    38    18    1
     6    33    34    1
     7    18    17    1
     8    17    14    1
     9    35    34    1
    10    13    14   ar
    11    13    12   ar
    12    14    15   ar
    13    12    11   ar
    14    15    16   ar
    15    16    11   ar
    16    11     8    1
    17     8     7   ar
    18     8     9   ar
    19    10     9    1
    20    10    20    1
    21     7     3   ar
    22     9     4   ar
    23    21    20   ar
    24    21    22   ar
    25    20    19   ar
    26    22    23   ar
    27     4     3   ar
    28     4     5   ar
    29     3     2   ar
    30    19    24   ar
    31    23    24   ar
    32    23    25    1
    33    25    26    1
    34     5     6   ar
    35     2     1   ar
    36    26    37    1
    37     6     1   ar
    38    37    30    1
    39    29    30   ar
    40    29    28   ar
    41    30    31   ar
    42    28    27   ar
    43    31    27   ar
