@<TRIPOS>MOLECULE
1d3s_HEM_A_1.pdb
 43 50 0 0 0
SMALL
GASTEIGER

@<TRIPOS>ATOM
      1 FE         10.8300   20.1980   36.4220 Fe    185  HEM185      0.0000
      2  CHA       11.2910   23.2410   34.9950 C.2   185  HEM185      0.0000
      3  CHB        7.4450   20.5730   36.0670 C.2   185  HEM185      0.0000
      4  CHC       10.3840   17.5240   38.3530 C.2   185  HEM185      0.0000
      5  CHD       14.2150   19.7280   36.4840 C.2   185  HEM185      0.0000
      6  NA         9.6040   21.5930   35.6110 N.ar  185  HEM185      0.0000
      7  C1A        9.9990   22.8340   35.1190 C.ar  185  HEM185      0.0000
      8  C2A        8.8280   23.5860   34.7550 C.ar  185  HEM185      0.0000
      9  C3A        7.7620   22.8870   35.1280 C.ar  185  HEM185      0.0000
     10  C4A        8.2260   21.6130   35.6180 C.ar  185  HEM185      0.0000
     11  CMA        6.2900   23.2990   35.0070 C.3   185  HEM185      0.0000
     12  CAA        8.8260   25.0350   34.1720 C.3   185  HEM185      0.0000
     13  CBA        8.5590   26.0600   35.2670 C.3   185  HEM185      0.0000
     14  CGA        8.6340   27.5090   34.9140 C.2   185  HEM185      0.0000
     15  O1A        9.4100   27.8510   33.9830 O.co2 185  HEM185      0.0000
     16  O2A        7.8300   28.2780   35.4720 O.co2 185  HEM185      0.0000
     17  NB         9.2640   19.2430   37.0500 N.2   185  HEM185      0.0000
     18  C1B        7.9360   19.4550   36.7230 C.2   185  HEM185      0.0000
     19  C2B        7.1020   18.4440   37.3430 C.2   185  HEM185      0.0000
     20  C3B        7.9000   17.6830   38.1000 C.2   185  HEM185      0.0000
     21  C4B        9.2500   18.1630   37.9020 C.2   185  HEM185      0.0000
     22  CMB        5.5760   18.4510   37.1310 C.3   185  HEM185      0.0000
     23  CAB        7.5320   16.5130   39.0280 C.2   185  HEM185      0.0000
     24  CBB        6.3260   16.1670   39.3900 C.2   185  HEM185      0.0000
     25  NC        12.0730   18.8790   37.2490 N.ar  185  HEM185      0.0000
     26  C1C       11.6790   17.7860   37.9850 C.ar  185  HEM185      0.0000
     27  C2C       12.8700   17.1970   38.5500 C.ar  185  HEM185      0.0000
     28  C3C       13.9240   17.6370   37.8480 C.ar  185  HEM185      0.0000
     29  C4C       13.4670   18.7990   37.1270 C.ar  185  HEM185      0.0000
     30  CMC       12.7940   15.8940   39.3610 C.3   185  HEM185      0.0000
     31  CAC       15.3660   17.1580   38.0690 C.2   185  HEM185      0.0000
     32  CBC       16.4630   17.3890   37.3820 C.2   185  HEM185      0.0000
     33  ND        12.4420   21.2390   35.7320 N.2   185  HEM185      0.0000
     34  C1D       13.7610   20.9010   35.9030 C.2   185  HEM185      0.0000
     35  C2D       14.5830   21.9010   35.2640 C.2   185  HEM185      0.0000
     36  C3D       13.7760   22.8070   34.7120 C.2   185  HEM185      0.0000
     37  C4D       12.4310   22.5030   35.1550 C.2   185  HEM185      0.0000
     38  CMD       16.1150   21.7410   35.0840 C.3   185  HEM185      0.0000
     39  CAD       14.1560   24.1410   34.0060 C.3   185  HEM185      0.0000
     40  CBD       13.8310   24.0160   32.5140 C.3   185  HEM185      0.0000
     41  CGD       14.2110   25.1200   31.5810 C.2   185  HEM185      0.0000
     42  O1D       15.2520   24.9310   30.8880 O.co2 185  HEM185      0.0000
     43  O2D       13.8090   26.2490   31.9230 O.co2 185  HEM185      0.0000
@<TRIPOS>BOND
     1    42    41   ar
     2    41    43   ar
     3    41    40    1
     4    40    39    1
     5    15    14   ar
     6    39    36    1
     7    12     8    1
     8    12    13    1
     9    36    37    1
    10    36    35    2
    11     8     7   ar
    12     8     9   ar
    13    14    13    1
    14    14    16   ar
    15     2     7    2
    16     2    37    1
    17    11     9    1
    18    38    35    1
    19     7     6   ar
    20     9    10   ar
    21    37    33    2
    22    35    34    1
    23     6    10   ar
    24     6     1    1
    25    10     3    2
    26    33    34    1
    27    33     1    1
    28    34     5    2
    29     3    18    1
    30     1    17    1
    31     1    25    1
    32     5    29    1
    33    18    17    2
    34    18    19    1
    35    17    21    1
    36    29    25   ar
    37    29    28   ar
    38    22    19    1
    39    25    26   ar
    40    19    20    2
    41    32    31    2
    42    28    31    1
    43    28    27   ar
    44    21    20    1
    45    21     4    2
    46    26     4    1
    47    26    27   ar
    48    20    23    1
    49    27    30    1
    50    23    24    2
