@<TRIPOS>MOLECULE
1d3t_BT1_B_1.pdb
 39 44 0 0 0
SMALL
GASTEIGER

@<TRIPOS>ATOM
      1  C1       -24.7230  -31.4530   23.9900 C.ar  400  BT1400      0.0005
      2  C2       -24.8350  -32.7380   23.1170 C.ar  400  BT1400      0.0065
      3  C3       -23.7620  -33.1130   22.1740 C.ar  400  BT1400      0.0296
      4  C4       -22.5480  -32.2820   21.9750 C.ar  400  BT1400      0.0096
      5  C5       -22.4150  -31.0500   22.7210 C.ar  400  BT1400      0.0006
      6  C6       -23.4900  -30.5780   23.7830 C.ar  400  BT1400      0.0000
      7  S1       -23.6370  -34.5220   21.2860 S.2   400  BT1400     -0.0868
      8  C8       -22.1460  -34.1800   20.5160 C.ar  400  BT1400      0.0325
      9  C9       -21.6410  -32.9460   21.0690 C.ar  400  BT1400      0.0455
     10  C7       -20.2840  -32.5420   20.9470 C.2   400  BT1400      0.1975
     11  C10      -21.5680  -34.9660   19.3500 C.ar  400  BT1400      0.0063
     12  C12      -21.6620  -36.4350   19.4150 C.ar  400  BT1400      0.0036
     13  C14      -20.9700  -37.3640   18.4340 C.ar  400  BT1400      0.0369
     14  C16      -20.1360  -36.7750   17.2960 C.ar  400  BT1400      0.1386
     15  C18      -20.0970  -35.2440   17.1600 C.ar  400  BT1400      0.0369
     16  C20      -20.8290  -34.3770   18.2050 C.ar  400  BT1400      0.0036
     17  O2       -19.4400  -37.5680   16.3530 O.3   400  BT1400     -0.4734
     18  C24      -19.1160  -38.9780   16.6680 C.3   400  BT1400      0.2297
     19  C11      -17.6260  -32.7780   20.8930 C.ar  400  BT1400      0.0095
     20  C13      -19.0180  -33.3400   21.2670 C.ar  400  BT1400      0.0583
     21  C15      -19.0230  -34.6990   22.0020 C.ar  400  BT1400      0.1052
     22  N1       -17.8500  -35.3760   22.3460 N.ar  400  BT1400     -0.2100
     23  C19      -16.4930  -34.8700   22.1250 C.ar  400  BT1400      0.2249
     24  C21      -16.3640  -33.5290   21.3700 C.ar  400  BT1400      0.0578
     25  O3       -15.2930  -35.5380   22.5170 O.3   400  BT1400     -0.4587
     26  C25      -15.4180  -36.3100   23.7620 C.3   400  BT1400      0.2244
     27  C17      -14.7550  -34.0290   26.7560 C.3   400  BT1400      0.0188
     28  C23      -13.4160  -33.6890   26.1460 C.3   400  BT1400      0.0188
     29  C26      -12.9450  -34.8620   25.2880 C.3   400  BT1400      0.0722
     30  N2       -13.8310  -36.0180   25.7150 N.3   400  BT1400     -0.2696
     31  C27      -15.0620  -35.4860   26.4390 C.3   400  BT1400      0.0722
     32  C22      -17.2180  -41.3780   14.2850 C.ar  400  BT1400      0.0761
     33  N3       -17.6700  -40.0650   14.8790 N.ar  400  BT1400     -0.3211
     34  C28      -16.8780  -38.8640   14.3960 C.ar  400  BT1400      0.0761
     35  C29      -15.8120  -39.4700   13.4850 C.ar  400  BT1400      0.0202
     36  C30      -16.0860  -40.9650   13.3360 C.ar  400  BT1400      0.0202
     37  C33      -14.0850  -36.7280   24.4030 C.3   400  BT1400      0.1201
     38  C34      -19.0460  -39.8880   15.4280 C.3   400  BT1400      0.1533
     39  O1       -20.1430  -31.3850   20.5350 O.2   400  BT1400     -0.2865
@<TRIPOS>BOND
     1    36    35   ar
     2    36    32   ar
     3    35    34   ar
     4    32    33   ar
     5    34    33   ar
     6    33    38    1
     7    38    18    1
     8    17    18    1
     9    17    14    1
    10    15    14   ar
    11    15    16   ar
    12    14    13   ar
    13    16    11   ar
    14    13    12   ar
    15    11    12   ar
    16    11     8    1
    17     8     9   ar
    18     8     7   ar
    19    39    10    2
    20    19    20   ar
    21    19    24   ar
    22    10     9    1
    23    10    20    1
    24     9     4   ar
    25    20    21   ar
    26     7     3   ar
    27    24    23   ar
    28     4     3   ar
    29     4     5   ar
    30    21    22   ar
    31    23    22   ar
    32    23    25    1
    33     3     2   ar
    34    25    26    1
    35     5     6   ar
    36     2     1   ar
    37    26    37    1
    38     6     1   ar
    39    37    30    1
    40    29    30    1
    41    29    28    1
    42    30    31    1
    43    28    27    1
    44    31    27    1
