@<TRIPOS>MOLECULE
1d3v_ABH_A_1.pdb
 13 12 0 0 0
SMALL
GASTEIGER

@<TRIPOS>ATOM
      1  N         23.0800   12.3040   -3.9240 N.3   551  ABH551      0.0000
      2  CA        22.9300   12.2520   -5.4030 C.3   551  ABH551      0.0000
      3  C         23.8930   13.3440   -5.9190 C.2   551  ABH551      0.0000
      4  O         24.1780   13.5660   -7.0630 O.co2 551  ABH551      0.0000
      5  OT        24.3900   14.0690   -4.8950 O.co2 551  ABH551      0.0000
      6  CB        21.4730   12.6040   -5.7980 C.3   551  ABH551      0.0000
      7  CG        20.9930   13.9780   -5.3450 C.3   551  ABH551      0.0000
      8  CD        19.4760   14.1420   -5.3740 C.3   551  ABH551      0.0000
      9  CE        19.0450   15.6080   -5.3240 C.3   551  ABH551      0.0000
     10  B         17.5050   15.9030   -5.1250 B     551  ABH551      0.0000
     11  O2        17.3020   17.3120   -4.8480 O.3   551  ABH551      0.0000
     12  O1        17.0110   15.1980   -3.9540 O.3   551  ABH551      0.0000
     13  O3        16.6620   15.5370   -6.2480 O.3   551  ABH551      0.0000
@<TRIPOS>BOND
     1     4     3   ar
     2    13    10    1
     3     3     2    1
     4     3     5   ar
     5     6     2    1
     6     6     7    1
     7     2     1    1
     8     8     7    1
     9     8     9    1
    10     9    10    1
    11    10    11    1
    12    10    12    1
