@<TRIPOS>MOLECULE
1d4c_HEM_A_1.pdb
 43 50 0 0 0
SMALL
GASTEIGER

@<TRIPOS>ATOM
      1 FE         17.6570   28.7000    6.9190 Fe    601  HEM601      0.0000
      2  CHA       16.2810   27.6730    9.8480 C.2   601  HEM601      0.0000
      3  CHB       16.2040   31.7790    7.3040 C.2   601  HEM601      0.0000
      4  CHC       19.5500   29.8110    4.4400 C.2   601  HEM601      0.0000
      5  CHD       18.0260   25.4900    5.8610 C.2   601  HEM601      0.0000
      6  NA        16.4630   29.5460    8.2880 N.2   601  HEM601      0.0000
      7  C1A       16.0360   28.9860    9.4800 C.2   601  HEM601      0.0000
      8  C2A       15.3550   30.0130   10.2480 C.2   601  HEM601      0.0000
      9  C3A       15.3170   31.1260    9.5320 C.2   601  HEM601      0.0000
     10  C4A       16.0290   30.8440    8.2850 C.2   601  HEM601      0.0000
     11  CMA       14.6930   32.4940    9.8580 C.3   601  HEM601      0.0000
     12  CAA       14.7430   29.8000   11.6560 C.3   601  HEM601      0.0000
     13  CBA       15.8100   29.1980   12.5990 C.3   601  HEM601      0.0000
     14  CGA       16.6400   30.3290   13.1600 C.2   601  HEM601      0.0000
     15  O1A       15.8430   31.2560   13.5100 O.co2 601  HEM601      0.0000
     16  O2A       17.8940   30.1970   13.1940 O.co2 601  HEM601      0.0000
     17  NB        17.8450   30.4660    6.0490 N.ar  601  HEM601      0.0000
     18  C1B       17.2010   31.6440    6.3780 C.ar  601  HEM601      0.0000
     19  C2B       17.6910   32.6960    5.4930 C.ar  601  HEM601      0.0000
     20  C3B       18.5910   32.1670    4.7090 C.ar  601  HEM601      0.0000
     21  C4B       18.7110   30.7570    4.9960 C.ar  601  HEM601      0.0000
     22  CMB       17.1620   34.1390    5.5820 C.3   601  HEM601      0.0000
     23  CAB       19.4310   32.8850    3.6290 C.3   601  HEM601      0.0000
     24  CBB       20.6130   33.3870    4.0830 C.3   601  HEM601      0.0000
     25  NC        18.6000   27.7960    5.4190 N.2   601  HEM601      0.0000
     26  C1C       19.4000   28.4330    4.4950 C.2   601  HEM601      0.0000
     27  C2C       19.9590   27.4410    3.6010 C.2   601  HEM601      0.0000
     28  C3C       19.5360   26.2440    4.0220 C.2   601  HEM601      0.0000
     29  C4C       18.6560   26.4530    5.1190 C.2   601  HEM601      0.0000
     30  CMC       20.8920   27.8210    2.4230 C.3   601  HEM601      0.0000
     31  CAC       19.8490   24.8460    3.4010 C.2   601  HEM601      0.0000
     32  CBC       21.0930   24.3230    3.3770 C.2   601  HEM601      0.0000
     33  ND        17.2060   26.9240    7.6860 N.ar  601  HEM601      0.0000
     34  C1D       17.5400   25.7070    7.1360 C.ar  601  HEM601      0.0000
     35  C2D       17.2700   24.6780    8.1060 C.ar  601  HEM601      0.0000
     36  C3D       16.7650   25.2950    9.1700 C.ar  601  HEM601      0.0000
     37  C4D       16.7150   26.7140    8.9650 C.ar  601  HEM601      0.0000
     38  CMD       17.5310   23.2010    7.8440 C.3   601  HEM601      0.0000
     39  CAD       16.3670   24.6950   10.5540 C.3   601  HEM601      0.0000
     40  CBD       17.6940   25.0980   11.3220 C.3   601  HEM601      0.0000
     41  CGD       18.2580   23.8250   11.8950 C.2   601  HEM601      0.0000
     42  O1D       17.3790   23.3690   12.6770 O.co2 601  HEM601      0.0000
     43  O2D       19.3690   23.4480   11.5410 O.co2 601  HEM601      0.0000
@<TRIPOS>BOND
     1    30    27    1
     2    32    31    2
     3    31    28    1
     4    27    28    2
     5    27    26    1
     6    23    24    1
     7    23    20    1
     8    28    29    1
     9     4    26    2
    10     4    21    1
    11    26    25    1
    12    20    21   ar
    13    20    19   ar
    14    21    17   ar
    15    29    25    2
    16    29     5    1
    17    25     1    1
    18    19    22    1
    19    19    18   ar
    20     5    34    2
    21    17    18   ar
    22    17     1    1
    23    18     3    1
    24     1    33    1
    25     1     6    1
    26    34    33   ar
    27    34    35   ar
    28     3    10    2
    29    33    37   ar
    30    38    35    1
    31    35    36   ar
    32    10     6    1
    33    10     9    1
    34     6     7    2
    35    37    36   ar
    36    37     2    2
    37    36    39    1
    38     7     2    1
    39     7     8    1
    40     9    11    1
    41     9     8    2
    42     8    12    1
    43    39    40    1
    44    40    41    1
    45    43    41   ar
    46    12    13    1
    47    41    42   ar
    48    13    14    1
    49    14    16   ar
    50    14    15   ar
