@<TRIPOS>MOLECULE
1d4d_HEM_A_1.pdb
 43 50 0 0 0
SMALL
GASTEIGER

@<TRIPOS>ATOM
      1 FE         10.5690   36.3120   27.0710 Fe    601  HEM601      0.0000
      2  CHA       13.4390   37.9180   26.2630 C.2   601  HEM601      0.0000
      3  CHB       11.7410   35.6970   30.1990 C.2   601  HEM601      0.0000
      4  CHC        7.4050   35.5770   28.0790 C.2   601  HEM601      0.0000
      5  CHD        9.7030   35.9850   23.8190 C.2   601  HEM601      0.0000
      6  NA        12.2840   36.7340   28.0420 N.2   601  HEM601      0.0000
      7  C1A       13.3990   37.4000   27.5530 C.2   601  HEM601      0.0000
      8  C2A       14.3980   37.4670   28.5960 C.2   601  HEM601      0.0000
      9  C3A       13.9130   36.8530   29.6690 C.2   601  HEM601      0.0000
     10  C4A       12.5790   36.3770   29.3430 C.2   601  HEM601      0.0000
     11  CMA       14.5500   36.6050   31.0620 C.3   601  HEM601      0.0000
     12  CAA       15.7980   38.1190   28.4640 C.3   601  HEM601      0.0000
     13  CBA       15.8420   39.6210   28.1950 C.3   601  HEM601      0.0000
     14  CGA       15.1430   40.4230   29.2690 C.2   601  HEM601      0.0000
     15  O1A       15.3350   40.0530   30.4680 O.co2 601  HEM601      0.0000
     16  O2A       14.4140   41.3590   28.8520 O.co2 601  HEM601      0.0000
     17  NB         9.7310   35.7260   28.8020 N.ar  601  HEM601      0.0000
     18  C1B       10.3880   35.5790   30.0180 C.ar  601  HEM601      0.0000
     19  C2B        9.4190   35.2680   31.0440 C.ar  601  HEM601      0.0000
     20  C3B        8.2150   35.2480   30.4610 C.ar  601  HEM601      0.0000
     21  C4B        8.3740   35.5150   29.0540 C.ar  601  HEM601      0.0000
     22  CMB        9.8160   35.0300   32.5270 C.3   601  HEM601      0.0000
     23  CAB        6.8760   34.9740   31.2310 C.3   601  HEM601      0.0000
     24  CBB        6.4030   36.0980   31.8470 C.3   601  HEM601      0.0000
     25  NC         8.8690   35.8540   26.1130 N.2   601  HEM601      0.0000
     26  C1C        7.6700   35.5290   26.7090 C.2   601  HEM601      0.0000
     27  C2C        6.7480   35.1280   25.6670 C.2   601  HEM601      0.0000
     28  C3C        7.3760   35.2900   24.5120 C.2   601  HEM601      0.0000
     29  C4C        8.7150   35.7150   24.7430 C.2   601  HEM601      0.0000
     30  CMC        5.2910   34.6710   25.9350 C.3   601  HEM601      0.0000
     31  CAC        6.8170   34.9470   23.0780 C.3   601  HEM601      0.0000
     32  CBC        5.7660   35.7290   22.7320 C.3   601  HEM601      0.0000
     33  ND        11.4060   36.8530   25.3520 N.ar  601  HEM601      0.0000
     34  C1D       10.8830   36.6620   24.0900 C.ar  601  HEM601      0.0000
     35  C2D       11.7800   37.2820   23.1420 C.ar  601  HEM601      0.0000
     36  C3D       12.8010   37.8050   23.8160 C.ar  601  HEM601      0.0000
     37  C4D       12.5980   37.5470   25.2220 C.ar  601  HEM601      0.0000
     38  CMD       11.5310   37.2820   21.6130 C.3   601  HEM601      0.0000
     39  CAD       14.0230   38.5780   23.2930 C.3   601  HEM601      0.0000
     40  CBD       13.8230   40.0250   22.8600 C.3   601  HEM601      0.0000
     41  CGD       15.0920   40.6160   22.2770 C.2   601  HEM601      0.0000
     42  O1D       15.6430   39.9930   21.3180 O.co2 601  HEM601      0.0000
     43  O2D       15.4550   41.6930   22.8350 O.co2 601  HEM601      0.0000
@<TRIPOS>BOND
     1    42    41   ar
     2    38    35    1
     3    41    43   ar
     4    41    40    1
     5    32    31    1
     6    40    39    1
     7    31    28    1
     8    35    36   ar
     9    35    34   ar
    10    39    36    1
    11    36    37   ar
    12     5    34    2
    13     5    29    1
    14    34    33   ar
    15    28    29    1
    16    28    27    2
    17    29    25    2
    18    37    33   ar
    19    37     2    2
    20    33     1    1
    21    27    30    1
    22    27    26    1
    23    25    26    1
    24    25     1    1
    25     2     7    1
    26    26     4    2
    27     1     6    1
    28     1    17    1
    29     7     6    2
    30     7     8    1
    31     6    10    1
    32     4    21    1
    33    13    12    1
    34    13    14    1
    35    12     8    1
    36     8     9    2
    37    17    21   ar
    38    17    18   ar
    39    16    14   ar
    40    21    20   ar
    41    14    15   ar
    42    10     9    1
    43    10     3    2
    44     9    11    1
    45    18     3    1
    46    18    19   ar
    47    20    19   ar
    48    20    23    1
    49    19    22    1
    50    23    24    1
