@<TRIPOS>MOLECULE
1d4e_HEM_A_1.pdb
 43 50 0 0 0
SMALL
GASTEIGER

@<TRIPOS>ATOM
      1 FE         10.6220   36.4170   27.0850 Fe    601  HEM601      0.0000
      2  CHA       13.4100   38.0150   26.2880 C.2   601  HEM601      0.0000
      3  CHB       11.7840   35.8110   30.2450 C.2   601  HEM601      0.0000
      4  CHC        7.4680   35.6270   28.0960 C.2   601  HEM601      0.0000
      5  CHD        9.6870   36.0840   23.8090 C.2   601  HEM601      0.0000
      6  NA        12.2880   36.8400   28.0810 N.2   601  HEM601      0.0000
      7  C1A       13.4000   37.5030   27.5670 C.2   601  HEM601      0.0000
      8  C2A       14.4250   37.5270   28.5760 C.2   601  HEM601      0.0000
      9  C3A       13.9640   36.9160   29.6630 C.2   601  HEM601      0.0000
     10  C4A       12.6050   36.4860   29.3820 C.2   601  HEM601      0.0000
     11  CMA       14.7040   36.6660   30.9930 C.3   601  HEM601      0.0000
     12  CAA       15.8140   38.1700   28.3480 C.3   601  HEM601      0.0000
     13  CBA       15.7600   39.6850   28.1300 C.3   601  HEM601      0.0000
     14  CGA       15.1340   40.4250   29.2860 C.2   601  HEM601      0.0000
     15  O1A       15.2970   39.9280   30.4450 O.co2 601  HEM601      0.0000
     16  O2A       14.5060   41.4700   28.9790 O.co2 601  HEM601      0.0000
     17  NB         9.7850   35.8120   28.7950 N.ar  601  HEM601      0.0000
     18  C1B       10.4440   35.6930   30.0120 C.ar  601  HEM601      0.0000
     19  C2B        9.4730   35.4060   31.0630 C.ar  601  HEM601      0.0000
     20  C3B        8.2750   35.3750   30.4800 C.ar  601  HEM601      0.0000
     21  C4B        8.4390   35.5920   29.0520 C.ar  601  HEM601      0.0000
     22  CMB        9.9020   35.2140   32.5290 C.3   601  HEM601      0.0000
     23  CAB        6.9530   35.0910   31.2440 C.2   601  HEM601      0.0000
     24  CBB        6.4120   36.1350   31.8910 C.2   601  HEM601      0.0000
     25  NC         8.9160   35.9160   26.1260 N.2   601  HEM601      0.0000
     26  C1C        7.7200   35.6120   26.7400 C.2   601  HEM601      0.0000
     27  C2C        6.7550   35.2900   25.7050 C.2   601  HEM601      0.0000
     28  C3C        7.3740   35.4790   24.5580 C.2   601  HEM601      0.0000
     29  C4C        8.7320   35.8270   24.7640 C.2   601  HEM601      0.0000
     30  CMC        5.2870   34.8970   26.0290 C.3   601  HEM601      0.0000
     31  CAC        6.7930   35.1660   23.1380 C.2   601  HEM601      0.0000
     32  CBC        5.9390   36.0740   22.6590 C.2   601  HEM601      0.0000
     33  ND        11.4070   36.9380   25.3720 N.ar  601  HEM601      0.0000
     34  C1D       10.8600   36.7740   24.0980 C.ar  601  HEM601      0.0000
     35  C2D       11.7530   37.4370   23.1580 C.ar  601  HEM601      0.0000
     36  C3D       12.7670   37.9610   23.8460 C.ar  601  HEM601      0.0000
     37  C4D       12.5750   37.6540   25.2470 C.ar  601  HEM601      0.0000
     38  CMD       11.5290   37.4790   21.6430 C.3   601  HEM601      0.0000
     39  CAD       14.0080   38.7430   23.4130 C.2   601  HEM601      0.0000
     40  CBD       13.9390   40.2140   23.1240 C.2   601  HEM601      0.0000
     41  CGD       15.1520   40.8380   22.4750 C.2   601  HEM601      0.0000
     42  O1D       15.7290   40.3640   21.4380 O.co2 601  HEM601      0.0000
     43  O2D       15.5470   41.8950   23.0600 O.co2 601  HEM601      0.0000
@<TRIPOS>BOND
     1    42    41   ar
     2    38    35    1
     3    41    43   ar
     4    41    40    1
     5    32    31    2
     6    40    39    2
     7    31    28    1
     8    35    36   ar
     9    35    34   ar
    10    39    36    1
    11     5    34    2
    12     5    29    1
    13    36    37   ar
    14    34    33   ar
    15    28    29    1
    16    28    27    2
    17    29    25    2
    18    37    33   ar
    19    37     2    2
    20    33     1    1
    21    27    30    1
    22    27    26    1
    23    25    26    1
    24    25     1    1
    25     2     7    1
    26    26     4    2
    27     1     6    1
    28     1    17    1
    29     7     6    2
    30     7     8    1
    31     6    10    1
    32     4    21    1
    33    13    12    1
    34    13    14    1
    35    12     8    1
    36     8     9    2
    37    17    21   ar
    38    17    18   ar
    39    16    14   ar
    40    21    20   ar
    41    14    15   ar
    42    10     9    1
    43    10     3    2
    44     9    11    1
    45    18     3    1
    46    18    19   ar
    47    20    19   ar
    48    20    23    1
    49    19    22    1
    50    23    24    2
