@<TRIPOS>MOLECULE
1d4f_NAD_A_1.pdb
 44 48 0 0 0
SMALL
GASTEIGER

@<TRIPOS>ATOM
      1  PA        42.0330   22.2100   43.0520 P.3   501  NAD501      0.2189
      2  O1A       43.3490   22.1140   43.7280 O.2   501  NAD501     -0.5170
      3  O2A       40.7930   22.1050   43.8540 O.3   501  NAD501     -0.4371
      4  O5B       42.0920   21.0270   42.0100 O.3   501  NAD501     -0.3112
      5  C5B       42.3490   19.6530   42.3190 C.3   501  NAD501      0.1813
      6  C4B       41.4360   18.8370   41.4090 C.3   501  NAD501      0.1821
      7  O4B       42.1710   18.0620   40.4200 O.3   501  NAD501     -0.3135
      8  C3B       40.6260   17.9070   42.3040 C.3   501  NAD501      0.2184
      9  O3B       39.2310   17.8790   41.9980 O.3   501  NAD501     -0.2174
     10  C2B       41.2730   16.5600   42.0930 C.3   501  NAD501      0.2570
     11  O2B       40.2960   15.5550   42.3810 O.3   501  NAD501     -0.2130
     12  C1B       41.7400   16.6520   40.6370 C.3   501  NAD501      0.3186
     13  N9A       42.6930   15.5060   40.3950 N.pl3 501  NAD501     -0.1439
     14  C8A       43.6160   15.0870   41.2750 C.3   501  NAD501      0.3377
     15  N7A       44.3050   14.0340   40.8230 N.2   501  NAD501     -0.2095
     16  C5A       43.7840   13.7970   39.6340 C.2   501  NAD501      0.2526
     17  C6A       44.2700   12.8170   38.7770 C.2   501  NAD501      0.4393
     18  N6A       45.3730   12.0910   39.0160 N.pl3 501  NAD501      0.2180
     19  N1A       43.6240   12.7480   37.6060 N.2   501  NAD501      0.0021
     20  C2A       42.6160   13.5750   37.3410 C.3   501  NAD501      0.5254
     21  N3A       42.1750   14.5220   38.1610 N.2   501  NAD501     -0.0055
     22  C4A       42.7660   14.6760   39.3500 C.2   501  NAD501      0.3518
     23  O3        41.9470   23.4930   42.0410 O.3   501  NAD501     -0.2703
     24  PN        43.0540   24.5910   41.8190 P.3   501  NAD501      0.2189
     25  O1N       43.0760   25.4760   42.9950 O.3   501  NAD501     -0.4371
     26  O2N       42.8330   25.1650   40.4920 O.2   501  NAD501     -0.5170
     27  O5D       44.2750   23.5370   41.7460 O.3   501  NAD501     -0.3112
     28  C5D       45.4780   23.6430   42.5510 C.3   501  NAD501      0.1813
     29  C4D       46.7420   23.1770   41.8320 C.3   501  NAD501      0.1799
     30  O4D       46.8830   24.1640   40.8270 O.3   501  NAD501     -0.3327
     31  C3D       48.0960   23.3550   42.4660 C.3   501  NAD501      0.2158
     32  O3D       49.0580   22.7120   41.6310 O.3   501  NAD501     -0.2175
     33  C2D       48.4130   24.8110   42.2430 C.3   501  NAD501      0.2309
     34  O2D       49.8140   24.9310   42.4460 O.3   501  NAD501     -0.2158
     35  C1D       48.0320   25.0180   40.7980 C.3   501  NAD501      0.2263
     36  N1N       47.5990   26.3710   40.2970 N.pl3 501  NAD501     -0.2787
     37  C2N       48.1130   26.9750   39.1150 C.3   501  NAD501      0.1244
     38  C3N       47.6410   28.2180   38.6570 C.2   501  NAD501      0.0544
     39  C7N       48.1560   28.9940   37.4150 C.2   501  NAD501      0.2818
     40  O7N       47.9460   30.2010   37.3410 O.2   501  NAD501     -0.2670
     41  N7N       48.7910   28.3510   36.4300 N.am  501  NAD501     -0.0839
     42  C4N       46.6340   28.8470   39.3830 C.2   501  NAD501      0.0033
     43  C5N       46.1070   28.2740   40.5310 C.2   501  NAD501      0.0157
     44  C6N       46.5830   27.0490   40.9890 C.2   501  NAD501      0.0633
@<TRIPOS>BOND
     1    41    39   am
     2    20    19    1
     3    20    21    1
     4    40    39    2
     5    39    38    1
     6    19    17    2
     7    21    22    2
     8    38    37    1
     9    38    42    2
    10    17    18    1
    11    17    16    1
    12    37    36    1
    13    22    16    1
    14    22    13    1
    15    42    43    1
    16    16    15    2
    17    36    35    1
    18    36    44    1
    19    13    12    1
    20    13    14    1
    21     7    12    1
    22     7     6    1
    23    26    24    2
    24    43    44    2
    25    12    10    1
    26    35    30    1
    27    35    33    1
    28    15    14    1
    29    30    29    1
    30     6     8    1
    31     6     5    1
    32    32    31    1
    33    27    24    1
    34    27    28    1
    35    24    23    1
    36    24    25    1
    37    29    31    1
    38    29    28    1
    39     9     8    1
    40     4     5    1
    41     4     1    1
    42    23     1    1
    43    10     8    1
    44    10    11    1
    45    33    34    1
    46    33    31    1
    47     1     2    2
    48     1     3    1
