@<TRIPOS>MOLECULE
1d4f_ADN_A_1.pdb
 19 21 0 0 0
SMALL
GASTEIGER

@<TRIPOS>ATOM
      1  O5'       51.9770   29.4070   40.4020 O.3   601  ADN601     -0.2176
      2  C5'       50.6190   29.2870   40.8350 C.3   601  ADN601      0.2143
      3  C4'       50.1070   30.6980   41.0860 C.3   601  ADN601      0.1851
      4  O4'       50.5630   31.6540   40.1200 O.3   601  ADN601     -0.3134
      5  C3'       48.6080   30.8210   40.9870 C.3   601  ADN601      0.2186
      6  O3'       48.0610   30.4990   42.2670 O.3   601  ADN601     -0.2174
      7  C2'       48.3860   32.2960   40.6730 C.3   601  ADN601      0.2570
      8  O2'       47.9330   32.8720   41.8890 O.3   601  ADN601     -0.2130
      9  C1'       49.7740   32.8240   40.3610 C.3   601  ADN601      0.3186
     10  N9        49.8640   33.6940   39.1720 N.pl3 601  ADN601     -0.1439
     11  C8        49.1920   33.5290   38.0280 C.3   601  ADN601      0.3377
     12  N7        49.4630   34.5370   37.1970 N.2   601  ADN601     -0.2095
     13  C5        50.3040   35.3200   37.8490 C.2   601  ADN601      0.2526
     14  C6        50.7530   36.5410   37.3760 C.2   601  ADN601      0.4393
     15  N6        50.2140   37.1660   36.3250 N.pl3 601  ADN601      0.2180
     16  N1        51.5690   37.1820   38.2220 N.2   601  ADN601      0.0021
     17  C2        51.8750   36.6730   39.4100 C.3   601  ADN601      0.5254
     18  N3        51.4100   35.5170   39.8620 N.2   601  ADN601     -0.0055
     19  C4        50.5930   34.8060   39.0800 C.2   601  ADN601      0.3518
@<TRIPOS>BOND
     1    15    14    1
     2    12    13    2
     3    12    11    1
     4    14    13    1
     5    14    16    2
     6    13    19    1
     7    11    10    1
     8    16    17    1
     9    19    10    1
    10    19    18    2
    11    10     9    1
    12    17    18    1
    13     4     9    1
    14     4     3    1
    15     9     7    1
    16     1     2    1
    17     7     5    1
    18     7     8    1
    19     2     3    1
    20     5     3    1
    21     5     6    1
