@<TRIPOS>MOLECULE
1d4h_BEH_B_1.pdb
 45 49 0 0 0
SMALL
GASTEIGER

@<TRIPOS>ATOM
      1  C01       13.8830   22.9830    5.0040 C.3   501  BEH501      0.2209
      2  O02       14.3650   22.6670    3.6600 O.3   501  BEH501     -0.2171
      3  C03       14.9600   22.7210    6.0280 C.3   501  BEH501      0.2258
      4  O04       14.5170   23.0660    7.3690 O.3   501  BEH501     -0.3397
      5  C05       15.6190   23.4100    8.2480 C.3   501  BEH501      0.1692
      6  C06       16.3260   22.2030    8.8480 C.ar  501  BEH501      0.0073
      7  C07       15.5640   21.2040    9.5830 C.ar  501  BEH501     -0.0019
      8  C08       16.2100   20.0020   10.0420 C.ar  501  BEH501     -0.0002
      9  C09       17.6090   19.7970    9.7840 C.ar  501  BEH501     -0.0000
     10  C10       18.3730   20.7890    9.0700 C.ar  501  BEH501     -0.0002
     11  C11       17.7390   21.9900    8.6030 C.ar  501  BEH501     -0.0019
     12  C12       15.1550   21.2440    5.9140 C.2   501  BEH501      0.2716
     13  O13       14.2250   20.4730    6.1690 O.2   501  BEH501     -0.2706
     14  N14       16.3950   20.7770    5.5250 N.am  501  BEH501     -0.1979
     15  C15       16.6620   19.3630    5.3800 C.3   501  BEH501      0.1478
     16  C16       16.5800   18.8980    3.9460 C.ar  501  BEH501     -0.0040
     17  C17       15.7100   19.3340    2.8860 C.ar  501  BEH501     -0.0029
     18  C18       15.8260   18.7360    1.5760 C.ar  501  BEH501     -0.0003
     19  C19       16.8120   17.7130    1.3370 C.ar  501  BEH501     -0.0003
     20  C20       17.6910   17.2750    2.3880 C.ar  501  BEH501     -0.0044
     21  C21       17.5630   17.8790    3.6860 C.ar  501  BEH501     -0.0218
     22  C22       18.3590   17.6050    4.9160 C.3   501  BEH501      0.0611
     23  C23       18.0710   18.8740    5.7570 C.3   501  BEH501      0.1802
     24  O24       19.0070   19.9050    5.4410 O.3   501  BEH501     -0.2206
     25  C31       13.3530   24.3940    5.0200 C.3   501  BEH501      0.2209
     26  O32       14.3870   25.2310    4.4320 O.3   501  BEH501     -0.2171
     27  C33       12.0260   24.5700    4.2790 C.3   501  BEH501      0.2258
     28  O34       11.8090   23.5440    3.2680 O.3   501  BEH501     -0.3397
     29  C35       11.1600   24.0600    2.0790 C.3   501  BEH501      0.1692
     30  C36        9.6430   24.1590    2.1710 C.ar  501  BEH501      0.0073
     31  C37        8.9720   25.3820    1.7890 C.ar  501  BEH501     -0.0019
     32  C38        7.5430   25.5030    1.9360 C.ar  501  BEH501     -0.0002
     33  C39        6.7800   24.4030    2.4590 C.ar  501  BEH501     -0.0000
     34  C40        7.4370   23.1770    2.8360 C.ar  501  BEH501     -0.0002
     35  C41        8.8640   23.0480    2.6930 C.ar  501  BEH501     -0.0019
     36  C42       10.9120   24.5110    5.3070 C.2   501  BEH501      0.2716
     37  O43       10.7420   23.5120    6.0230 O.2   501  BEH501     -0.2706
     38  N44       10.0410   25.5750    5.3910 N.am  501  BEH501     -0.1984
     39  C45        8.9490   25.5690    6.3440 C.3   501  BEH501      0.1415
     40  C46        8.9270   26.5240    7.4150 C.ar  501  BEH501     -0.0006
     41  C47        7.7390   27.3260    7.6450 C.ar  501  BEH501     -0.0026
     42  C48        7.7190   28.2790    8.7250 C.ar  501  BEH501     -0.0003
     43  C49        8.8720   28.4340    9.5710 C.ar  501  BEH501     -0.0000
     44  C50       10.0540   27.6410    9.3460 C.ar  501  BEH501     -0.0003
     45  C51       10.0840   26.6870    8.2700 C.ar  501  BEH501     -0.0026
@<TRIPOS>BOND
     1    19    18   ar
     2    19    20   ar
     3    18    17   ar
     4    31    32   ar
     5    31    30   ar
     6    32    33   ar
     7    29    30    1
     8    29    28    1
     9    30    35   ar
    10    20    21   ar
    11    33    34   ar
    12    35    34   ar
    13    17    16   ar
    14    28    27    1
    15     2     1    1
    16    21    16   ar
    17    21    22    1
    18    16    15    1
    19    27    25    1
    20    27    36    1
    21    26    25    1
    22    22    23    1
    23     1    25    1
    24     1     3    1
    25    36    38   am
    26    36    37    2
    27    15    14    1
    28    15    23    1
    29    38    39    1
    30    24    23    1
    31    14    12   am
    32    12     3    1
    33    12    13    2
    34     3     4    1
    35    39    40    1
    36     4     5    1
    37    40    41   ar
    38    40    45   ar
    39    41    42   ar
    40     5     6    1
    41    45    44   ar
    42    11     6   ar
    43    11    10   ar
    44    42    43   ar
    45     6     7   ar
    46    10     9   ar
    47    44    43   ar
    48     7     8   ar
    49     9     8   ar
