@<TRIPOS>MOLECULE
1d4i_BEG_A_1.pdb
 47 52 0 0 0
SMALL
GASTEIGER

@<TRIPOS>ATOM
      1  C01        9.7640   24.0840    2.2340 C.ar  501  BEG501      0.0073
      2  C02        9.0440   25.2510    1.8670 C.ar  501  BEG501     -0.0019
      3  C03        7.6410   25.3630    2.0030 C.ar  501  BEG501     -0.0002
      4  C04        6.9040   24.2720    2.5230 C.ar  501  BEG501     -0.0000
      5  C05        7.5850   23.0880    2.8930 C.ar  501  BEG501     -0.0002
      6  C06        8.9940   22.9960    2.7470 C.ar  501  BEG501     -0.0019
      7  C07       16.2980   22.1490    8.7730 C.ar  501  BEG501      0.0073
      8  C08       15.5700   21.1300    9.4590 C.ar  501  BEG501     -0.0019
      9  C09       16.1750   19.9340    9.9220 C.ar  501  BEG501     -0.0002
     10  C10       17.5610   19.7290    9.7110 C.ar  501  BEG501     -0.0000
     11  C11       18.3150   20.7250    9.0450 C.ar  501  BEG501     -0.0002
     12  C12       17.6900   21.9140    8.5860 C.ar  501  BEG501     -0.0019
     13  C13       15.5600   23.3580    8.1950 C.3   501  BEG501      0.1691
     14  O14       14.5260   23.0150    7.2720 O.3   501  BEG501     -0.3422
     15  C23       11.2870   24.0770    2.1480 C.3   501  BEG501      0.1692
     16  O22       11.9200   23.5540    3.3130 O.3   501  BEG501     -0.3398
     17  C15       15.0310   22.6990    5.9680 C.3   501  BEG501      0.1955
     18  C16       13.9910   23.0190    4.9240 C.3   501  BEG501      0.0750
     19  C17       13.5020   24.4250    5.0060 C.3   501  BEG501      0.1908
     20  O24       14.4830   25.1780    4.3050 O.3   501  BEG501     -0.2199
     21  C18       12.1170   24.5380    4.3530 C.3   501  BEG501      0.2232
     22  C19       10.9440   24.4850    5.3240 C.2   501  BEG501      0.2715
     23  O20       10.6960   23.4920    6.0040 O.2   501  BEG501     -0.2706
     24  N21       10.1400   25.6060    5.3730 N.am  501  BEG501     -0.1979
     25  C25       15.1400   21.2020    5.8360 C.2   501  BEG501      0.2689
     26  O26       14.1930   20.4640    6.0870 O.2   501  BEG501     -0.2707
     27  N27       16.3580   20.6920    5.4360 N.am  501  BEG501     -0.1980
     28  C28       16.6200   19.2770    5.2610 C.3   501  BEG501      0.1478
     29  C29       16.5710   18.8470    3.8200 C.ar  501  BEG501     -0.0040
     30  C30       17.5340   17.8490    3.5510 C.ar  501  BEG501     -0.0218
     31  C31       15.7320   19.3140    2.7770 C.ar  501  BEG501     -0.0029
     32  C32       15.8630   18.7640    1.4680 C.ar  501  BEG501     -0.0003
     33  C33       16.8330   17.7550    1.2120 C.ar  501  BEG501     -0.0003
     34  C34       18.0180   18.7810    5.6730 C.3   501  BEG501      0.1802
     35  O35       18.9370   19.8230    5.3790 O.3   501  BEG501     -0.2206
     36  C36       17.6790   17.2890    2.2560 C.ar  501  BEG501     -0.0044
     37  C37       18.3090   17.5380    4.7940 C.3   501  BEG501      0.0611
     38  C38        8.9680   25.7780    6.2160 C.3   501  BEG501      0.1478
     39  C39        9.2560   26.5070    7.5030 C.ar  501  BEG501     -0.0040
     40  C40        8.1810   27.3610    7.8600 C.ar  501  BEG501     -0.0218
     41  C41       10.4080   26.4460    8.3320 C.ar  501  BEG501     -0.0029
     42  C42       10.4670   27.2400    9.5180 C.ar  501  BEG501     -0.0003
     43  C43        9.3770   28.0890    9.8630 C.ar  501  BEG501     -0.0003
     44  C44        7.8490   26.6630    5.6250 C.3   501  BEG501      0.1802
     45  O45        8.4820   27.6840    4.8680 O.3   501  BEG501     -0.2206
     46  C46        8.2240   28.1560    9.0350 C.ar  501  BEG501     -0.0044
     47  C47        7.0930   27.2730    6.8320 C.3   501  BEG501      0.0611
@<TRIPOS>BOND
     1    33    32   ar
     2    33    36   ar
     3    32    31   ar
     4     2     3   ar
     5     2     1   ar
     6     3     4   ar
     7    15     1    1
     8    15    16    1
     9     1     6   ar
    10    36    30   ar
    11     4     5   ar
    12     6     5   ar
    13    31    29   ar
    14    16    21    1
    15    30    29   ar
    16    30    37    1
    17    29    28    1
    18    20    19    1
    19    21    19    1
    20    21    22    1
    21    37    34    1
    22    45    44    1
    23    18    19    1
    24    18    17    1
    25    28    27    1
    26    28    34    1
    27    22    24   am
    28    22    23    2
    29    24    38    1
    30    35    34    1
    31    27    25   am
    32    44    38    1
    33    44    47    1
    34    25    17    1
    35    25    26    2
    36    17    14    1
    37    38    39    1
    38    47    40    1
    39    14    13    1
    40    39    40   ar
    41    39    41   ar
    42    40    46   ar
    43    13     7    1
    44    41    42   ar
    45    12     7   ar
    46    12    11   ar
    47     7     8   ar
    48    46    43   ar
    49    11    10   ar
    50     8     9   ar
    51    42    43   ar
    52    10     9   ar
