@<TRIPOS>MOLECULE
1d4j_MSC_B_1.pdb
 47 51 0 0 0
SMALL
GASTEIGER

@<TRIPOS>ATOM
      1  C01       13.7860   23.1580    4.9980 C.3   501  MSC501      0.2209
      2  O02       14.3350   22.9260    3.6740 O.3   501  MSC501     -0.2171
      3  C03       14.7900   22.7960    6.0680 C.3   501  MSC501      0.2258
      4  O04       14.2510   23.0570    7.3900 O.3   501  MSC501     -0.3397
      5  C05       15.2630   23.5020    8.3230 C.3   501  MSC501      0.1692
      6  C06       16.1900   22.3940    8.8110 C.ar  501  MSC501      0.0073
      7  C07       15.6450   21.2450    9.5150 C.ar  501  MSC501     -0.0019
      8  C08       16.5100   20.1500    9.8810 C.ar  501  MSC501     -0.0002
      9  C09       17.9120   20.2020    9.5550 C.ar  501  MSC501     -0.0000
     10  C10       18.4580   21.3460    8.8680 C.ar  501  MSC501     -0.0002
     11  C11       17.6020   22.4390    8.4980 C.ar  501  MSC501     -0.0019
     12  C12       15.0120   21.3170    5.9040 C.2   501  MSC501      0.2716
     13  O13       14.0880   20.5230    6.1020 O.2   501  MSC501     -0.2706
     14  N14       16.2780   20.8780    5.5500 N.am  501  MSC501     -0.1979
     15  C15       16.5960   19.4710    5.3810 C.3   501  MSC501      0.1478
     16  C16       16.5490   19.0090    3.9430 C.ar  501  MSC501     -0.0040
     17  C17       15.6850   19.4260    2.8670 C.ar  501  MSC501     -0.0029
     18  C18       15.8420   18.8290    1.5600 C.ar  501  MSC501     -0.0003
     19  C19       16.8610   17.8330    1.3390 C.ar  501  MSC501     -0.0003
     20  C20       17.7340   17.4190    2.4050 C.ar  501  MSC501     -0.0044
     21  C21       17.5660   18.0170    3.7000 C.ar  501  MSC501     -0.0218
     22  C22       18.3520   17.7670    4.9470 C.3   501  MSC501      0.0611
     23  C23       18.0250   19.0360    5.7700 C.3   501  MSC501      0.1802
     24  O24       18.9240   20.0960    5.4380 O.3   501  MSC501     -0.2206
     25  C31       13.3030   24.5970    5.0800 C.3   501  MSC501      0.2209
     26  O32       14.3440   25.4340    4.5040 O.3   501  MSC501     -0.2171
     27  C33       11.9720   24.8490    4.3690 C.3   501  MSC501      0.2258
     28  O34       11.8030   23.9510    3.2470 O.3   501  MSC501     -0.3397
     29  C35       11.0930   24.5490    2.1420 C.3   501  MSC501      0.1692
     30  C36        9.5860   24.4550    2.2690 C.ar  501  MSC501      0.0073
     31  C37        8.7630   25.6170    2.0110 C.ar  501  MSC501     -0.0019
     32  C38        7.3430   25.5500    2.2250 C.ar  501  MSC501     -0.0002
     33  C39        6.7430   24.3280    2.6850 C.ar  501  MSC501     -0.0000
     34  C40        7.5520   23.1650    2.9330 C.ar  501  MSC501     -0.0002
     35  C41        8.9700   23.2200    2.7260 C.ar  501  MSC501     -0.0019
     36  C42       10.8600   24.6210    5.3830 C.2   501  MSC501      0.2716
     37  O43       10.7510   23.5470    5.9790 O.2   501  MSC501     -0.2706
     38  N44        9.9250   25.6200    5.5690 N.am  501  MSC501     -0.1983
     39  C45        8.8250   25.4870    6.5160 C.3   501  MSC501      0.1446
     40  C46        8.4100   26.6510    7.2790 C.ar  501  MSC501      0.0375
     41  C47        7.1440   27.2950    7.0090 C.ar  501  MSC501      0.1386
     42  C48        6.7630   28.4770    7.7560 C.ar  501  MSC501      0.0294
     43  C49        7.6410   29.0110    8.7650 C.ar  501  MSC501      0.0032
     44  C50        8.8990   28.3760    9.0380 C.ar  501  MSC501      0.0113
     45  C51        9.2820   27.1930    8.2920 C.ar  501  MSC501      0.0575
     46 CL         11.0590   26.2810    8.6730 Cl    501  MSC501     -0.0824
     47  F          6.3390   26.8210    6.0630 F     501  MSC501     -0.2044
@<TRIPOS>BOND
     1    19    18   ar
     2    19    20   ar
     3    18    17   ar
     4    31    32   ar
     5    31    30   ar
     6    29    30    1
     7    29    28    1
     8    32    33   ar
     9    30    35   ar
    10    20    21   ar
    11    33    34   ar
    12    35    34   ar
    13    17    16   ar
    14    28    27    1
    15     2     1    1
    16    21    16   ar
    17    21    22    1
    18    16    15    1
    19    27    25    1
    20    27    36    1
    21    26    25    1
    22    22    23    1
    23     1    25    1
    24     1     3    1
    25    15    14    1
    26    15    23    1
    27    36    38   am
    28    36    37    2
    29    24    23    1
    30    14    12   am
    31    38    39    1
    32    12     3    1
    33    12    13    2
    34    47    41    1
    35     3     4    1
    36    39    40    1
    37    41    40   ar
    38    41    42   ar
    39    40    45   ar
    40     4     5    1
    41    42    43   ar
    42    45    46    1
    43    45    44   ar
    44     5     6    1
    45    11     6   ar
    46    11    10   ar
    47    43    44   ar
    48     6     7   ar
    49    10     9   ar
    50     7     8   ar
    51     9     8   ar
