@<TRIPOS>MOLECULE
1d4l_PI9_A_1.pdb
 43 45 0 0 0
SMALL
GASTEIGER

@<TRIPOS>ATOM
      1  C4         5.1510    4.3240    9.0720 C.3   201  PI9201      0.0178
      2  C5         3.6790    4.2760    9.3940 C.3   201  PI9201      0.1217
      3  C6         3.4000    3.6170   10.7330 C.1   201  PI9201      0.1269
      4  O1         3.3390    4.3030   11.7430 O.2   201  PI9201     -0.2270
      5  C3         5.4690    3.2480    8.0750 C.3   201  PI9201      0.0050
      6  C2         6.7590    3.5080    7.3360 C.3   201  PI9201      0.0474
      7  N1         3.2850    2.2900   10.7580 N.2   201  PI9201     -0.1913
      8  C7         2.9890    1.5710   12.0090 C.3   201  PI9201      0.2189
      9  C8         1.6300    0.8350   11.9090 C.3   201  PI9201      0.0393
     10  C10        1.4080   -0.0300   13.1370 C.3   201  PI9201      0.0032
     11  C9         0.4900    1.8410   11.7620 C.3   201  PI9201      0.0032
     12  C11        4.0760    0.5840   12.4740 C.1   201  PI9201      0.1491
     13  O2         4.2760   -0.4770   11.8620 O.2   201  PI9201     -0.2251
     14  N2         4.7620    0.9370   13.5590 N.2   201  PI9201     -0.2037
     15  C12        5.8280    0.0830   14.1300 C.3   201  PI9201      0.1505
     16  C13        7.1720    0.8230   14.0930 C.3   201  PI9201      0.0542
     17  C14        7.5030    1.3940   12.7250 C.ar  201  PI9201     -0.0199
     18  C15        7.4430    2.7600   12.5010 C.ar  201  PI9201     -0.0011
     19  C16        7.7320    3.2910   11.2830 C.ar  201  PI9201      0.0366
     20  C19        7.8670    0.5650   11.6590 C.ar  201  PI9201     -0.0011
     21  C18        8.1580    1.0900   10.4220 C.ar  201  PI9201      0.0366
     22  C17        8.0900    2.4590   10.2510 C.ar  201  PI9201      0.1385
     23  O3         8.3870    3.0540    9.0620 O.3   201  PI9201     -0.4755
     24  C1         7.8550    2.5870    7.8380 C.3   201  PI9201      0.2054
     25  C20        5.4820   -0.3440   15.5620 C.3   201  PI9201      0.1929
     26  O4         5.5310    0.7920   16.4260 O.3   201  PI9201     -0.2195
     27  C21        6.4660   -1.3970   16.0790 C.3   201  PI9201      0.1306
     28  N3         6.2750   -2.7170   15.4530 N.3   201  PI9201     -0.1529
     29  C22        5.4210   -3.6300   16.2260 C.3   201  PI9201      0.0959
     30  C23        4.1490   -3.7130   15.4020 C.3   201  PI9201      0.0191
     31  C24        3.1700   -4.7920   15.8750 C.3   201  PI9201      0.0014
     32  C26        2.7980   -4.5160   17.3240 C.3   201  PI9201      0.0000
     33  C25        1.9470   -4.8430   14.9680 C.3   201  PI9201      0.0000
     34  S          7.4780   -3.3320   14.5100 S.O2  201  PI9201      0.0634
     35  O6         8.2000   -2.2340   13.8740 O.2   201  PI9201     -0.1528
     36  O5         6.8820   -4.1890   13.4940 O.2   201  PI9201     -0.1528
     37  C27        8.5160   -4.1960   15.4480 C.ar  201  PI9201      0.1223
     38  C32        9.5590   -3.5470   16.0840 C.ar  201  PI9201      0.0213
     39  C28        8.3080   -5.5440   15.7010 C.ar  201  PI9201      0.0213
     40  C31       10.3840   -4.2140   16.9740 C.ar  201  PI9201      0.0194
     41  C29        9.1310   -6.2260   16.5980 C.ar  201  PI9201      0.0194
     42  C30       10.1680   -5.5490   17.2290 C.ar  201  PI9201      0.0892
     43  N4        10.9710   -6.1750   18.1590 N.pl3 201  PI9201     -0.1281
@<TRIPOS>BOND
     1     6    24    1
     2     6     5    1
     3    24    23    1
     4     5     1    1
     5    23    22    1
     6     1     2    1
     7     2     3    1
     8    22    21   ar
     9    22    19   ar
    10    21    20   ar
    11     3     7    2
    12     3     4    2
    13     7     8    1
    14    19    18   ar
    15    20    17   ar
    16    11     9    1
    17    13    12    2
    18     9     8    1
    19     9    10    1
    20     8    12    1
    21    12    14    2
    22    18    17   ar
    23    17    16    1
    24    36    34    2
    25    14    15    1
    26    35    34    2
    27    16    15    1
    28    15    25    1
    29    34    37    1
    30    34    28    1
    31    33    31    1
    32    30    31    1
    33    30    29    1
    34    37    39   ar
    35    37    38   ar
    36    28    27    1
    37    28    29    1
    38    25    27    1
    39    25    26    1
    40    39    41   ar
    41    31    32    1
    42    38    40   ar
    43    41    42   ar
    44    40    42   ar
    45    42    43    1
