@<TRIPOS>MOLECULE
1d4m_W71_1_1.pdb
 25 27 0 0 0
SMALL
GASTEIGER

@<TRIPOS>ATOM
      1  O1       -55.7430    7.0680  118.2160 O.2   501  W71501     -0.3814
      2  N2       -56.9730    6.5870  118.5060 N.2   501  W71501     -0.0918
      3  C3       -56.8770    5.2380  118.3300 C.2   501  W71501      0.0789
      4  C31      -57.8190    4.1900  118.9090 C.3   501  W71501      0.0508
      5  C4       -55.7990    5.0080  117.5870 C.3   501  W71501      0.0909
      6  C5       -54.9200    5.8980  117.9700 C.3   501  W71501      0.2019
      7  C1C      -53.4800    5.6050  118.1880 C.3   501  W71501      0.0468
      8  C2C      -53.4260    4.4720  119.1690 C.3   501  W71501      0.0038
      9  C3C      -52.7850    3.3040  118.5130 C.3   501  W71501      0.0001
     10  C4C      -51.4530    3.0990  119.1600 C.3   501  W71501      0.0001
     11  C5C      -50.8800    1.8290  118.6390 C.3   501  W71501      0.0038
     12  C6C      -51.1090    0.7570  119.6510 C.3   501  W71501      0.0473
     13  C7C      -49.7990    0.4980  120.3360 C.3   501  W71501      0.2054
     14  O1B      -49.9730   -0.5120  121.3140 O.3   501  W71501     -0.4755
     15  C1B      -48.8710   -1.2020  121.7290 C.ar  501  W71501      0.1386
     16  C2B      -48.0600   -0.7210  122.7750 C.ar  501  W71501      0.0370
     17  C3B      -47.0850   -1.5600  123.3560 C.ar  501  W71501      0.0077
     18  C4B      -46.7670   -2.8010  122.7610 C.ar  501  W71501      0.0530
     19  C5B      -47.5480   -3.2500  121.6820 C.ar  501  W71501      0.0077
     20  C6B      -48.5420   -2.4230  121.1220 C.ar  501  W71501      0.0370
     21  C2A      -45.6920   -3.5770  123.2250 C.2   501  W71501      0.2204
     22  N3A      -45.0780   -4.4910  122.4770 N.2   501  W71501     -0.2338
     23  C4A      -43.8620   -4.9650  123.0880 C.3   501  W71501      0.1759
     24  C5A      -44.1930   -4.7060  124.5340 C.3   501  W71501      0.2334
     25  O1A      -45.0840   -3.5410  124.5020 O.2   501  W71501     -0.4582
@<TRIPOS>BOND
     1     5     6    1
     2     5     3    1
     3     6     7    1
     4     6     1    1
     5     7     8    1
     6     1     2    1
     7     3     2    2
     8     3     4    1
     9     9    10    1
    10     9     8    1
    11    11    10    1
    12    11    12    1
    13    12    13    1
    14    13    14    1
    15    20    19   ar
    16    20    15   ar
    17    14    15    1
    18    19    18   ar
    19    15    16   ar
    20    22    23    1
    21    22    21    2
    22    18    21    1
    23    18    17   ar
    24    16    17   ar
    25    23    24    1
    26    21    25    1
    27    25    24    1
