@<TRIPOS>MOLECULE
1d4o_NAP_A_1.pdb
 48 54 0 0 0
SMALL
GASTEIGER

@<TRIPOS>ATOM
      1  PA        17.1740   26.1340   12.0400 P.3   201  NAP201      0.2190
      2  O1A       16.0480   25.3140   12.5000 O.2   201  NAP201     -0.5170
      3  O2A       18.4780   26.1140   12.6700 O.3   201  NAP201     -0.4371
      4  O5B       17.3170   25.8890   10.4370 O.3   201  NAP201     -0.3085
      5  C5B       17.8130   26.9900    9.4950 C.3   201  NAP201      0.2078
      6  C4B       17.9620   26.1550    8.3450 C.3   201  NAP201      0.2506
      7  O4B       17.8590   27.3510    7.2940 O.3   201  NAP201     -0.2938
      8  C3B       18.8400   25.7890    7.5350 C.3   201  NAP201      0.2382
      9  O3B       18.2080   24.5970    7.8390 O.3   201  NAP201     -0.3210
     10  C2B       19.2760   25.7510    6.1470 C.3   201  NAP201      0.2306
     11  O2B       18.8830   24.7390    5.4810 O.3   201  NAP201     -0.2631
     12  C1B       18.3940   26.8940    5.9880 C.3   201  NAP201      0.2835
     13  N9A       19.2370   28.0900    5.5900 N.pl3 201  NAP201     -0.1471
     14  C8A       20.4660   28.6370    6.0110 C.3   201  NAP201      0.3376
     15  N7A       20.9350   29.5480    5.1920 N.2   201  NAP201     -0.2095
     16  C5A       20.0030   29.6240    4.1730 C.2   201  NAP201      0.2526
     17  C6A       19.9350   30.4020    2.9750 C.2   201  NAP201      0.4393
     18  N6A       20.8890   31.2620    2.6350 N.pl3 201  NAP201      0.2180
     19  N1A       18.8410   30.2300    2.1530 N.2   201  NAP201      0.0021
     20  C2A       17.8670   29.3500    2.4800 C.3   201  NAP201      0.5254
     21  N3A       17.8590   28.5740    3.5790 N.2   201  NAP201     -0.0055
     22  C4A       18.9620   28.7580    4.3950 C.2   201  NAP201      0.3517
     23  O3        16.4580   27.5660   12.2080 O.3   201  NAP201     -0.2703
     24  PN        15.2160   28.0680   13.1530 P.3   201  NAP201      0.2189
     25  O1N       13.9830   27.4170   12.6420 O.2   201  NAP201     -0.5170
     26  O2N       15.3080   29.5540   13.0930 O.3   201  NAP201     -0.4371
     27  O5D       15.4870   27.6580   14.6850 O.3   201  NAP201     -0.3112
     28  C5D       16.5990   28.1690   15.4750 C.3   201  NAP201      0.1813
     29  C4D       17.3950   26.9680   16.0250 C.3   201  NAP201      0.1799
     30  O4D       18.6530   27.3660   16.6140 O.3   201  NAP201     -0.3327
     31  C3D       16.6940   26.1930   17.1670 C.3   201  NAP201      0.2158
     32  O3D       17.0850   24.8060   17.2870 O.3   201  NAP201     -0.2175
     33  C2D       17.0930   26.9360   18.3930 C.3   201  NAP201      0.2309
     34  O2D       16.9790   26.2050   19.5880 O.3   201  NAP201     -0.2158
     35  C1D       18.5690   27.2430   18.0380 C.3   201  NAP201      0.2263
     36  N1N       19.1250   28.3610   18.8110 N.pl3 201  NAP201     -0.2787
     37  C2N       18.5550   29.6410   18.6670 C.3   201  NAP201      0.1244
     38  C3N       19.1410   30.6830   19.4650 C.2   201  NAP201      0.0544
     39  C7N       18.6520   32.0500   19.4140 C.2   201  NAP201      0.2818
     40  O7N       19.1610   32.9430   20.1020 O.2   201  NAP201     -0.2670
     41  N7N       17.6220   32.3900   18.6160 N.am  201  NAP201     -0.0839
     42  C4N       20.2220   30.3760   20.3170 C.2   201  NAP201      0.0033
     43  C5N       20.7460   29.1390   20.4350 C.2   201  NAP201      0.0157
     44  C6N       20.2020   28.1290   19.6810 C.2   201  NAP201      0.0633
     45  P2B       19.6640   24.5550    4.0970 P.3   201  NAP201      0.5328
     46  O1X       21.1170   24.3600    4.4040 O.3   201  NAP201     -0.1145
     47  O2X       18.9640   23.4100    3.5430 O.3   201  NAP201     -0.1145
     48  O3X       19.3910   25.7980    3.3810 O.2   201  NAP201     -0.2224
@<TRIPOS>BOND
     1    19    20    1
     2    19    17    2
     3    20    21    1
     4    18    17    1
     5    17    16    1
     6    48    45    2
     7    47    45    1
     8    21    22    2
     9    45    46    1
    10    45    11    1
    11    16    22    1
    12    16    15    2
    13    22    13    1
    14    15    14    1
    15    11    10    1
    16    13    12    1
    17    13    14    1
    18    12    10    1
    19    12     7    1
    20    12     8    1
    21    10     8    1
    22     7     6    1
    23     8     9    1
    24     8     6    1
    25     9     6    1
    26     6     5    1
    27     5     4    1
    28     4     1    1
    29     1    23    1
    30     1     2    2
    31     1     3    1
    32    23    24    1
    33    25    24    2
    34    26    24    1
    35    24    27    1
    36    27    28    1
    37    28    29    1
    38    29    30    1
    39    29    31    1
    40    30    35    1
    41    31    32    1
    42    31    33    1
    43    35    33    1
    44    35    36    1
    45    33    34    1
    46    41    39   am
    47    37    36    1
    48    37    38    1
    49    36    44    1
    50    39    38    1
    51    39    40    2
    52    38    42    2
    53    44    43    2
    54    42    43    1
