@<TRIPOS>MOLECULE
1d4p_BPP_B_1.pdb
 27 30 0 0 0
SMALL
GASTEIGER

@<TRIPOS>ATOM
      1  C1       -23.9770  -31.8420   23.1850 C.ar  400  BPP400      0.0976
      2  C2       -23.2620  -33.0490   22.8460 C.ar  400  BPP400      0.0106
      3  C3       -22.2410  -32.9690   21.8570 C.ar  400  BPP400      0.0325
      4  C4       -21.9390  -31.7360   21.2190 C.ar  400  BPP400      0.1316
      5  C5       -22.6540  -30.5500   21.5620 C.ar  400  BPP400      0.0323
      6  C6       -23.6720  -30.6180   22.5390 C.ar  400  BPP400      0.0106
      7  C10      -21.3610  -33.8910   21.3030 C.2   400  BPP400      0.0393
      8  C11      -20.5500  -33.2420   20.3660 C.2   400  BPP400      0.1847
      9  N12      -20.9500  -31.9310   20.3630 N.2   400  BPP400     -0.3973
     10  C13      -24.9870  -31.8380   24.1860 C.2   400  BPP400      0.4766
     11  N14      -25.1220  -30.7030   24.8440 N.pl3 400  BPP400      0.2047
     12  N15      -25.7300  -32.8840   24.4660 N.pl3 400  BPP400      0.2047
     13  C17      -19.4790  -33.7530   19.5580 C.2   400  BPP400      0.2788
     14  O18      -19.6650  -34.3370   18.4800 O.2   400  BPP400     -0.2671
     15  N19      -18.0940  -33.5610   20.0610 N.am  400  BPP400     -0.2740
     16  C20      -16.8530  -34.0600   19.3190 C.3   400  BPP400      0.0938
     17  C21      -16.3920  -35.2560   20.2020 C.3   400  BPP400      0.0219
     18  C22      -16.1290  -34.7710   21.6280 C.3   400  BPP400      0.0078
     19  C23      -17.3950  -34.0160   22.2270 C.3   400  BPP400      0.0219
     20  C24      -17.7910  -32.8960   21.3250 C.3   400  BPP400      0.0938
     21  C33      -15.7200  -35.9250   22.6000 C.3   400  BPP400      0.0265
     22  C35      -15.2460  -35.3600   23.9730 C.ar  400  BPP400     -0.0222
     23  C38      -16.1300  -35.3170   25.1240 C.ar  400  BPP400     -0.0043
     24  C39      -15.6990  -34.8010   26.3600 C.ar  400  BPP400     -0.0003
     25  C40      -14.3740  -34.3200   26.4640 C.ar  400  BPP400     -0.0000
     26  C41      -13.4870  -34.3510   25.3550 C.ar  400  BPP400     -0.0003
     27  C42      -13.9140  -34.8640   24.1260 C.ar  400  BPP400     -0.0043
@<TRIPOS>BOND
     1    14    13    2
     2    16    15    1
     3    16    17    1
     4    13    15   am
     5    13     8    1
     6    15    20    1
     7    17    18    1
     8     9     8    2
     9     9     4    2
    10     8     7    1
    11     4     5   ar
    12     4     3   ar
    13     7     3    2
    14    20    19    1
    15     5     6   ar
    16    18    19    1
    17    18    21    1
    18     3     2   ar
    19     6     1   ar
    20    21    22    1
    21     2     1   ar
    22     1    10    1
    23    22    27   ar
    24    22    23   ar
    25    27    26   ar
    26    10    12    2
    27    10    11    1
    28    23    24   ar
    29    26    25   ar
    30    24    25   ar
