@<TRIPOS>MOLECULE
1d4s_TPV_A_1.pdb
 42 45 0 0 0
SMALL
GASTEIGER

@<TRIPOS>ATOM
      1  O1        13.6170   21.5370    6.0600 O.3   201  TPV201     -0.4556
      2  C2        12.5610   22.3470    5.9440 C.2   201  TPV201      0.3191
      3  C3        12.7670   23.6610    5.2530 C.3   201  TPV201      0.1334
      4  C4        14.0610   23.9900    4.8250 C.3   201  TPV201      0.1663
      5  C5        15.2020   23.3100    5.5750 C.3   201  TPV201      0.0735
      6  C6        14.9740   22.1270    5.9630 C.3   201  TPV201      0.1387
      7  O7        11.4630   21.9690    6.2400 O.2   201  TPV201     -0.2500
      8  O8        14.3380   25.1840    4.2350 O.3   201  TPV201     -0.2224
      9  C9        15.9500   21.2170    5.1920 C.3   201  TPV201      0.0402
     10  C10       15.4850   20.1410    4.6320 C.3   201  TPV201      0.0036
     11  C11       15.4480   20.0120    3.1230 C.3   201  TPV201      0.0001
     12  C12       14.9020   21.9190    7.4700 C.3   201  TPV201      0.0449
     13  C13       16.1830   22.4920    8.0080 C.3   201  TPV201      0.0299
     14  C14       17.1150   21.7170    8.8100 C.ar  201  TPV201     -0.0221
     15  C15       16.7170   20.8630    9.8420 C.ar  201  TPV201     -0.0043
     16  C16       17.6870   20.1630   10.5920 C.ar  201  TPV201     -0.0003
     17  C17       19.0440   20.2320   10.2140 C.ar  201  TPV201     -0.0000
     18  C18       19.4660   21.1430    9.2260 C.ar  201  TPV201     -0.0003
     19  C19       18.4910   21.9090    8.5470 C.ar  201  TPV201     -0.0043
     20  C20       11.5160   24.4310    4.8740 C.3   201  TPV201      0.0354
     21  C21       10.4570   24.2950    3.7320 C.3   201  TPV201      0.0050
     22  C22       11.0140   24.1580    2.2970 C.3   201  TPV201      0.0004
     23  C23       11.0700   25.1840    6.1160 C.ar  201  TPV201     -0.0205
     24  C24       12.0080   25.5680    7.0850 C.ar  201  TPV201     -0.0042
     25  C25       11.5820   26.3140    8.2040 C.ar  201  TPV201      0.0011
     26  C26       10.2220   26.6690    8.3390 C.ar  201  TPV201      0.0180
     27  C27        9.2640   26.1540    7.4590 C.ar  201  TPV201      0.0907
     28  N28        7.5850   26.7340    7.8730 N.pl3 201  TPV201     -0.0952
     29  C29        9.7010   25.4160    6.3390 C.ar  201  TPV201      0.0138
     30  S30        7.2470   28.0600    7.0170 S.O2  201  TPV201      0.1091
     31  O31        8.2460   29.0690    7.3420 O.2   201  TPV201     -0.1468
     32  O32        5.8490   28.3660    7.2780 O.2   201  TPV201     -0.1468
     33  C33        7.4120   27.6670    5.3260 C.2   201  TPV201      0.2032
     34  N34        8.5000   28.1080    4.6670 N.2   201  TPV201     -0.2512
     35  C35        8.6300   27.7410    3.3730 C.3   201  TPV201      0.1399
     36  C36        7.5710   27.1990    2.6400 C.3   201  TPV201      0.1415
     37  C37        6.5350   26.5770    3.3650 C.2   201  TPV201     -0.0131
     38  C38        6.3940   26.9270    4.7160 C.2   201  TPV201      0.0352
     39  C39        7.8730   26.6530    1.2370 C.3   201  TPV201      0.4030
     40  F40        9.0680   25.9140    1.4370 F     201  TPV201     -0.1696
     41  F41        8.0310   27.7940    0.4230 F     201  TPV201     -0.1696
     42  F42        6.7590   25.8520    0.9150 F     201  TPV201     -0.1696
@<TRIPOS>BOND
     1    41    39    1
     2    42    39    1
     3    39    40    1
     4    39    36    1
     5    22    21    1
     6    36    37    1
     7    36    35    1
     8    11    10    1
     9    37    38    2
    10    35    34    1
    11    21    20    1
    12     8     4    1
    13    10     9    1
    14    34    33    2
    15    38    33    1
    16     4     3    1
    17     4     5    1
    18    20     3    1
    19    20    23    1
    20     9     6    1
    21     3     2    1
    22    33    30    1
    23     5     6    1
    24     2     1    1
    25     2     7    2
    26     6     1    1
    27     6    12    1
    28    23    29   ar
    29    23    24   ar
    30    29    27   ar
    31    30    32    2
    32    30    31    2
    33    30    28    1
    34    24    25   ar
    35    27    28    1
    36    27    26   ar
    37    12    13    1
    38    13    14    1
    39    25    26   ar
    40    19    14   ar
    41    19    18   ar
    42    14    15   ar
    43    18    17   ar
    44    15    16   ar
    45    17    16   ar
