@<TRIPOS>MOLECULE
1d4x_ATP_A_1.pdb
 31 33 0 0 0
SMALL
GASTEIGER

@<TRIPOS>ATOM
      1  PG        14.0970    0.9570   15.0660 P.3   676  ATP676      0.5373
      2  O1G       15.4300    0.8830   15.7560 O.3   676  ATP676     -0.1143
      3  O2G       12.8620    0.7670   15.8360 O.3   676  ATP676     -0.1143
      4  O3G       14.2430   -0.0760   13.9740 O.2   676  ATP676     -0.2221
      5  PB        14.8520    3.2820   13.4230 P.3   676  ATP676      0.2277
      6  O1B       16.2890    2.9190   13.3200 O.3   676  ATP676     -0.4368
      7  O2B       14.4750    3.4130   12.0170 O.2   676  ATP676     -0.5168
      8  O3B       13.9340    2.3480   14.2860 O.3   676  ATP676     -0.2258
      9  PA        15.4770    5.9190   14.4990 P.3   676  ATP676      0.2189
     10  O1A       16.3120    5.7720   15.7240 O.3   676  ATP676     -0.4371
     11  O2A       16.2240    6.2770   13.3000 O.2   676  ATP676     -0.5170
     12  O3A       14.6240    4.6110   14.2700 O.3   676  ATP676     -0.2700
     13  O5'       14.3610    6.9490   14.8120 O.3   676  ATP676     -0.3112
     14  C5'       13.3310    7.4640   13.9370 C.3   676  ATP676      0.1813
     15  C4'       12.2440    8.0180   14.8210 C.3   676  ATP676      0.1821
     16  O4'       12.8240    9.0430   15.6730 O.3   676  ATP676     -0.3135
     17  C3'       11.0520    8.6450   14.0620 C.3   676  ATP676      0.2184
     18  O3'        9.7920    8.3470   14.7000 O.3   676  ATP676     -0.2174
     19  C2'       11.4030   10.1260   14.1830 C.3   676  ATP676      0.2570
     20  O2'       10.2640   10.9910   14.0990 O.3   676  ATP676     -0.2130
     21  C1'       12.1080   10.2320   15.5670 C.3   676  ATP676      0.3186
     22  N9        12.9370   11.4240   15.7570 N.pl3 676  ATP676     -0.1439
     23  C8        13.9950   11.8650   15.0270 C.3   676  ATP676      0.3377
     24  N7        14.4900   13.0070   15.5140 N.2   676  ATP676     -0.2095
     25  C5        13.6970   13.3080   16.6080 C.2   676  ATP676      0.2526
     26  C6        13.6890   14.3730   17.5560 C.2   676  ATP676      0.4393
     27  N6        14.5300   15.4090   17.5360 N.pl3 676  ATP676      0.2180
     28  N1        12.7520   14.3890   18.5680 N.2   676  ATP676      0.0021
     29  C2        11.8370   13.3290   18.6350 C.3   676  ATP676      0.5254
     30  N3        11.7660   12.2990   17.8030 N.2   676  ATP676     -0.0055
     31  C4        12.7380   12.3290   16.8020 C.2   676  ATP676      0.3518
@<TRIPOS>BOND
     1     7     5    2
     2    11     9    2
     3     6     5    1
     4     5    12    1
     5     5     8    1
     6    14    13    1
     7    14    15    1
     8     4     1    2
     9    17    19    1
    10    17    18    1
    11    17    15    1
    12    20    19    1
    13    19    21    1
    14    12     9    1
    15     8     1    1
    16     9    13    1
    17     9    10    1
    18    15    16    1
    19    23    24    1
    20    23    22    1
    21     1     2    1
    22     1     3    1
    23    24    25    2
    24    21    16    1
    25    21    22    1
    26    22    31    1
    27    25    31    1
    28    25    26    1
    29    31    30    2
    30    27    26    1
    31    26    28    2
    32    30    29    1
    33    28    29    1
