@<TRIPOS>MOLECULE
1d4y_TPV_A_1.pdb
 42 45 0 0 0
SMALL
GASTEIGER

@<TRIPOS>ATOM
      1  O1        13.5490   21.4220    6.0780 O.3   501  TPV501     -0.4556
      2  C2        12.4870   22.2020    6.1190 C.2   501  TPV501      0.3191
      3  C3        12.5470   23.5480    5.4880 C.3   501  TPV501      0.1334
      4  C4        13.8030   23.9390    4.9840 C.3   501  TPV501      0.1663
      5  C5        15.0300   23.2520    5.6000 C.3   501  TPV501      0.0735
      6  C6        14.8980   22.0240    5.8860 C.3   501  TPV501      0.1387
      7  O7        11.4380   21.7180    6.4840 O.2   501  TPV501     -0.2500
      8  O8        13.9930   25.1280    4.4030 O.3   501  TPV501     -0.2224
      9  C9        15.6730   21.2240    4.7930 C.3   501  TPV501      0.0402
     10  C10       14.9300   20.7870    3.8080 C.3   501  TPV501      0.0036
     11  C11       15.3040   19.6110    2.9400 C.3   501  TPV501      0.0001
     12  C12       15.0230   21.5580    7.3030 C.3   501  TPV501      0.0449
     13  C13       16.3690   21.8390    7.8000 C.3   501  TPV501      0.0299
     14  C14       17.1530   21.0430    8.7130 C.ar  501  TPV501     -0.0221
     15  C15       16.6590   20.0120    9.5070 C.ar  501  TPV501     -0.0043
     16  C16       17.5300   19.2810   10.3400 C.ar  501  TPV501     -0.0003
     17  C17       18.9090   19.5970   10.3740 C.ar  501  TPV501     -0.0000
     18  C18       19.4220   20.6060    9.5180 C.ar  501  TPV501     -0.0003
     19  C19       18.5020   21.4760    8.9050 C.ar  501  TPV501     -0.0043
     20  C20       11.2280   24.2070    5.1080 C.3   501  TPV501      0.0354
     21  C21       10.5910   24.7000    3.7600 C.3   501  TPV501      0.0050
     22  C22       10.5880   23.7940    2.5510 C.3   501  TPV501      0.0004
     23  C23       10.8290   25.1040    6.3000 C.ar  501  TPV501     -0.0205
     24  C24       11.7510   25.5550    7.2160 C.ar  501  TPV501     -0.0042
     25  C25       11.3690   26.4890    8.2190 C.ar  501  TPV501      0.0011
     26  C26        9.9960   26.7460    8.4140 C.ar  501  TPV501      0.0180
     27  C27        9.0780   26.3430    7.4490 C.ar  501  TPV501      0.0907
     28  N28        7.3690   26.7380    7.8330 N.pl3 501  TPV501     -0.0952
     29  C29        9.5070   25.5850    6.3530 C.ar  501  TPV501      0.0138
     30  S30        6.9640   28.0460    6.9890 S.O2  501  TPV501      0.1095
     31  O31        8.0020   29.0910    7.3030 O.2   501  TPV501     -0.1468
     32  O32        5.6120   28.3680    7.3120 O.2   501  TPV501     -0.1468
     33  C33        7.1250   27.6670    5.2960 C.ar  501  TPV501      0.2078
     34  N34        8.2710   28.0670    4.6760 N.ar  501  TPV501     -0.2242
     35  C35        8.3810   27.8220    3.3630 C.ar  501  TPV501      0.1043
     36  C36        7.4360   27.0880    2.6350 C.ar  501  TPV501      0.0906
     37  C37        6.2390   26.7490    3.2440 C.ar  501  TPV501      0.0084
     38  C38        6.0790   27.0450    4.6200 C.ar  501  TPV501      0.0398
     39  C39        7.7270   26.7580    1.1740 C.3   501  TPV501      0.4200
     40  F40        8.3860   27.9150    0.6730 F     501  TPV501     -0.1658
     41  F41        6.5010   26.5110    0.5690 F     501  TPV501     -0.1658
     42  F42        8.5950   25.6360    1.2270 F     501  TPV501     -0.1658
@<TRIPOS>BOND
     1    41    39    1
     2    40    39    1
     3    39    42    1
     4    39    36    1
     5    22    21    1
     6    36    37   ar
     7    36    35   ar
     8    11    10    1
     9    37    38   ar
    10    35    34   ar
    11    21    20    1
    12    10     9    1
    13     8     4    1
    14    38    33   ar
    15    34    33   ar
    16     9     6    1
    17     4     3    1
    18     4     5    1
    19    20     3    1
    20    20    23    1
    21    33    30    1
    22     3     2    1
    23     5     6    1
    24     6     1    1
    25     6    12    1
    26     1     2    1
    27     2     7    2
    28    23    29   ar
    29    23    24   ar
    30    29    27   ar
    31    30    31    2
    32    30    32    2
    33    30    28    1
    34    24    25   ar
    35    12    13    1
    36    27    28    1
    37    27    26   ar
    38    13    14    1
    39    25    26   ar
    40    14    19   ar
    41    14    15   ar
    42    19    18   ar
    43    15    16   ar
    44    18    17   ar
    45    16    17   ar
