@<TRIPOS>MOLECULE
1d5c_GDP_A_1.pdb
 28 30 0 0 0
SMALL
GASTEIGER

@<TRIPOS>ATOM
      1  PB        24.4490   14.3090   11.5960 P.3   201  GDP201      0.5373
      2  O1B       23.1280   13.7560   11.2970 O.3   201  GDP201     -0.1143
      3  O2B       25.5510   13.5410   11.0260 O.2   201  GDP201     -0.2221
      4  O3B       24.5940   15.7380   11.1600 O.3   201  GDP201     -0.1143
      5  O3A       24.6320   14.2110   13.1870 O.3   201  GDP201     -0.2261
      6  PA        24.6070   15.3260   14.3580 P.3   201  GDP201      0.2231
      7  O1A       23.3060   16.0000   14.3150 O.3   201  GDP201     -0.4370
      8  O2A       25.7880   16.1970   14.1730 O.2   201  GDP201     -0.5169
      9  O5'       24.8490   14.3750   15.6220 O.3   201  GDP201     -0.3111
     10  C5'       23.8650   13.4180   16.0730 C.3   201  GDP201      0.1813
     11  C4'       23.7620   13.3740   17.6070 C.3   201  GDP201      0.1799
     12  O4'       25.0360   12.8740   18.1390 O.3   201  GDP201     -0.3326
     13  C3'       23.5570   14.7490   18.2600 C.3   201  GDP201      0.2158
     14  O3'       22.6270   14.5280   19.3400 O.3   201  GDP201     -0.2175
     15  C2'       24.9780   15.1550   18.7050 C.3   201  GDP201      0.2310
     16  O2'       24.9580   16.0890   19.8250 O.3   201  GDP201     -0.2158
     17  C1'       25.6620   13.8250   19.0380 C.3   201  GDP201      0.2293
     18  N9        27.1530   13.8480   18.7530 N.pl3 201  GDP201     -0.2354
     19  C8        27.8540   14.3490   17.6510 C.3   201  GDP201      0.2246
     20  N7        29.1560   14.2160   17.7010 N.2   201  GDP201     -0.2322
     21  C5        29.3480   13.5820   18.9160 C.2   201  GDP201      0.2182
     22  C6        30.5390   13.1420   19.5910 C.1   201  GDP201      0.2372
     23  O6        31.6970   13.2390   19.2070 O.2   201  GDP201     -0.2069
     24  N1        30.3110   12.5300   20.8300 N.2   201  GDP201     -0.2485
     25  C2        29.0300   12.3420   21.4120 C.1   201  GDP201      0.2531
     26  N2        28.9490   11.7520   22.5920 N.pl3 201  GDP201     -0.0226
     27  N3        27.9040   12.7470   20.8000 N.2   201  GDP201     -0.3074
     28  C4        28.1140   13.3510   19.5740 C.2   201  GDP201      0.2300
@<TRIPOS>BOND
     1     3     1    2
     2     4     1    1
     3     2     1    1
     4     1     5    1
     5     5     6    1
     6     8     6    2
     7     7     6    1
     8     6     9    1
     9     9    10    1
    10    10    11    1
    11    11    12    1
    12    11    13    1
    13    19    20    1
    14    19    18    1
    15    20    21    2
    16    12    17    1
    17    13    15    1
    18    13    14    1
    19    15    17    1
    20    15    16    1
    21    18    17    1
    22    18    28    1
    23    21    28    1
    24    21    22    1
    25    23    22    2
    26    28    27    2
    27    22    24    2
    28    27    25    2
    29    24    25    2
    30    25    26    1
