@<TRIPOS>MOLECULE
1d5j_MM3_A_1.pdb
 24 25 0 0 0
SMALL
GASTEIGER

@<TRIPOS>ATOM
      1  C1        -7.1220   20.1440   30.1970 C.ar  401  MM3401      0.1224
      2  C2        -7.6020   18.7890   29.9880 C.ar  401  MM3401      0.0230
      3  C3        -6.6840   17.6950   30.2860 C.ar  401  MM3401      0.0383
      4  C4        -5.3460   18.0760   30.7490 C.ar  401  MM3401      0.1388
      5  C5        -4.9230   19.4570   30.9610 C.ar  401  MM3401      0.0383
      6  C6        -5.8240   20.5500   30.6810 C.ar  401  MM3401      0.0230
      7  O7        -4.3900   17.1480   30.8890 O.3   401  MM3401     -0.4714
      8  C8        -4.6050   15.8300   30.8560 C.3   401  MM3401      0.2525
      9  S9        -8.3160   21.4080   29.7660 S.O2  401  MM3401      0.0636
     10  O10       -9.9100   20.7480   30.1940 O.2   401  MM3401     -0.1528
     11  O11       -8.0540   22.8590   30.5810 O.2   401  MM3401     -0.1528
     12  N12       -8.2880   22.0020   28.1290 N.3   401  MM3401     -0.1500
     13  C13       -7.2700   22.7380   27.3640 C.3   401  MM3401      0.1333
     14  C14       -7.6030   24.2400   27.2370 C.3   401  MM3401      0.0601
     15  S15       -9.4280   24.2800   27.2770 S.3   401  MM3401     -0.1401
     16  C16      -10.4670   23.0110   26.4660 C.3   401  MM3401      0.0590
     17  C17      -10.4560   21.6300   27.1300 C.3   401  MM3401      0.0308
     18  C18       -9.0470   21.1090   27.2530 C.3   401  MM3401      0.0971
     19  C19       -7.2900   24.6330   25.8090 C.3   401  MM3401      0.0126
     20  C20       -7.0590   25.5030   27.8950 C.3   401  MM3401      0.0126
     21  C         -5.8110   22.4030   27.6920 C.2   401  MM3401      0.1037
     22  NA        -5.0430   23.3000   28.3020 N.am  401  MM3401     -0.2015
     23  OA        -3.6240   23.0260   27.8490 O.3   401  MM3401     -0.4026
     24  OB        -5.3140   21.3390   27.3190 O.2   401  MM3401     -0.5381
@<TRIPOS>BOND
     1    19    14    1
     2    16    17    1
     3    16    15    1
     4    17    18    1
     5    14    15    1
     6    14    13    1
     7    14    20    1
     8    18    12    1
     9    24    21    2
    10    13    21    1
    11    13    12    1
    12    21    22   am
    13    23    22    1
    14    12     9    1
    15     9    10    2
    16     9     1    1
    17     9    11    2
    18     2     1   ar
    19     2     3   ar
    20     1     6   ar
    21     3     4   ar
    22     6     5   ar
    23     4     7    1
    24     4     5   ar
    25     8     7    1
