@<TRIPOS>MOLECULE
1d5l_MAN_C_1.pdb
 11 11 0 0 0
SMALL
GASTEIGER

@<TRIPOS>ATOM
      1  C1        32.6610   10.6830   14.0660 C.3   1644  MAN1644     0.1777
      2  C2        32.0320   11.3450   12.8330 C.3   1644  MAN1644     0.2141
      3  C3        30.6520   11.8900   13.1920 C.3   1644  MAN1644     0.2173
      4  C4        29.7850   10.7600   13.7560 C.3   1644  MAN1644     0.2142
      5  C5        30.4960   10.1450   14.9720 C.3   1644  MAN1644     0.1810
      6  C6        29.7400    8.9750   15.5970 C.3   1644  MAN1644     0.2141
      7  O2        31.9260   10.4180   11.7590 O.3   1644  MAN1644    -0.2176
      8  O3        30.0440   12.4560   12.0440 O.3   1644  MAN1644    -0.2175
      9  O4        28.5000   11.2670   14.1230 O.3   1644  MAN1644    -0.2176
     10  O5        31.7980    9.6590   14.5590 O.3   1644  MAN1644    -0.3481
     11  O6        29.4410    7.9760   14.6300 O.3   1644  MAN1644    -0.2176
@<TRIPOS>BOND
     1     7     2    1
     2     8     3    1
     3     2     3    1
     4     2     1    1
     5     3     4    1
     6     4     9    1
     7     4     5    1
     8     1    10    1
     9    10     5    1
    10    11     6    1
    11     5     6    1
