@<TRIPOS>MOLECULE
1d5l_FUC_C_1.pdb
 10 10 0 0 0
SMALL
GASTEIGER

@<TRIPOS>ATOM
      1  C1        36.9820    5.3410    7.3230 C.3   1645  FUC1645     0.1776
      2  C2        36.8450    6.6080    6.5130 C.3   1645  FUC1645     0.2141
      3  C3        37.9820    6.6620    5.4960 C.3   1645  FUC1645     0.2172
      4  C4        37.9420    5.4190    4.6100 C.3   1645  FUC1645     0.2116
      5  C5        37.9170    4.1440    5.4530 C.3   1645  FUC1645     0.1483
      6  C6        37.6160    2.9040    4.6240 C.3   1645  FUC1645     0.0349
      7  O2        36.9130    7.7090    7.4000 O.3   1645  FUC1645    -0.2176
      8  O3        37.8690    7.8230    4.6760 O.3   1645  FUC1645    -0.2175
      9  O4        36.7820    5.4700    3.8060 O.3   1645  FUC1645    -0.2177
     10  O5        36.8820    4.2270    6.4500 O.3   1645  FUC1645    -0.3508
@<TRIPOS>BOND
     1     9     4    1
     2     4     5    1
     3     4     3    1
     4     6     5    1
     5     8     3    1
     6     5    10    1
     7     3     2    1
     8    10     1    1
     9     2     1    1
    10     2     7    1
