@<TRIPOS>MOLECULE
1d5l_HEM_A_1.pdb
 43 50 0 0 0
SMALL
GASTEIGER

@<TRIPOS>ATOM
      1  CHA       19.1290  -12.3180   -3.1730 C.2   605  HEM605      0.0000
      2  CHB       17.8570  -14.9590   -6.9600 C.2   605  HEM605      0.0000
      3  CHC       21.3960  -12.9720   -9.5530 C.2   605  HEM605      0.0000
      4  CHD       22.6480  -10.3210   -5.7700 C.2   605  HEM605      0.0000
      5  C1A       18.3490  -13.0450   -4.0600 C.ar  605  HEM605      0.0000
      6  C2A       17.1930  -13.8210   -3.6590 C.ar  605  HEM605      0.0000
      7  C3A       16.8690  -14.5990   -4.7120 C.ar  605  HEM605      0.0000
      8  C4A       17.7940  -14.2740   -5.7680 C.ar  605  HEM605      0.0000
      9  CMA       15.7610  -15.6330   -4.7620 C.3   605  HEM605      0.0000
     10  CAA       16.4250  -13.6910   -2.3530 C.3   605  HEM605      0.0000
     11  CBA       15.1300  -12.8830   -2.5170 C.3   605  HEM605      0.0000
     12  CGA       14.4390  -12.6630   -1.1990 C.2   605  HEM605      0.0000
     13  O1A       13.5740  -13.4830   -0.8360 O.co2 605  HEM605      0.0000
     14  O2A       14.7640  -11.6700   -0.5180 O.co2 605  HEM605      0.0000
     15  C1B       18.7810  -14.7300   -7.9590 C.2   605  HEM605      0.0000
     16  C2B       18.8540  -15.4970   -9.1890 C.2   605  HEM605      0.0000
     17  C3B       19.8560  -14.9440   -9.9320 C.2   605  HEM605      0.0000
     18  C4B       20.3790  -13.8320   -9.1330 C.2   605  HEM605      0.0000
     19  CMB       17.9680  -16.6900   -9.5650 C.3   605  HEM605      0.0000
     20  CAB       20.3280  -15.3410  -11.1970 C.3   605  HEM605      0.0000
     21  CBB       20.5940  -16.7140  -11.5960 C.3   605  HEM605      0.0000
     22  C1C       21.9510  -11.9580   -8.7850 C.ar  605  HEM605      0.0000
     23  C2C       23.0340  -11.1040   -9.2320 C.ar  605  HEM605      0.0000
     24  C3C       23.3950  -10.3410   -8.1420 C.ar  605  HEM605      0.0000
     25  C4C       22.5110  -10.7490   -7.0720 C.ar  605  HEM605      0.0000
     26  CMC       23.5620  -11.0420  -10.6630 C.3   605  HEM605      0.0000
     27  CAC       24.4080   -9.3670   -8.0150 C.3   605  HEM605      0.0000
     28  CBC       25.1510   -8.8030   -9.1140 C.3   605  HEM605      0.0000
     29  C1D       21.8810  -10.7310   -4.7050 C.2   605  HEM605      0.0000
     30  C2D       22.1500  -10.3810   -3.3150 C.2   605  HEM605      0.0000
     31  C3D       21.1900  -10.9830   -2.5690 C.2   605  HEM605      0.0000
     32  C4D       20.3050  -11.6610   -3.5180 C.2   605  HEM605      0.0000
     33  CMD       23.3470   -9.6010   -2.7840 C.3   605  HEM605      0.0000
     34  CAD       21.1910  -11.1220   -1.0450 C.3   605  HEM605      0.0000
     35  CBD       21.9940  -12.3560   -0.5700 C.3   605  HEM605      0.0000
     36  CGD       21.8610  -12.6540    0.9150 C.2   605  HEM605      0.0000
     37  O1D       22.4460  -11.9100    1.7390 O.co2 605  HEM605      0.0000
     38  O2D       21.1740  -13.6450    1.2690 O.co2 605  HEM605      0.0000
     39  NA        18.6840  -13.2870   -5.3780 N.ar  605  HEM605      0.0000
     40  NB        19.7370  -13.7320   -7.9140 N.2   605  HEM605      0.0000
     41  NC        21.6090  -11.7130   -7.4750 N.ar  605  HEM605      0.0000
     42  ND        20.7720  -11.5580   -4.8200 N.2   605  HEM605      0.0000
     43 FE         20.1340  -12.4920   -6.4330 Fe    605  HEM605      0.0000
@<TRIPOS>BOND
     1    21    20    1
     2    20    17    1
     3    26    23    1
     4    17    16    2
     5    17    18    1
     6    19    16    1
     7     3    18    2
     8     3    22    1
     9    23    22   ar
    10    23    24   ar
    11    16    15    1
    12    18    40    1
    13    28    27    1
    14    22    41   ar
    15    24    27    1
    16    24    25   ar
    17    15    40    2
    18    15     2    1
    19    40    43    1
    20    41    25   ar
    21    41    43    1
    22    25     4    1
    23     2     8    2
    24    43    39    1
    25    43    42    1
    26     4    29    2
    27     8    39   ar
    28     8     7   ar
    29    39     5   ar
    30    42    29    1
    31    42    32    2
    32     9     7    1
    33     7     6   ar
    34    29    30    1
    35     5     6   ar
    36     5     1    2
    37     6    10    1
    38    32     1    1
    39    32    31    1
    40    30    33    1
    41    30    31    2
    42    31    34    1
    43    11    10    1
    44    11    12    1
    45    12    13   ar
    46    12    14   ar
    47    34    35    1
    48    35    36    1
    49    36    38   ar
    50    36    37   ar
