@<TRIPOS>MOLECULE
1d6a_GUN_A_1.pdb
 14 15 0 0 0
SMALL
GASTEIGER

@<TRIPOS>ATOM
      1  N9        -6.9350   12.1080   30.5090 N.2   901  GUN901     -0.1814
      2  C8        -6.6870   10.7780   30.2630 C.3   901  GUN901      0.2627
      3  N7        -5.5870   10.5750   29.5900 N.2   901  GUN901     -0.2284
      4  C5        -5.0760   11.8450   29.3790 C.2   901  GUN901      0.2054
      5  C6        -3.9020   12.2620   28.7020 C.2   901  GUN901      0.2803
      6  O6        -3.0510   11.5650   28.1330 O.2   901  GUN901     -0.2673
      7  N1        -3.7620   13.6430   28.7250 N.am  901  GUN901     -0.2416
      8  C2        -4.6370   14.5160   29.3330 C.2   901  GUN901      0.2482
      9  N2        -4.3220   15.8170   29.2740 N.pl3 901  GUN901     -0.3201
     10  N3        -5.7410   14.1390   29.9620 N.2   901  GUN901     -0.3189
     11  C4        -5.8940   12.8030   29.9440 C.1   901  GUN901      0.1103
     12  HN1       -2.9670   14.0200   28.2390 H     901  GUN901      0.1589
     13 HN21       -4.9310   16.5050   29.6900 H     901  GUN901      0.1459
     14 HN22       -3.4710   16.1100   28.8170 H     901  GUN901      0.1459
@<TRIPOS>BOND
     1     6     5    2
     2    12     7    1
     3     5     7   am
     4     5     4    1
     5     7     8    1
     6    14     9    1
     7     9     8    1
     8     9    13    1
     9     8    10    2
    10     4     3    2
    11     4    11    1
    12     3     2    1
    13    11    10    2
    14    11     1    2
    15     2     1    1
