@<TRIPOS>MOLECULE
1d6h_COA_A_1.pdb
 48 50 0 0 0
SMALL
GASTEIGER

@<TRIPOS>ATOM
      1  N1A        2.6650   51.5440   52.5300 N.2   390  COA390      0.0021
      2  C2A        2.1790   50.8510   51.4450 C.3   390  COA390      0.5254
      3  N3A        2.5990   50.8620   50.2160 N.2   390  COA390     -0.0055
      4  C4A        3.6760   51.6700   50.0570 C.2   390  COA390      0.3518
      5  C5A        4.2800   52.4200   51.0510 C.2   390  COA390      0.2526
      6  C6A        3.7500   52.3570   52.3560 C.2   390  COA390      0.4393
      7  N6A        4.2260   53.0170   53.4160 N.pl3 390  COA390      0.2180
      8  N7A        5.3200   53.1440   50.4930 N.2   390  COA390     -0.2095
      9  C8A        5.3150   52.8320   49.1870 C.3   390  COA390      0.3377
     10  N9A        4.3340   51.9460   48.8620 N.pl3 390  COA390     -0.1439
     11  C1B        4.0040   51.3570   47.5760 C.3   390  COA390      0.3185
     12  C2B        2.5860   51.5130   47.0980 C.3   390  COA390      0.2543
     13  O2B        1.6930   50.5010   47.5550 O.3   390  COA390     -0.2131
     14  C3B        2.7400   51.5810   45.5700 C.3   390  COA390      0.1928
     15  O3B        2.1290   50.4370   44.8810 O.3   390  COA390     -0.2673
     16  P3B        0.8100   50.5950   44.0110 P.3   390  COA390      0.5327
     17  O7A       -0.0540   49.3440   44.4470 O.3   390  COA390     -0.1145
     18  O8A        0.9640   50.8010   42.5860 O.2   390  COA390     -0.2224
     19  O9A       -0.1770   51.5220   44.5350 O.3   390  COA390     -0.1145
     20  C4B        4.2610   51.6030   45.2360 C.3   390  COA390      0.1795
     21  O4B        4.7300   51.9430   46.5620 O.3   390  COA390     -0.3136
     22  C5B        4.6800   52.6000   44.1890 C.3   390  COA390      0.1812
     23  O5B        3.8870   53.7630   44.0830 O.3   390  COA390     -0.3112
     24  P1A        3.7870   54.9770   43.0540 P.3   390  COA390      0.2189
     25  O1A        2.8230   54.6670   41.9730 O.2   390  COA390     -0.5170
     26  O2A        3.2460   56.1290   43.8590 O.3   390  COA390     -0.4371
     27  O3A        5.2440   55.3630   42.5830 O.3   390  COA390     -0.2703
     28  P2A        6.4170   56.2950   43.1760 P.3   390  COA390      0.2188
     29  O4A        6.6490   57.4980   42.3340 O.2   390  COA390     -0.5170
     30  O5A        6.1390   56.7950   44.5300 O.3   390  COA390     -0.4371
     31  O6A        7.7170   55.5580   43.1650 O.3   390  COA390     -0.3138
     32  CBP        8.9390   54.4400   44.9020 C.3   390  COA390      0.0645
     33  CCP        7.7090   54.3690   43.9470 C.3   390  COA390      0.1519
     34  CDP       10.2210   54.1210   44.0850 C.3   390  COA390      0.0056
     35  CEP        8.8400   53.2970   45.9430 C.3   390  COA390      0.0056
     36  CAP        8.7210   55.7840   45.6690 C.3   390  COA390      0.2312
     37  OAP        7.6450   55.5340   46.4410 O.3   390  COA390     -0.2131
     38  C9P        9.9050   56.0010   46.6470 C.2   390  COA390      0.2719
     39  O9P       10.8970   56.6110   46.1810 O.2   390  COA390     -0.2706
     40  N8P        9.6840   55.4730   47.8660 N.am  390  COA390     -0.2028
     41  C7P       10.9080   55.6560   48.7480 C.3   390  COA390      0.1248
     42  C6P       10.7090   56.4770   49.9990 C.3   390  COA390      0.1102
     43  C5P       11.6140   55.9810   51.0870 C.2   390  COA390      0.2432
     44  O5P       11.2720   56.0600   52.2620 O.2   390  COA390     -0.2733
     45  N4P       12.8080   55.4400   50.8890 N.am  390  COA390     -0.2044
     46  C3P       13.4800   55.0430   52.2040 C.3   390  COA390      0.1276
     47  C2P       14.4370   53.8610   52.1380 C.3   390  COA390      0.0920
     48  S1P       14.2060   52.6900   53.4850 S.3   390  COA390     -0.0802
@<TRIPOS>BOND
     1    25    24    2
     2    29    28    2
     3    27    24    1
     4    27    28    1
     5    18    16    2
     6    24    26    1
     7    24    23    1
     8    31    28    1
     9    31    33    1
    10    28    30    1
    11    33    32    1
    12    16    17    1
    13    16    19    1
    14    16    15    1
    15    23    22    1
    16    34    32    1
    17    22    20    1
    18    15    14    1
    19    32    36    1
    20    32    35    1
    21    20    14    1
    22    20    21    1
    23    14    12    1
    24    36    37    1
    25    36    38    1
    26    39    38    2
    27    21    11    1
    28    38    40   am
    29    12    13    1
    30    12    11    1
    31    11    10    1
    32    40    41    1
    33    41    42    1
    34    10     9    1
    35    10     4    1
    36     9     8    1
    37    42    43    1
    38     4     3    2
    39     4     5    1
    40     3     2    1
    41     8     5    2
    42    45    43   am
    43    45    46    1
    44     5     6    1
    45    43    44    2
    46     2     1    1
    47    47    46    1
    48    47    48    1
    49     6     1    2
    50     6     7    1
