@<TRIPOS>MOLECULE
1d6n_PPO_A_1.pdb
 10 11 0 0 0
SMALL
GASTEIGER

@<TRIPOS>ATOM
      1  O6        45.7210   51.0030    3.6400 O.2   300  PPO300     -0.2205
      2  C6        44.9190   50.0450    3.6210 C.1   300  PPO300      0.1734
      3  C5        43.8470   49.7780    4.5360 C.2   300  PPO300      0.2035
      4  N7        43.4150   50.4750    5.6470 N.2   300  PPO300     -0.1344
      5  N8        42.4140   49.7890    6.1030 N.2   300  PPO300     -0.1440
      6  C9        42.1480   48.6640    5.3580 C.2   300  PPO300      0.1431
      7  C4        43.0690   48.6440    4.3400 C.2   300  PPO300      0.1297
      8  N3        43.1770   47.6920    3.3460 N.2   300  PPO300     -0.2396
      9  C2        44.1880   47.9370    2.4740 C.3   300  PPO300      0.2626
     10  N1        45.0210   49.0570    2.6010 N.2   300  PPO300     -0.1739
@<TRIPOS>BOND
     1     9    10    1
     2     9     8    1
     3    10     2    2
     4     8     7    2
     5     2     1    2
     6     2     3    1
     7     7     3    1
     8     7     6    1
     9     3     4    2
    10     6     5    2
    11     4     5    1
