@<TRIPOS>MOLECULE
1d6n_PRP_A_1.pdb
 22 22 0 0 0
SMALL
GASTEIGER

@<TRIPOS>ATOM
      1  C1        40.3670   46.0670    7.5950 C.3   312  PRP312      0.2742
      2  C2        41.2610   45.6930    8.7300 C.3   312  PRP312      0.2408
      3  C3        40.4220   45.8200    9.9320 C.3   312  PRP312      0.2167
      4  C4        39.1000   46.2320    9.5210 C.3   312  PRP312      0.1808
      5  C5        38.8810   47.4120   10.2440 C.3   312  PRP312      0.1859
      6  O1        40.2510   45.0100    6.5470 O.3   312  PRP312     -0.2857
      7  O2        41.8720   44.3680    8.6600 O.3   312  PRP312     -0.2149
      8  O3        40.2560   44.6630   10.7490 O.3   312  PRP312     -0.2175
      9  O4        39.0650   46.3880    8.0750 O.3   312  PRP312     -0.3255
     10  O5        37.6980   48.0650   10.0900 O.3   312  PRP312     -0.2675
     11  P         37.4160   49.6340   10.5980 P.3   312  PRP312      0.5327
     12  O1P       37.2710   50.5010    9.4390 O.2   312  PRP312     -0.2224
     13  O2P       38.4900   50.1430   11.4270 O.3   312  PRP312     -0.1145
     14  O3P       36.1240   49.5250   11.3580 O.3   312  PRP312     -0.1145
     15  PA        40.2870   43.3010    6.4980 P.3   312  PRP312      0.2249
     16  O1A       39.2410   43.0130    7.4770 O.3   312  PRP312     -0.4370
     17  O2A       39.5660   43.0020    5.2340 O.2   312  PRP312     -0.5169
     18  O3A       41.0090   42.1270    7.0070 O.3   312  PRP312     -0.2260
     19  PB        41.4190   40.8840    7.7470 P.3   312  PRP312      0.5373
     20  O1B       41.4060   41.7950    9.0250 O.3   312  PRP312     -0.1143
     21  O2B       42.8750   40.8200    7.5100 O.2   312  PRP312     -0.2221
     22  O3B       41.1780   39.4400    7.8560 O.3   312  PRP312     -0.1143
@<TRIPOS>BOND
     1    17    15    2
     2    15     6    1
     3    15    18    1
     4    15    16    1
     5     6     1    1
     6    18    19    1
     7    21    19    2
     8     1     9    1
     9     1     2    1
    10    19    22    1
    11    19    20    1
    12     9     4    1
    13     7     2    1
    14     2     3    1
    15    12    11    2
    16     4     3    1
    17     4     5    1
    18     3     8    1
    19    10     5    1
    20    10    11    1
    21    11    14    1
    22    11    13    1
