@<TRIPOS>MOLECULE
1d6p_NAG_A_1.pdb
 14 14 0 0 0
SMALL
GASTEIGER

@<TRIPOS>ATOM
      1  C1       -16.9560   -3.2900   36.2070 C.3   131  NAG131      0.1665
      2  C2       -18.2290   -2.5370   36.5210 C.3   131  NAG131      0.1576
      3  C3       -18.2750   -2.3180   38.0300 C.3   131  NAG131      0.2069
      4  C4       -18.3290   -3.6740   38.6950 C.3   131  NAG131      0.2134
      5  C5       -17.1670   -4.5970   38.2250 C.3   131  NAG131      0.1809
      6  C6       -17.4590   -6.0470   38.5890 C.3   131  NAG131      0.2141
      7  C7       -19.1000   -1.1360   34.7650 C.2   131  NAG131      0.2420
      8  C8       -19.0830    0.2180   34.0590 C.3   131  NAG131      0.0964
      9  N2       -18.2660   -1.2810   35.7930 N.am  131  NAG131     -0.2019
     10  O3       -19.4250   -1.5640   38.4000 O.3   131  NAG131     -0.2184
     11  O4       -18.2840   -3.4880   40.1080 O.3   131  NAG131     -0.2176
     12  O5       -17.0180   -4.5900   36.7810 O.3   131  NAG131     -0.3489
     13  O6       -18.2460   -6.6900   37.5780 O.3   131  NAG131     -0.2176
     14  O7       -19.8460   -2.0420   34.3910 O.2   131  NAG131     -0.2733
@<TRIPOS>BOND
     1     8     7    1
     2    14     7    2
     3     7     9   am
     4     9     2    1
     5     1     2    1
     6     1    12    1
     7     2     3    1
     8    12     5    1
     9    13     6    1
    10     3    10    1
    11     3     4    1
    12     5     6    1
    13     5     4    1
    14     4    11    1
