@<TRIPOS>MOLECULE
1d6q_NAG_A_1.pdb
 14 14 0 0 0
SMALL
GASTEIGER

@<TRIPOS>ATOM
      1  C1       -14.6800   25.5460   32.1400 C.3   132  NAG132      0.1665
      2  C2       -14.8200   24.3340   33.0480 C.3   132  NAG132      0.1576
      3  C3       -16.0910   24.4740   33.9150 C.3   132  NAG132      0.2069
      4  C4       -16.1290   25.8450   34.5890 C.3   132  NAG132      0.2134
      5  C5       -15.9100   26.9520   33.5560 C.3   132  NAG132      0.1809
      6  C6       -15.8930   28.3650   34.1020 C.3   132  NAG132      0.2141
      7  C7       -13.9530   22.2330   32.2180 C.2   132  NAG132      0.2420
      8  C8       -14.0880   21.0710   31.2570 C.3   132  NAG132      0.0964
      9  N2       -14.8960   23.1680   32.1810 N.am  132  NAG132     -0.2019
     10  O3       -16.1370   23.4730   34.9200 O.3   132  NAG132     -0.2184
     11  O4       -17.4130   26.0120   35.2140 O.3   132  NAG132     -0.2176
     12  O5       -14.6580   26.7440   32.8920 O.3   132  NAG132     -0.3489
     13  O6       -15.8410   29.3100   33.0390 O.3   132  NAG132     -0.2176
     14  O7       -13.0470   22.2660   33.0380 O.2   132  NAG132     -0.2733
@<TRIPOS>BOND
     1     8     7    1
     2     1    12    1
     3     1     2    1
     4     9     7   am
     5     9     2    1
     6     7    14    2
     7    12     5    1
     8    13     6    1
     9     2     3    1
    10     5     6    1
    11     5     4    1
    12     3     4    1
    13     3    10    1
    14     4    11    1
