@<TRIPOS>MOLECULE
1d6q_GAL_A_1.pdb
 11 11 0 0 0
SMALL
GASTEIGER

@<TRIPOS>ATOM
      1  C1       -17.4300   26.2870   36.5630 C.3   131  GAL131      0.1777
      2  C2       -18.8610   26.6500   36.9620 C.3   131  GAL131      0.2141
      3  C3       -18.9460   26.8640   38.4610 C.3   131  GAL131      0.2173
      4  C4       -18.4430   25.6110   39.1370 C.3   131  GAL131      0.2142
      5  C5       -17.0220   25.2890   38.6800 C.3   131  GAL131      0.1810
      6  C6       -16.4530   24.0360   39.3120 C.3   131  GAL131      0.2141
      7  O2       -19.2750   27.8230   36.2800 O.3   131  GAL131     -0.2176
      8  O3       -20.3040   27.0650   38.8120 O.3   131  GAL131     -0.2175
      9  O4       -19.3220   24.5390   38.8020 O.3   131  GAL131     -0.2176
     10  O5       -16.9960   25.1060   37.2580 O.3   131  GAL131     -0.3481
     11  O6       -16.3440   24.1880   40.7200 O.3   131  GAL131     -0.2176
@<TRIPOS>BOND
     1     7     2    1
     2     1     2    1
     3     1    10    1
     4     2     3    1
     5    10     5    1
     6     3     8    1
     7     3     4    1
     8     5     4    1
     9     5     6    1
    10     9     4    1
    11     6    11    1
