@<TRIPOS>MOLECULE
1d6s_PLP_A_1.pdb
 15 15 0 0 0
SMALL
GASTEIGER

@<TRIPOS>ATOM
      1  N1        35.8800   26.2890   15.9320 N.ar  501  PLP501     -0.2452
      2  C2        37.1410   26.6340   15.5110 C.ar  501  PLP501      0.0978
      3  C2A       37.3360   27.3530   14.1880 C.3   501  PLP501      0.0555
      4  C3        38.2330   26.2780   16.2510 C.ar  501  PLP501      0.2049
      5  O3        39.4740   26.6940   15.8500 O.3   501  PLP501     -0.2857
      6  C4        38.0720   25.5390   17.4200 C.ar  501  PLP501      0.0182
      7  C4A       39.3040   25.0280   18.1910 C.3   501  PLP501      0.0342
      8  C5        36.8060   25.1890   17.8340 C.ar  501  PLP501      0.0261
      9  C6        35.7160   25.5730   17.0960 C.ar  501  PLP501      0.0965
     10  C5A       36.6150   24.2650   19.0140 C.3   501  PLP501      0.1815
     11  O4P       36.6570   24.9630   20.2560 O.3   501  PLP501     -0.2653
     12  P         37.0930   24.1340   21.5490 P.3   501  PLP501      0.5329
     13  O1P       36.8510   24.9160   22.7760 O.3   501  PLP501     -0.1145
     14  O2P       36.0340   22.9220   21.5210 O.3   501  PLP501     -0.1145
     15  O3P       38.4330   23.5630   21.2790 O.2   501  PLP501     -0.2224
@<TRIPOS>BOND
     1     3     2    1
     2     2     1   ar
     3     2     4   ar
     4     5     4    1
     5     1     9   ar
     6     4     6   ar
     7     9     8   ar
     8     6     8   ar
     9     6     7    1
    10     8    10    1
    11    10    11    1
    12    11    12    1
    13    15    12    2
    14    14    12    1
    15    12    13    1
