@<TRIPOS>MOLECULE
1d6v_HOP_H_1.pdb
 28 30 0 0 0
SMALL
GASTEIGER

@<TRIPOS>ATOM
      1  C1        11.2940    8.1470    0.6440 C.ar  401  HOP401     -0.0000
      2  C2        10.2580    7.5140   -0.1120 C.ar  401  HOP401     -0.0003
      3  C6        11.8120    9.4030    0.2350 C.ar  401  HOP401     -0.0003
      4  C5        11.3050   10.0420   -0.9300 C.ar  401  HOP401     -0.0043
      5  C4        10.2600    9.4190   -1.7040 C.ar  401  HOP401     -0.0224
      6  C3         9.7490    8.1450   -1.2790 C.ar  401  HOP401     -0.0043
      7  C7         9.7100   10.0840   -2.9860 C.3   401  HOP401      0.0249
      8  C12       10.7980   10.8910   -3.7860 C.3   401  HOP401      0.0376
      9  C11       10.2490   11.5620   -5.0690 C.3   401  HOP401      0.1563
     10  C10        9.0570   12.5180   -4.7100 C.3   401  HOP401      0.0527
     11  C9         7.9250   11.6920   -3.9550 C.3   401  HOP401      0.0072
     12  C8         8.4760   11.0080   -2.6630 C.3   401  HOP401      0.0049
     13  C13        8.4910   13.2160   -6.0100 C.ar  401  HOP401     -0.0200
     14  C14        9.1060   14.4380   -6.4700 C.ar  401  HOP401     -0.0041
     15  C15        8.6300   15.0920   -7.6120 C.ar  401  HOP401      0.0042
     16  C16        7.5150   14.5600   -8.3470 C.ar  401  HOP401      0.0550
     17  C17        6.9200   13.3420   -7.8940 C.ar  401  HOP401      0.0042
     18  C18        7.3900   12.6670   -6.7420 C.ar  401  HOP401     -0.0041
     19  O19       11.3230   12.2680   -5.7340 O.3   401  HOP401     -0.2228
     20  C20        7.0300   15.2630   -9.5770 C.2   401  HOP401      0.2648
     21  O21        5.9330   14.9560  -10.0620 O.2   401  HOP401     -0.2684
     22  N22        7.8270   16.2400  -10.1200 N.am  401  HOP401     -0.2017
     23  C23        7.5630   17.1070  -11.3090 C.3   401  HOP401      0.1160
     24  C24        8.6300   18.2450  -11.3710 C.3   401  HOP401      0.0352
     25  C25        9.4940   18.3250  -10.0860 C.3   401  HOP401      0.1159
     26  C26       10.4590   19.4890  -10.0280 C.2   401  HOP401      0.3649
     27  O27       11.4120   19.6240  -10.8120 O.co2 401  HOP401     -0.2457
     28  O28       10.1590   20.3660   -8.9880 O.co2 401  HOP401     -0.2457
@<TRIPOS>BOND
     1    24    23    1
     2    24    25    1
     3    23    22    1
     4    27    26   ar
     5    22    20   am
     6    25    26    1
     7    21    20    2
     8    26    28   ar
     9    20    16    1
    10    16    17   ar
    11    16    15   ar
    12    17    18   ar
    13    15    14   ar
    14    18    13   ar
    15    14    13   ar
    16    13    10    1
    17    19     9    1
    18     9    10    1
    19     9     8    1
    20    10    11    1
    21    11    12    1
    22     8     7    1
    23     7    12    1
    24     7     5    1
    25     5     6   ar
    26     5     4   ar
    27     6     2   ar
    28     4     3   ar
    29     2     1   ar
    30     3     1   ar
