@<TRIPOS>MOLECULE
1d6w_00R_A_1.pdb
 37 41 0 0 0
SMALL
GASTEIGER

@<TRIPOS>ATOM
      1  C01       13.5570  -11.0860   19.9620 C.3   380  00R380      0.0221
      2  C02       14.4460  -12.4670   20.0420 C.3   380  00R380      0.0954
      3  C03       13.4950  -13.6750   20.3320 C.3   380  00R380      0.0221
      4  C04       12.3520  -13.3920   21.4960 C.3   380  00R380      0.0085
      5  C05       12.8360  -12.0680   22.3430 C.3   380  00R380      0.0513
      6  C06       12.9450  -10.7710   21.4690 C.3   380  00R380      0.0085
      7  N07       18.0250  -16.1340   23.1370 N.ar  380  00R380     -0.2303
      8  C08       19.1440  -16.3230   22.3250 C.ar  380  00R380      0.3496
      9  O09       19.8090  -17.3580   22.1880 O.2   380  00R380     -0.2447
     10  N10       19.3820  -15.1200   21.6610 N.ar  380  00R380     -0.2131
     11  N11       18.3990  -14.2200   22.0660 N.ar  380  00R380     -0.2067
     12  C12       17.5690  -14.8270   22.9990 C.ar  380  00R380      0.3500
     13  O13       16.5890  -14.3440   23.5610 O.2   380  00R380     -0.2447
     14  C14       20.6360  -14.6960   21.0740 C.3   380  00R380      0.1562
     15  C15       20.5340  -13.3510   20.3930 C.2   380  00R380     -0.0021
     16  C16       19.4230  -12.5950   20.5510 C.2   380  00R380      0.0045
     17  C17       18.2030  -12.9610   21.3610 C.3   380  00R380      0.2070
     18  C18       16.9240  -13.1160   20.5000 C.2   380  00R380      0.2681
     19  O19       16.9030  -13.8470   19.2370 O.2   380  00R380     -0.2709
     20  N20       15.5870  -12.3820   20.9900 N.am  380  00R380     -0.2053
     21  C22       12.0340  -11.9000   23.2690 C.2   380  00R380      0.1244
     22  N23       11.6470  -12.8270   24.2480 N.2   380  00R380     -0.3423
     23  C24       10.7930  -12.2360   25.1330 C.1   380  00R380      0.1817
     24  N25       10.6170  -10.9750   24.7980 N.2   380  00R380     -0.1879
     25  C26       11.4440  -10.7640   23.5830 C.3   380  00R380      0.1934
     26  N27       10.2640  -12.9570   26.1260 N.pl3 380  00R380     -0.0348
     27  C31       17.3700  -17.1500   23.9450 C.3   380  00R380      0.1409
     28  C32       18.3370  -17.9690   24.7590 C.3   380  00R380      0.1806
     29  S33       18.8410  -17.1800   26.2810 S.O2  380  00R380      0.0106
     30  O34       17.6720  -16.3950   26.7250 O.2   380  00R380     -0.1686
     31  O35       19.2610  -18.2340   27.1910 O.2   380  00R380     -0.1686
     32  C36       20.1650  -16.0750   25.8620 C.ar  380  00R380      0.1057
     33  C37       20.1810  -14.7560   26.3300 C.ar  380  00R380      0.0183
     34  C38       21.2000  -13.8930   25.9430 C.ar  380  00R380      0.0013
     35  C39       22.2100  -14.3250   25.1010 C.ar  380  00R380      0.0001
     36  C40       22.2260  -15.6300   24.6340 C.ar  380  00R380      0.0013
     37  C41       21.2070  -16.4980   25.0150 C.ar  380  00R380      0.0183
@<TRIPOS>BOND
     1    19    18    2
     2     1     2    1
     3     1     6    1
     4     2     3    1
     5     2    20    1
     6     3     4    1
     7    15    16    2
     8    15    14    1
     9    18    20   am
    10    18    17    1
    11    16    17    1
    12    14    10    1
    13    17    11    1
    14     6     5    1
    15     4     5    1
    16    10    11   ar
    17    10     8   ar
    18    11    12   ar
    19     9     8    2
    20     8     7   ar
    21     5    21    1
    22    12     7   ar
    23    12    13    2
    24     7    27    1
    25    21    25    1
    26    21    22    2
    27    25    24    1
    28    27    28    1
    29    22    23    2
    30    36    37   ar
    31    36    35   ar
    32    28    29    1
    33    24    23    2
    34    37    32   ar
    35    35    34   ar
    36    23    26    1
    37    32    29    1
    38    32    33   ar
    39    34    33   ar
    40    29    30    2
    41    29    31    2
