@<TRIPOS>MOLECULE
1d7a_AIR_A_1.pdb
 19 20 0 0 0
SMALL
GASTEIGER

@<TRIPOS>ATOM
      1  N1        10.8680   17.2950   55.2790 N.ar  300  AIR300     -0.2702
      2  C2         9.3830   17.2400   55.3770 C.ar  300  AIR300      0.1814
      3  N3         8.7110   17.9720   56.3580 N.ar  300  AIR300     -0.2208
      4  C4         9.8030   18.5760   56.9820 C.ar  300  AIR300      0.1365
      5  C5        11.0610   18.2110   56.3920 C.ar  300  AIR300      0.1735
      6  N6        12.3740   18.7090   56.8470 N.pl3 300  AIR300     -0.1072
      7  C1'       11.8460   16.6000   54.2710 C.3   300  AIR300      0.2408
      8  C2'       12.6360   15.4520   54.9200 C.3   300  AIR300      0.2337
      9  C3'       12.9160   14.4930   53.7560 C.3   300  AIR300      0.2161
     10  C4'       12.0400   15.0100   52.5950 C.3   300  AIR300      0.1803
     11  O4'       11.1540   15.9880   53.1740 O.3   300  AIR300     -0.3306
     12  O2'       13.8630   15.8980   55.4910 O.3   300  AIR300     -0.2155
     13  O3'       14.2960   14.4950   53.3810 O.3   300  AIR300     -0.2175
     14  C5'       11.2210   13.9270   51.8570 C.3   300  AIR300      0.1859
     15  O5'        9.8600   14.3430   51.5950 O.3   300  AIR300     -0.2675
     16  P          8.5610   13.5300   52.0930 P.3   300  AIR300      0.5327
     17  O6         8.5610   13.3510   53.5980 O.3   300  AIR300     -0.1145
     18  O7         8.4950   12.1560   51.4430 O.2   300  AIR300     -0.2224
     19  O8         7.2760   14.2540   51.7520 O.3   300  AIR300     -0.1145
@<TRIPOS>BOND
     1    18    16    2
     2    15    14    1
     3    15    16    1
     4    19    16    1
     5    14    10    1
     6    16    17    1
     7    10    11    1
     8    10     9    1
     9    11     7    1
    10    13     9    1
    11     9     8    1
    12     7     8    1
    13     7     1    1
    14     8    12    1
    15     1     2   ar
    16     1     5   ar
    17     2     3   ar
    18     3     4   ar
    19     5     6    1
    20     5     4   ar
