@<TRIPOS>MOLECULE
1d7b_HEM_A_1.pdb
 43 50 0 0 0
SMALL
GASTEIGER

@<TRIPOS>ATOM
      1  CHA       40.8790   33.4840   31.3920 C.2   401  HEM401      0.0000
      2  CHB       42.4890   30.4830   34.7740 C.2   401  HEM401      0.0000
      3  CHC       46.7470   32.7210   34.7420 C.2   401  HEM401      0.0000
      4  CHD       45.1970   35.5390   31.1240 C.2   401  HEM401      0.0000
      5  C1A       40.9920   32.4150   32.2480 C.2   401  HEM401      0.0000
      6  C2A       39.8710   31.5550   32.6040 C.2   401  HEM401      0.0000
      7  C3A       40.2800   30.7480   33.5930 C.2   401  HEM401      0.0000
      8  C4A       41.6750   31.0840   33.8670 C.2   401  HEM401      0.0000
      9  CMA       39.4710   29.6120   34.2370 C.3   401  HEM401      0.0000
     10  CAA       38.4670   31.6550   31.9390 C.3   401  HEM401      0.0000
     11  CBA       37.6240   32.7340   32.6610 C.3   401  HEM401      0.0000
     12  CGA       36.2290   32.9760   32.0460 C.2   401  HEM401      0.0000
     13  O1A       35.2950   33.0130   32.8990 O.co2 401  HEM401      0.0000
     14  O2A       36.1710   33.3180   30.8710 O.co2 401  HEM401      0.0000
     15  C1B       43.8030   30.7960   35.0390 C.ar  401  HEM401      0.0000
     16  C2B       44.5800   30.1890   36.1060 C.ar  401  HEM401      0.0000
     17  C3B       45.7610   30.8820   36.1850 C.ar  401  HEM401      0.0000
     18  C4B       45.6940   31.9100   35.1620 C.ar  401  HEM401      0.0000
     19  CMB       44.0490   29.0130   36.9670 C.3   401  HEM401      0.0000
     20  CAB       46.9720   30.8570   37.1520 C.3   401  HEM401      0.0000
     21  CBB       47.3000   29.6270   37.9700 C.3   401  HEM401      0.0000
     22  C1C       46.6810   33.6410   33.7040 C.2   401  HEM401      0.0000
     23  C2C       47.7980   34.5460   33.3520 C.2   401  HEM401      0.0000
     24  C3C       47.3640   35.3430   32.3460 C.2   401  HEM401      0.0000
     25  C4C       46.0000   34.9290   32.0700 C.2   401  HEM401      0.0000
     26  CMC       49.1400   34.5460   34.1380 C.3   401  HEM401      0.0000
     27  CAC       48.0430   36.4510   31.4580 C.3   401  HEM401      0.0000
     28  CBC       49.5580   36.5530   31.5580 C.3   401  HEM401      0.0000
     29  C1D       43.8560   35.2840   30.9100 C.ar  401  HEM401      0.0000
     30  C2D       43.0040   35.9560   29.9470 C.ar  401  HEM401      0.0000
     31  C3D       41.7950   35.3320   29.9680 C.ar  401  HEM401      0.0000
     32  C4D       41.9080   34.2810   30.9510 C.ar  401  HEM401      0.0000
     33  CMD       43.4610   37.0770   28.9910 C.3   401  HEM401      0.0000
     34  CAD       40.5430   35.7340   29.1380 C.3   401  HEM401      0.0000
     35  CBD       40.6460   35.3320   27.6280 C.3   401  HEM401      0.0000
     36  CGD       40.6270   33.8250   27.4120 C.2   401  HEM401      0.0000
     37  O1D       41.6650   33.2230   27.0990 O.co2 401  HEM401      0.0000
     38  O2D       39.6100   33.2200   27.8530 O.co2 401  HEM401      0.0000
     39  NA        42.0680   32.1250   33.0540 N.2   401  HEM401      0.0000
     40  NB        44.4950   31.8550   34.4710 N.ar  401  HEM401      0.0000
     41  NC        45.5900   33.9040   32.9140 N.2   401  HEM401      0.0000
     42  ND        43.1700   34.2380   31.5290 N.ar  401  HEM401      0.0000
     43 FE         43.8430   33.0110   33.0180 Fe    401  HEM401      0.0000
@<TRIPOS>BOND
     1    37    36   ar
     2    36    35    1
     3    36    38   ar
     4    35    34    1
     5    33    30    1
     6    34    31    1
     7    30    31   ar
     8    30    29   ar
     9    31    32   ar
    10    14    12   ar
    11    29     4    2
    12    29    42   ar
    13    32     1    2
    14    32    42   ar
    15     4    25    1
    16     1     5    1
    17    27    28    1
    18    27    24    1
    19    42    43    1
    20    10     6    1
    21    10    11    1
    22    12    11    1
    23    12    13   ar
    24    25    24    1
    25    25    41    2
    26     5     6    1
    27     5    39    2
    28    24    23    2
    29     6     7    2
    30    41    43    1
    31    41    22    1
    32    43    39    1
    33    43    40    1
    34    39     8    1
    35    23    22    1
    36    23    26    1
    37     7     8    1
    38     7     9    1
    39    22     3    2
    40     8     2    2
    41    40    15   ar
    42    40    18   ar
    43     3    18    1
    44     2    15    1
    45    15    16   ar
    46    18    17   ar
    47    16    17   ar
    48    16    19    1
    49    17    20    1
    50    20    21    1
