@<TRIPOS>MOLECULE
1d7c_HEM_A_1.pdb
 43 50 0 0 0
SMALL
GASTEIGER

@<TRIPOS>ATOM
      1  CHA       40.9510   33.6010   31.3470 C.2   401  HEM401      0.0000
      2  CHB       42.5590   30.5280   34.6740 C.2   401  HEM401      0.0000
      3  CHC       46.7990   32.8120   34.7680 C.2   401  HEM401      0.0000
      4  CHD       45.2920   35.6360   31.1460 C.2   401  HEM401      0.0000
      5  C1A       41.0490   32.5230   32.1910 C.2   401  HEM401      0.0000
      6  C2A       39.9360   31.6410   32.5170 C.2   401  HEM401      0.0000
      7  C3A       40.3670   30.7860   33.4540 C.2   401  HEM401      0.0000
      8  C4A       41.7640   31.1070   33.7340 C.2   401  HEM401      0.0000
      9  CMA       39.5440   29.6730   34.1130 C.3   401  HEM401      0.0000
     10  CAA       38.5180   31.7570   31.8890 C.3   401  HEM401      0.0000
     11  CBA       37.7310   32.8890   32.6190 C.3   401  HEM401      0.0000
     12  CGA       36.3340   33.1400   32.0170 C.2   401  HEM401      0.0000
     13  O1A       35.3960   33.1020   32.8690 O.co2 401  HEM401      0.0000
     14  O2A       36.2290   33.4660   30.8370 O.co2 401  HEM401      0.0000
     15  C1B       43.8640   30.8590   34.9770 C.ar  401  HEM401      0.0000
     16  C2B       44.6270   30.2330   36.0390 C.ar  401  HEM401      0.0000
     17  C3B       45.7840   30.9510   36.1710 C.ar  401  HEM401      0.0000
     18  C4B       45.7370   32.0070   35.1790 C.ar  401  HEM401      0.0000
     19  CMB       44.1160   28.9660   36.7610 C.3   401  HEM401      0.0000
     20  CAB       46.9940   30.8710   37.1370 C.3   401  HEM401      0.0000
     21  CBB       47.2390   29.5450   37.8580 C.3   401  HEM401      0.0000
     22  C1C       46.7870   33.6880   33.6820 C.2   401  HEM401      0.0000
     23  C2C       47.9350   34.5380   33.3040 C.2   401  HEM401      0.0000
     24  C3C       47.4970   35.3580   32.3160 C.2   401  HEM401      0.0000
     25  C4C       46.0960   35.0440   32.1050 C.2   401  HEM401      0.0000
     26  CMC       49.2370   34.5970   34.1530 C.3   401  HEM401      0.0000
     27  CAC       48.1970   36.4740   31.4800 C.3   401  HEM401      0.0000
     28  CBC       49.7170   36.5990   31.5850 C.3   401  HEM401      0.0000
     29  C1D       43.9720   35.3460   30.8700 C.ar  401  HEM401      0.0000
     30  C2D       43.1140   36.0380   29.9210 C.ar  401  HEM401      0.0000
     31  C3D       41.9130   35.4170   29.9280 C.ar  401  HEM401      0.0000
     32  C4D       42.0170   34.3470   30.8870 C.ar  401  HEM401      0.0000
     33  CMD       43.6030   37.1810   29.0200 C.3   401  HEM401      0.0000
     34  CAD       40.6320   35.7780   29.1410 C.3   401  HEM401      0.0000
     35  CBD       40.7070   35.3890   27.6260 C.3   401  HEM401      0.0000
     36  CGD       40.7000   33.8840   27.4040 C.2   401  HEM401      0.0000
     37  O1D       41.7490   33.3450   27.0330 O.co2 401  HEM401      0.0000
     38  O2D       39.7090   33.2510   27.8420 O.co2 401  HEM401      0.0000
     39  NA        42.1430   32.1860   32.9510 N.2   401  HEM401      0.0000
     40  NB        44.5490   31.9510   34.4780 N.ar  401  HEM401      0.0000
     41  NC        45.7080   33.9750   32.8920 N.2   401  HEM401      0.0000
     42  ND        43.2740   34.2850   31.4520 N.ar  401  HEM401      0.0000
     43 FE         43.9020   33.1070   32.9700 Fe    401  HEM401      0.0000
@<TRIPOS>BOND
     1    37    36   ar
     2    36    35    1
     3    36    38   ar
     4    35    34    1
     5    33    30    1
     6    34    31    1
     7    30    31   ar
     8    30    29   ar
     9    31    32   ar
    10    14    12   ar
    11    29     4    2
    12    29    42   ar
    13    32     1    2
    14    32    42   ar
    15     4    25    1
    16     1     5    1
    17    42    43    1
    18    27    28    1
    19    27    24    1
    20    10     6    1
    21    10    11    1
    22    12    11    1
    23    12    13   ar
    24    25    24    1
    25    25    41    2
    26     5     6    1
    27     5    39    2
    28    24    23    2
    29     6     7    2
    30    41    43    1
    31    41    22    1
    32    39    43    1
    33    39     8    1
    34    43    40    1
    35    23    22    1
    36    23    26    1
    37     7     8    1
    38     7     9    1
    39    22     3    2
    40     8     2    2
    41    40    15   ar
    42    40    18   ar
    43     2    15    1
    44     3    18    1
    45    15    16   ar
    46    18    17   ar
    47    16    17   ar
    48    16    19    1
    49    17    20    1
    50    20    21    1
