@<TRIPOS>MOLECULE
1d7d_HEM_A_1.pdb
 43 50 0 0 0
SMALL
GASTEIGER

@<TRIPOS>ATOM
      1  CHA       40.5430   33.0970   31.4950 C.2   401  HEM401      0.0000
      2  CHB       42.1350   30.0870   34.8760 C.2   401  HEM401      0.0000
      3  CHC       46.4010   32.3300   34.7440 C.2   401  HEM401      0.0000
      4  CHD       44.9050   35.0660   31.0990 C.2   401  HEM401      0.0000
      5  C1A       40.6860   32.0020   32.3090 C.2   401  HEM401      0.0000
      6  C2A       39.5580   31.1540   32.6660 C.2   401  HEM401      0.0000
      7  C3A       39.9530   30.3600   33.6660 C.2   401  HEM401      0.0000
      8  C4A       41.3410   30.6860   33.9520 C.2   401  HEM401      0.0000
      9  CMA       39.1300   29.2780   34.3880 C.3   401  HEM401      0.0000
     10  CAA       38.1490   31.2870   32.0150 C.3   401  HEM401      0.0000
     11  CBA       37.3330   32.3340   32.8170 C.3   401  HEM401      0.0000
     12  CGA       35.9310   32.6010   32.2300 C.2   401  HEM401      0.0000
     13  O1A       35.0280   32.5220   33.1080 O.co2 401  HEM401      0.0000
     14  O2A       35.7810   32.6970   31.0160 O.co2 401  HEM401      0.0000
     15  C1B       43.4540   30.4390   35.1120 C.ar  401  HEM401      0.0000
     16  C2B       44.2430   29.8520   36.1730 C.ar  401  HEM401      0.0000
     17  C3B       45.4180   30.5490   36.2230 C.ar  401  HEM401      0.0000
     18  C4B       45.3380   31.5540   35.1740 C.ar  401  HEM401      0.0000
     19  CMB       43.7710   28.6430   37.0050 C.3   401  HEM401      0.0000
     20  CAB       46.6000   30.5380   37.2200 C.3   401  HEM401      0.0000
     21  CBB       46.7870   29.3410   38.1510 C.3   401  HEM401      0.0000
     22  C1C       46.3770   33.2780   33.7320 C.2   401  HEM401      0.0000
     23  C2C       47.5080   34.1600   33.3860 C.2   401  HEM401      0.0000
     24  C3C       47.0760   34.9440   32.3590 C.2   401  HEM401      0.0000
     25  C4C       45.7170   34.5400   32.0730 C.2   401  HEM401      0.0000
     26  CMC       48.8920   34.0470   34.1010 C.3   401  HEM401      0.0000
     27  CAC       47.7640   36.0460   31.4850 C.3   401  HEM401      0.0000
     28  CBC       49.2410   36.2970   31.7260 C.3   401  HEM401      0.0000
     29  C1D       43.5630   34.8000   30.9250 C.ar  401  HEM401      0.0000
     30  C2D       42.7170   35.4590   29.9480 C.ar  401  HEM401      0.0000
     31  C3D       41.4970   34.8810   30.0330 C.ar  401  HEM401      0.0000
     32  C4D       41.5920   33.8740   31.0580 C.ar  401  HEM401      0.0000
     33  CMD       43.1400   36.6290   29.0320 C.3   401  HEM401      0.0000
     34  CAD       40.2390   35.3180   29.2390 C.3   401  HEM401      0.0000
     35  CBD       40.3190   34.8540   27.7450 C.3   401  HEM401      0.0000
     36  CGD       40.3130   33.3400   27.6150 C.2   401  HEM401      0.0000
     37  O1D       41.3040   32.7240   27.1810 O.co2 401  HEM401      0.0000
     38  O2D       39.2550   32.7950   28.0230 O.co2 401  HEM401      0.0000
     39  NA        41.7630   31.7050   33.1230 N.2   401  HEM401      0.0000
     40  NB        44.1320   31.4730   34.4980 N.ar  401  HEM401      0.0000
     41  NC        45.2870   33.5350   32.9320 N.2   401  HEM401      0.0000
     42  ND        42.8570   33.8090   31.6120 N.ar  401  HEM401      0.0000
     43 FE         43.5090   32.6170   33.0840 Fe    401  HEM401      0.0000
@<TRIPOS>BOND
     1    37    36   ar
     2    36    35    1
     3    36    38   ar
     4    35    34    1
     5    33    30    1
     6    34    31    1
     7    30    31   ar
     8    30    29   ar
     9    31    32   ar
    10    29     4    2
    11    29    42   ar
    12    14    12   ar
    13    32     1    2
    14    32    42   ar
    15     4    25    1
    16    27    28    1
    17    27    24    1
    18     1     5    1
    19    42    43    1
    20    10     6    1
    21    10    11    1
    22    25    24    1
    23    25    41    2
    24    12    11    1
    25    12    13   ar
    26     5     6    1
    27     5    39    2
    28    24    23    2
    29     6     7    2
    30    41    43    1
    31    41    22    1
    32    43    39    1
    33    43    40    1
    34    39     8    1
    35    23    22    1
    36    23    26    1
    37     7     8    1
    38     7     9    1
    39    22     3    2
    40     8     2    2
    41    40    15   ar
    42    40    18   ar
    43     3    18    1
    44     2    15    1
    45    15    16   ar
    46    18    17   ar
    47    16    17   ar
    48    16    19    1
    49    17    20    1
    50    20    21    1
