@<TRIPOS>MOLECULE
1d7o_TCL_A_1.pdb
 17 18 0 0 0
SMALL
GASTEIGER

@<TRIPOS>ATOM
      1  C1        -2.1130   15.2450   45.5970 C.ar  502  TCL502      0.0566
      2  C2        -2.7360   16.4460   45.8110 C.ar  502  TCL502      0.0611
      3  C6        -1.3850   15.1060   44.4750 C.ar  502  TCL502      0.2307
      4  C5        -1.3260   16.1820   43.5610 C.ar  502  TCL502      0.1840
      5  C4        -1.9690   17.3580   43.7950 C.ar  502  TCL502      0.0417
      6  C3        -2.6860   17.5270   44.9210 C.ar  502  TCL502      0.0147
      7  C11       -2.2080   14.5520   38.8950 C.ar  502  TCL502      0.0587
      8  C10       -0.9890   15.2390   38.8790 C.ar  502  TCL502      0.0259
      9  C9        -0.4860   15.7080   40.0650 C.ar  502  TCL502      0.0929
     10  C8        -1.1770   15.5160   41.2850 C.ar  502  TCL502      0.1559
     11  C12       -2.9060   14.3430   40.0930 C.ar  502  TCL502      0.0146
     12  C13       -2.3680   14.8420   41.2870 C.ar  502  TCL502      0.0392
     13  O7        -0.5810   16.0180   42.4440 O.3   502  TCL502     -0.4494
     14 CL14       -3.6390   16.6420   47.3030 Cl    502  TCL502     -0.0821
     15 CL15       -2.8700   13.9730   37.4160 Cl    502  TCL502     -0.0822
     16 CL16        1.0420   16.5560   40.0320 Cl    502  TCL502     -0.0790
     17  O17       -0.7490   13.9750   44.2270 O.3   502  TCL502     -0.2833
@<TRIPOS>BOND
     1    15     7    1
     2     8     7   ar
     3     8     9   ar
     4     7    11   ar
     5    16     9    1
     6     9    10   ar
     7    11    12   ar
     8    10    12   ar
     9    10    13    1
    10    13     4    1
    11     4     5   ar
    12     4     3   ar
    13     5     6   ar
    14    17     3    1
    15     3     1   ar
    16     6     2   ar
    17     1     2   ar
    18     2    14    1
