@<TRIPOS>MOLECULE
1d7o_NAD_A_1.pdb
 44 48 0 0 0
SMALL
GASTEIGER

@<TRIPOS>ATOM
      1  PA         3.5140   20.1030   39.5390 P.3   501  NAD501      0.2189
      2  O1A        2.6320   20.2130   38.3010 O.2   501  NAD501     -0.5170
      3  O2A        4.3920   21.2300   40.0040 O.3   501  NAD501     -0.4371
      4  O5B        4.3650   18.8120   39.4360 O.3   501  NAD501     -0.3112
      5  C5B        4.0380   17.7130   38.5010 C.3   501  NAD501      0.1813
      6  C4B        5.0360   17.7690   37.4930 C.3   501  NAD501      0.1821
      7  O4B        5.0260   16.5820   36.6530 O.3   501  NAD501     -0.3135
      8  C3B        4.9780   18.9540   36.4670 C.3   501  NAD501      0.2184
      9  O3B        6.2230   19.7610   36.6440 O.3   501  NAD501     -0.2174
     10  C2B        4.8790   18.3270   35.0970 C.3   501  NAD501      0.2570
     11  O2B        5.4360   18.9700   34.0460 O.3   501  NAD501     -0.2130
     12  C1B        5.5190   16.9980   35.4510 C.3   501  NAD501      0.3186
     13  N9A        5.1700   16.0210   34.5520 N.pl3 501  NAD501     -0.1439
     14  C8A        3.9330   15.5330   34.1890 C.3   501  NAD501      0.3377
     15  N7A        3.9680   14.5860   33.2820 N.2   501  NAD501     -0.2095
     16  C5A        5.2820   14.3870   33.0180 C.2   501  NAD501      0.2526
     17  C6A        5.9430   13.4770   32.0760 C.2   501  NAD501      0.4393
     18  N6A        5.3450   12.6050   31.3190 N.pl3 501  NAD501      0.2180
     19  N1A        7.2940   13.6230   32.0740 N.2   501  NAD501      0.0021
     20  C2A        8.0080   14.4650   32.8040 C.3   501  NAD501      0.5254
     21  N3A        7.4310   15.3640   33.6960 N.2   501  NAD501     -0.0055
     22  C4A        6.0360   15.2850   33.7800 C.2   501  NAD501      0.3518
     23  O3         2.6530   19.6690   40.7570 O.3   501  NAD501     -0.2703
     24  PN         2.9860   19.2510   42.3580 P.3   501  NAD501      0.2189
     25  O1N        1.7280   19.4070   43.0580 O.3   501  NAD501     -0.4371
     26  O2N        4.2350   19.9170   42.7970 O.2   501  NAD501     -0.5170
     27  O5D        3.3510   17.6510   42.2620 O.3   501  NAD501     -0.3112
     28  C5D        4.6990   17.1190   42.4920 C.3   501  NAD501      0.1813
     29  C4D        4.6290   15.7680   43.0280 C.3   501  NAD501      0.1799
     30  O4D        3.9920   15.9550   44.4190 O.3   501  NAD501     -0.3327
     31  C3D        3.5840   14.7420   42.3860 C.3   501  NAD501      0.2158
     32  O3D        4.1980   13.5300   42.5100 O.3   501  NAD501     -0.2175
     33  C2D        2.2970   14.8660   43.2200 C.3   501  NAD501      0.2309
     34  O2D        1.5170   13.7310   43.1950 O.3   501  NAD501     -0.2158
     35  C1D        2.9380   15.0760   44.5910 C.3   501  NAD501      0.2263
     36  N1N        2.0200   15.6870   45.6120 N.pl3 501  NAD501     -0.2787
     37  C2N        1.4970   16.9900   45.4190 C.3   501  NAD501      0.1244
     38  C3N        0.6800   17.3870   46.4360 C.2   501  NAD501      0.0544
     39  C7N        0.0880   18.8470   46.1860 C.2   501  NAD501      0.2818
     40  O7N       -0.6790   19.3040   47.0240 O.2   501  NAD501     -0.2670
     41  N7N        0.4700   19.5010   45.1060 N.am  501  NAD501     -0.0839
     42  C4N        0.3250   16.6480   47.5780 C.2   501  NAD501      0.0033
     43  C5N        0.9280   15.3670   47.6230 C.2   501  NAD501      0.0157
     44  C6N        1.7680   14.8920   46.6500 C.2   501  NAD501      0.0633
@<TRIPOS>BOND
     1    18    17    1
     2    19    17    2
     3    19    20    1
     4    17    16    1
     5    20    21    1
     6    16    15    2
     7    16    22    1
     8    15    14    1
     9    21    22    2
    10    22    13    1
    11    11    10    1
    12    14    13    1
    13    13    12    1
    14    10    12    1
    15    10     8    1
    16    12     7    1
    17     8     9    1
    18     8     6    1
    19     7     6    1
    20     6     5    1
    21     2     1    2
    22     5     4    1
    23     4     1    1
    24     1     3    1
    25     1    23    1
    26    23    24    1
    27    27    24    1
    28    27    28    1
    29    24    26    2
    30    24    25    1
    31    31    32    1
    32    31    29    1
    33    31    33    1
    34    28    29    1
    35    29    30    1
    36    34    33    1
    37    33    35    1
    38    30    35    1
    39    35    36    1
    40    41    39   am
    41    37    36    1
    42    37    38    1
    43    36    44    1
    44    39    38    1
    45    39    40    2
    46    38    42    2
    47    44    43    2
    48    42    43    1
