@<TRIPOS>MOLECULE
1d7r_5PA_A_1.pdb
 22 23 0 0 0
SMALL
GASTEIGER

@<TRIPOS>ATOM
      1  C4        17.0720   52.0600   16.4430 C.ar  500  5PA500      0.0587
      2  C4A       16.8030   51.4230   17.7350 C.2   500  5PA500      0.0966
      3  P         20.0440   48.5540   16.6430 P.3   500  5PA500      0.5329
      4  O1P       19.7030   48.8970   18.0690 O.3   500  5PA500     -0.1145
      5  O2P       19.5400   47.1280   16.2720 O.3   500  5PA500     -0.1145
      6  O3P       21.4070   48.6940   16.1260 O.2   500  5PA500     -0.2224
      7  O4P       19.2710   49.6650   15.7670 O.3   500  5PA500     -0.2653
      8  C5A       19.4470   51.0150   16.1630 C.3   500  5PA500      0.1819
      9  C5        18.2790   51.8710   15.6740 C.ar  500  5PA500      0.0316
     10  N1        17.5570   53.2930   13.9670 N.ar  500  5PA500     -0.2452
     11  C6        18.5050   52.4790   14.4770 C.ar  500  5PA500      0.0968
     12  C2        16.3790   53.5420   14.6080 C.ar  500  5PA500      0.0981
     13  C2A       15.4190   54.4930   13.9490 C.3   500  5PA500      0.0555
     14  C3        16.1290   52.8930   15.8640 C.ar  500  5PA500      0.2103
     15  O3        14.9320   53.1470   16.4490 O.3   500  5PA500     -0.2853
     16  N         16.9280   52.1250   18.8180 N.2   500  5PA500     -0.2618
     17  C8        16.4200   51.7700   20.1920 C.3   500  5PA500      0.1775
     18  C7        15.1350   52.3280   20.7210 C.2   500  5PA500      0.3842
     19  O7        14.0250   51.6640   20.5390 O.co2 500  5PA500     -0.2436
     20  O8        15.1440   53.3890   21.3480 O.co2 500  5PA500     -0.2436
     21  C9        16.8430   50.3280   20.5090 C.3   500  5PA500      0.0360
     22  C10       17.4140   51.4050   21.3120 C.3   500  5PA500      0.0360
@<TRIPOS>BOND
     1    13    12    1
     2    10    11   ar
     3    10    12   ar
     4    11     9   ar
     5    12    14   ar
     6     9     8    1
     7     9     1   ar
     8     7     8    1
     9     7     3    1
    10    14     1   ar
    11    14    15    1
    12     6     3    2
    13     5     3    1
    14     1     2    1
    15     3     4    1
    16     2    16    2
    17    16    17    1
    18    17    21    1
    19    17    18    1
    20    17    22    1
    21    21    22    1
    22    19    18   ar
    23    18    20   ar
