@<TRIPOS>MOLECULE
1d7s_DCS_A_1.pdb
 22 23 0 0 0
SMALL
GASTEIGER

@<TRIPOS>ATOM
      1  N1        17.4530   53.4820   13.8040 N.2   500  DCS500     -0.2499
      2  C2        16.3790   53.7240   14.6000 C.2   500  DCS500      0.0714
      3  C2A       15.2950   54.6640   14.1530 C.3   500  DCS500      0.0503
      4  C3        16.3660   53.1250   15.8720 C.3   500  DCS500      0.2110
      5  O3        15.3000   53.4610   16.6210 O.3   500  DCS500     -0.2121
      6  C4        17.4090   52.3030   16.2960 C.2   500  DCS500      0.0291
      7  C4A       17.4390   51.6430   17.5990 C.2   500  DCS500      0.0797
      8  C5        18.4520   52.0600   15.3680 C.2   500  DCS500      0.0270
      9  C6        18.4750   52.6540   14.1460 C.2   500  DCS500      0.0961
     10  C5A       19.6440   51.1690   15.8180 C.3   500  DCS500      0.1816
     11  O4P       19.3320   49.7710   15.8800 O.3   500  DCS500     -0.2653
     12  P         20.2330   48.7410   16.7350 P.3   500  DCS500      0.5329
     13  O1P       20.0770   49.1190   18.1480 O.3   500  DCS500     -0.1145
     14  O2P       19.7040   47.3200   16.4530 O.3   500  DCS500     -0.1145
     15  O3P       21.5880   48.8630   16.1980 O.2   500  DCS500     -0.2224
     16  N         16.4000   51.5830   18.3800 N.pl3 500  DCS500     -0.2180
     17  CA        16.4350   51.9720   19.6670 C.3   500  DCS500      0.2472
     18  C         15.2410   51.8860   20.3740 C.1   500  DCS500      0.1886
     19  O         14.0670   52.4010   20.3220 O.2   500  DCS500     -0.2220
     20  ND        15.4220   51.0830   21.3750 N.2   500  DCS500     -0.0079
     21  OG        16.7650   50.6040   21.3120 O.2   500  DCS500     -0.3661
     22  CB        17.4050   51.1750   20.2550 C.3   500  DCS500      0.2777
@<TRIPOS>BOND
     1     1     9    1
     2     1     2    2
     3     9     8    2
     4     3     2    1
     5     2     4    1
     6     8    10    1
     7     8     6    1
     8    10    11    1
     9     4     6    1
    10     4     5    1
    11    11    12    1
    12    15    12    2
    13     6     7    2
    14    14    12    1
    15    12    13    1
    16     7    16    1
    17    16    17    1
    18    17    22    1
    19    17    18    1
    20    22    21    1
    21    19    18    2
    22    18    20    2
    23    21    20    1
