@<TRIPOS>MOLECULE
1d7u_LCS_A_1.pdb
 22 23 0 0 0
SMALL
GASTEIGER

@<TRIPOS>ATOM
      1  N1        17.5480   53.5710   13.8570 N.2   500  LCS500     -0.2498
      2  C2        16.4760   53.8540   14.6280 C.2   500  LCS500      0.0714
      3  C2A       15.4580   54.8230   14.0900 C.3   500  LCS500      0.0503
      4  C3        16.3700   53.2300   15.9000 C.3   500  LCS500      0.2112
      5  O3        15.2540   53.5320   16.6390 O.3   500  LCS500     -0.2121
      6  C4        17.3820   52.3960   16.3210 C.2   500  LCS500      0.0321
      7  C4A       17.3140   51.6690   17.5470 C.2   500  LCS500      0.0978
      8  C5        18.4410   52.1180   15.4090 C.2   500  LCS500      0.0272
      9  C6        18.5320   52.7300   14.2030 C.2   500  LCS500      0.0961
     10  C5A       19.6230   51.2160   15.8640 C.3   500  LCS500      0.1816
     11  O4P       19.3670   49.8300   15.8430 O.3   500  LCS500     -0.2653
     12  P         20.3200   48.8390   16.7210 P.3   500  LCS500      0.5329
     13  O1P       20.2480   49.2890   18.1250 O.3   500  LCS500     -0.1145
     14  O2P       19.7670   47.3920   16.5690 O.3   500  LCS500     -0.1145
     15  O3P       21.6540   48.8810   16.0810 O.2   500  LCS500     -0.2224
     16  N         16.3610   51.9390   18.3370 N.2   500  LCS500     -0.2331
     17  CA        16.4290   51.6850   19.6320 C.2   500  LCS500      0.1910
     18  C         15.4880   52.0100   20.5830 C.1   500  LCS500      0.2063
     19  O         14.3250   52.5850   20.6210 O.2   500  LCS500     -0.2177
     20  ND        15.9420   51.5920   21.7260 N.2   500  LCS500     -0.0035
     21  OG        17.1910   50.9340   21.5140 O.2   500  LCS500     -0.3615
     22  CB        17.5160   51.0170   20.1890 C.3   500  LCS500      0.2966
@<TRIPOS>BOND
     1     1     9    1
     2     1     2    2
     3     3     2    1
     4     9     8    2
     5     2     4    1
     6     8    10    1
     7     8     6    1
     8    11    10    1
     9    11    12    1
    10     4     6    1
    11     4     5    1
    12    15    12    2
    13     6     7    2
    14    14    12    1
    15    12    13    1
    16     7    16    1
    17    16    17    2
    18    17    22    1
    19    17    18    1
    20    22    21    1
    21    18    19    2
    22    18    20    2
    23    21    20    1
