@<TRIPOS>MOLECULE
1d7v_NMA_A_1.pdb
 22 22 0 0 0
SMALL
GASTEIGER

@<TRIPOS>ATOM
      1  C4        17.1560   52.4520   16.6130 C.ar  500  NMA500      0.0353
      2  C4A       17.1330   52.0160   17.9810 C.3   500  NMA500      0.1185
      3  P         20.4020   48.7940   16.6810 P.3   500  NMA500      0.5329
      4  O1P       21.8520   48.8540   16.2730 O.2   500  NMA500     -0.2224
      5  O2P       20.2950   49.4150   18.1210 O.3   500  NMA500     -0.1145
      6  O3P       19.7020   47.4930   16.5750 O.3   500  NMA500     -0.1145
      7  O4P       19.5640   49.8320   15.8150 O.3   500  NMA500     -0.2653
      8  C5A       19.2900   51.0760   16.4620 C.3   500  NMA500      0.1816
      9  C5        18.2530   52.0090   15.8020 C.ar  500  NMA500      0.0275
     10  N1        17.5790   53.3420   14.0480 N.ar  500  NMA500     -0.2452
     11  C6        18.4670   52.4730   14.5450 C.ar  500  NMA500      0.0965
     12  C2        16.4860   53.8090   14.7280 C.ar  500  NMA500      0.0978
     13  C2A       15.5870   54.7920   14.0220 C.3   500  NMA500      0.0555
     14  C3        16.2850   53.3980   16.0700 C.ar  500  NMA500      0.2062
     15  O3        15.2220   53.9650   16.7210 O.3   500  NMA500     -0.2856
     16  N         16.0950   51.6210   18.6090 N.3   500  NMA500     -0.2051
     17  C8        16.0500   51.7750   20.0860 C.3   500  NMA500      0.1529
     18  C7        14.7490   52.3960   20.4430 C.2   500  NMA500      0.3784
     19  O7        13.6220   51.7360   20.2670 O.co2 500  NMA500     -0.2442
     20  O8        14.7510   53.5530   20.8300 O.co2 500  NMA500     -0.2442
     21  C9        16.2510   50.5230   20.9490 C.3   500  NMA500      0.0290
     22  C10       17.1070   52.8270   20.4810 C.3   500  NMA500      0.0290
@<TRIPOS>BOND
     1    13    12    1
     2    10    11   ar
     3    10    12   ar
     4    11     9   ar
     5    12    14   ar
     6     9     8    1
     7     9     1   ar
     8     7     8    1
     9     7     3    1
    10    14     1   ar
    11    14    15    1
    12     4     3    2
    13     6     3    1
    14     1     2    1
    15     3     5    1
    16     2    16    1
    17    16    17    1
    18    17    18    1
    19    17    22    1
    20    17    21    1
    21    19    18   ar
    22    18    20   ar
