@<TRIPOS>MOLECULE
1d7w_FUC_C_1.pdb
 10 10 0 0 0
SMALL
GASTEIGER

@<TRIPOS>ATOM
      1  C1        37.1000    5.3550    7.5010 C.3   1645  FUC1645     0.1776
      2  C2        37.0200    6.6890    6.7550 C.3   1645  FUC1645     0.2141
      3  C3        38.0420    6.6880    5.5910 C.3   1645  FUC1645     0.2172
      4  C4        37.8250    5.4580    4.7120 C.3   1645  FUC1645     0.2116
      5  C5        37.8900    4.1830    5.5520 C.3   1645  FUC1645     0.1483
      6  C6        37.6080    2.9230    4.7430 C.3   1645  FUC1645     0.0349
      7  O2        37.3170    7.7390    7.6790 O.3   1645  FUC1645    -0.2176
      8  O3        37.9180    7.8630    4.7900 O.3   1645  FUC1645    -0.2175
      9  O4        36.5440    5.5600    4.1290 O.3   1645  FUC1645    -0.2177
     10  O5        36.9000    4.2620    6.5930 O.3   1645  FUC1645    -0.3508
@<TRIPOS>BOND
     1     9     4    1
     2     4     5    1
     3     4     3    1
     4     6     5    1
     5     8     3    1
     6     5    10    1
     7     3     2    1
     8    10     1    1
     9     2     1    1
    10     2     7    1
