@<TRIPOS>MOLECULE
1d7w_MAN_C_1.pdb
 11 11 0 0 0
SMALL
GASTEIGER

@<TRIPOS>ATOM
      1  C1        32.8190   10.7960   14.0500 C.3   1644  MAN1644     0.1777
      2  C2        32.1750   11.4230   12.7970 C.3   1644  MAN1644     0.2141
      3  C3        30.7970   12.0220   13.1670 C.3   1644  MAN1644     0.2173
      4  C4        29.9310   10.9320   13.8130 C.3   1644  MAN1644     0.2142
      5  C5        30.6730   10.3880   15.0340 C.3   1644  MAN1644     0.1810
      6  C6        29.9270    9.3070   15.7560 C.3   1644  MAN1644     0.2141
      7  O2        32.0220   10.4200   11.7770 O.3   1644  MAN1644    -0.2176
      8  O3        30.1450   12.5750   12.0230 O.3   1644  MAN1644    -0.2175
      9  O4        28.6680   11.4540   14.1820 O.3   1644  MAN1644    -0.2176
     10  O5        31.9320    9.8280   14.5980 O.3   1644  MAN1644    -0.3481
     11  O6        29.7230    8.1940   14.8900 O.3   1644  MAN1644    -0.2176
@<TRIPOS>BOND
     1     7     2    1
     2     8     3    1
     3     2     3    1
     4     2     1    1
     5     3     4    1
     6     4     9    1
     7     4     5    1
     8     1    10    1
     9    10     5    1
    10    11     6    1
    11     5     6    1
