@<TRIPOS>MOLECULE
1d7w_HEM_A_1.pdb
 43 50 0 0 0
SMALL
GASTEIGER

@<TRIPOS>ATOM
      1  CHA       19.1280  -12.2970   -3.2110 C.2   605  HEM605      0.0000
      2  CHB       17.8870  -14.9240   -6.9970 C.2   605  HEM605      0.0000
      3  CHC       21.5010  -12.9760   -9.5280 C.2   605  HEM605      0.0000
      4  CHD       22.6780  -10.3300   -5.7380 C.2   605  HEM605      0.0000
      5  C1A       18.3680  -13.0540   -4.0920 C.ar  605  HEM605      0.0000
      6  C2A       17.2160  -13.8210   -3.6850 C.ar  605  HEM605      0.0000
      7  C3A       16.8670  -14.5750   -4.7590 C.ar  605  HEM605      0.0000
      8  C4A       17.8060  -14.2480   -5.8070 C.ar  605  HEM605      0.0000
      9  CMA       15.6720  -15.5450   -4.8620 C.3   605  HEM605      0.0000
     10  CAA       16.4800  -13.7110   -2.3530 C.3   605  HEM605      0.0000
     11  CBA       15.1330  -13.0150   -2.5090 C.3   605  HEM605      0.0000
     12  CGA       14.4800  -12.7420   -1.1830 C.2   605  HEM605      0.0000
     13  O1A       13.5950  -13.5260   -0.7860 O.co2 605  HEM605      0.0000
     14  O2A       14.8380  -11.7320   -0.5330 O.co2 605  HEM605      0.0000
     15  C1B       18.8470  -14.7200   -7.9780 C.2   605  HEM605      0.0000
     16  C2B       18.9070  -15.4550   -9.2500 C.2   605  HEM605      0.0000
     17  C3B       19.9460  -14.9120   -9.9530 C.2   605  HEM605      0.0000
     18  C4B       20.4850  -13.8410   -9.1180 C.2   605  HEM605      0.0000
     19  CMB       17.9360  -16.5710   -9.7150 C.3   605  HEM605      0.0000
     20  CAB       20.4440  -15.3010  -11.2090 C.3   605  HEM605      0.0000
     21  CBB       20.5090  -16.6720  -11.6880 C.3   605  HEM605      0.0000
     22  C1C       22.0490  -11.9730   -8.7610 C.ar  605  HEM605      0.0000
     23  C2C       23.1180  -11.0870   -9.1980 C.ar  605  HEM605      0.0000
     24  C3C       23.4440  -10.3300   -8.1040 C.ar  605  HEM605      0.0000
     25  C4C       22.5750  -10.7680   -7.0430 C.ar  605  HEM605      0.0000
     26  CMC       23.6970  -10.9920  -10.6160 C.3   605  HEM605      0.0000
     27  CAC       24.3790   -9.2920   -7.9910 C.3   605  HEM605      0.0000
     28  CBC       25.1120   -8.7180   -9.1080 C.3   605  HEM605      0.0000
     29  C1D       21.8690  -10.7260   -4.6930 C.2   605  HEM605      0.0000
     30  C2D       22.1170  -10.3720   -3.3200 C.2   605  HEM605      0.0000
     31  C3D       21.1310  -10.9580   -2.5870 C.2   605  HEM605      0.0000
     32  C4D       20.2770  -11.6330   -3.5450 C.2   605  HEM605      0.0000
     33  CMD       23.3290   -9.5750   -2.8020 C.3   605  HEM605      0.0000
     34  CAD       21.0660  -11.1160   -1.0620 C.3   605  HEM605      0.0000
     35  CBD       21.8250  -12.3810   -0.5750 C.3   605  HEM605      0.0000
     36  CGD       21.7490  -12.6650    0.9340 C.2   605  HEM605      0.0000
     37  O1D       22.4380  -11.9570    1.7400 O.co2 605  HEM605      0.0000
     38  O2D       21.0230  -13.6100    1.3310 O.co2 605  HEM605      0.0000
     39  NA        18.7020  -13.2780   -5.4080 N.ar  605  HEM605      0.0000
     40  NB        19.8440  -13.7500   -7.8960 N.2   605  HEM605      0.0000
     41  NC        21.6890  -11.7310   -7.4570 N.ar  605  HEM605      0.0000
     42  ND        20.7780  -11.5390   -4.8220 N.2   605  HEM605      0.0000
     43 FE         20.1480  -12.4660   -6.4590 Fe    605  HEM605      0.0000
@<TRIPOS>BOND
     1    21    20    1
     2    20    17    1
     3    26    23    1
     4    17    16    2
     5    17    18    1
     6    19    16    1
     7     3    18    2
     8     3    22    1
     9    16    15    1
    10    23    22   ar
    11    23    24   ar
    12    18    40    1
    13    28    27    1
    14    22    41   ar
    15    24    27    1
    16    24    25   ar
    17    15    40    2
    18    15     2    1
    19    40    43    1
    20    41    25   ar
    21    41    43    1
    22    25     4    1
    23     2     8    2
    24    43    39    1
    25    43    42    1
    26     8    39   ar
    27     8     7   ar
    28     4    29    2
    29    39     5   ar
    30     9     7    1
    31    42    29    1
    32    42    32    2
    33     7     6   ar
    34    29    30    1
    35     5     6   ar
    36     5     1    2
    37     6    10    1
    38    32     1    1
    39    32    31    1
    40    30    33    1
    41    30    31    2
    42    31    34    1
    43    11    10    1
    44    11    12    1
    45    12    13   ar
    46    12    14   ar
    47    34    35    1
    48    35    36    1
    49    36    38   ar
    50    36    37   ar
