@<TRIPOS>MOLECULE
1d7x_SPC_A_1.pdb
 23 24 0 0 0
SMALL
GASTEIGER

@<TRIPOS>ATOM
      1  C1        -7.3820   19.8220   29.5990 C.ar  401  SPC401      0.1224
      2  C2        -7.6680   18.5440   29.1250 C.ar  401  SPC401      0.0230
      3  C3        -6.7950   17.4910   29.3700 C.ar  401  SPC401      0.0383
      4  C4        -5.6190   17.7980   30.0800 C.ar  401  SPC401      0.1388
      5  C5        -5.3240   19.0830   30.4720 C.ar  401  SPC401      0.0383
      6  C6        -6.1880   20.1220   30.2240 C.ar  401  SPC401      0.0230
      7  S11       -8.5320   21.1450   29.4850 S.O2  401  SPC401      0.0639
      8  O12       -8.0990   22.1470   30.4020 O.2   401  SPC401     -0.1528
      9  O13       -9.8640   20.6850   29.5540 O.2   401  SPC401     -0.1528
     10  O35       -4.6360   16.9020   30.4630 O.3   401  SPC401     -0.4714
     11  C8        -4.8960   15.5630   30.1320 C.3   401  SPC401      0.2525
     12  N14       -8.4230   21.9630   27.9720 N.3   401  SPC401     -0.1447
     13  C15       -7.4260   22.9860   27.6760 C.3   401  SPC401      0.1305
     14  C16       -7.8810   23.5690   26.3330 C.3   401  SPC401      0.0703
     15  C17       -8.4580   22.3190   25.6960 C.2   401  SPC401      0.0944
     16  C29       -5.9900   22.3400   27.4770 C.2   401  SPC401      0.1033
     17  O31       -5.6970   21.3920   26.7350 O.2   401  SPC401     -0.5381
     18  N32       -5.0010   22.9310   28.1830 N.am  401  SPC401     -0.2015
     19  O33       -3.7020   22.3360   28.0490 O.3   401  SPC401     -0.4026
     20  C18       -8.6680   21.2070   26.7480 C.3   401  SPC401      0.1405
     21  N23       -8.8900   22.1590   24.4180 N.2   401  SPC401     -0.0902
     22  O24       -8.7660   22.9420   23.2870 O.2   401  SPC401     -0.3736
     23  C25       -8.8020   22.1760   22.1250 C.3   401  SPC401      0.2885
@<TRIPOS>BOND
     1    23    22    1
     2    22    21    1
     3    21    15    2
     4    15    14    1
     5    15    20    1
     6    14    13    1
     7    17    16    2
     8    20    12    1
     9    16    13    1
    10    16    18   am
    11    13    12    1
    12    12     7    1
    13    19    18    1
    14     2     3   ar
    15     2     1   ar
    16     3     4   ar
    17     7     9    2
    18     7     1    1
    19     7     8    2
    20     1     6   ar
    21     4    10    1
    22     4     5   ar
    23    11    10    1
    24     6     5   ar
