@<TRIPOS>MOLECULE
1d8a_TCL_A_1.pdb
 17 18 0 0 0
SMALL
GASTEIGER

@<TRIPOS>ATOM
      1  C1         2.7770   24.4730  297.1400 C.ar  502  TCL502      0.0566
      2  C2         3.0320   23.8970  295.9310 C.ar  502  TCL502      0.0611
      3  C6         2.7770   23.6710  298.2700 C.ar  502  TCL502      0.2307
      4  C5         3.0320   22.2940  298.1260 C.ar  502  TCL502      0.1840
      5  C4         3.2690   21.7550  296.9290 C.ar  502  TCL502      0.0417
      6  C3         3.2740   22.5500  295.7690 C.ar  502  TCL502      0.0147
      7  C11       -0.4660   19.8750  300.9850 C.ar  502  TCL502      0.0587
      8  C10        0.7850   19.6220  301.5600 C.ar  502  TCL502      0.0259
      9  C9         1.9100   20.1820  300.9690 C.ar  502  TCL502      0.0929
     10  C8         1.8170   20.9700  299.8430 C.ar  502  TCL502      0.1559
     11  C12       -0.5760   20.6710  299.8450 C.ar  502  TCL502      0.0146
     12  C13        0.5890   21.2160  299.2830 C.ar  502  TCL502      0.0392
     13  O7         3.0200   21.4850  299.3260 O.3   502  TCL502     -0.4494
     14 CL14        3.0490   24.8920  294.5210 Cl    502  TCL502     -0.0821
     15 CL15       -1.8890   19.1920  301.6930 Cl    502  TCL502     -0.0822
     16 CL16        3.4680   19.8690  301.6800 Cl    502  TCL502     -0.0790
     17  O17        2.5390   24.1980  299.4870 O.3   502  TCL502     -0.2833
@<TRIPOS>BOND
     1    14     2    1
     2     6     2   ar
     3     6     5   ar
     4     2     1   ar
     5     5     4   ar
     6     1     3   ar
     7     4     3   ar
     8     4    13    1
     9     3    17    1
    10    12    10   ar
    11    12    11   ar
    12    13    10    1
    13    10     9   ar
    14    11     7   ar
    15     9     8   ar
    16     9    16    1
    17     7     8   ar
    18     7    15    1
