@<TRIPOS>MOLECULE
1d8a_NAD_A_1.pdb
 44 48 0 0 0
SMALL
GASTEIGER

@<TRIPOS>ATOM
      1  PA         6.6580   16.5080  300.5730 P.3   501  NAD501      0.2189
      2  O1A        5.4040   15.6520  300.6030 O.3   501  NAD501     -0.4371
      3  O2A        7.9130   16.0220  299.8860 O.2   501  NAD501     -0.5170
      4  O5B        7.0250   16.9480  302.0500 O.3   501  NAD501     -0.3112
      5  C5B        5.9900   17.2190  303.0860 C.3   501  NAD501      0.1813
      6  C4B        6.3900   16.5520  304.3250 C.3   501  NAD501      0.1821
      7  O4B        5.4830   16.8940  305.4470 O.3   501  NAD501     -0.3135
      8  C3B        6.4230   14.9760  304.3660 C.3   501  NAD501      0.2184
      9  O3B        7.8460   14.5440  304.4360 O.3   501  NAD501     -0.2174
     10  C2B        5.6380   14.5370  305.5890 C.3   501  NAD501      0.2570
     11  O2B        6.0850   13.4800  306.2800 O.3   501  NAD501     -0.2130
     12  C1B        5.6390   15.8770  306.3650 C.3   501  NAD501      0.3186
     13  N9A        4.5170   15.9430  307.2540 N.pl3 501  NAD501     -0.1439
     14  C8A        3.1870   16.1550  306.9980 C.3   501  NAD501      0.3377
     15  N7A        2.3960   16.1300  308.0460 N.2   501  NAD501     -0.2095
     16  C5A        3.1820   15.8820  309.0950 C.2   501  NAD501      0.2526
     17  C6A        2.8500   15.7440  310.5230 C.2   501  NAD501      0.4393
     18  N6A        1.6560   15.8450  311.0530 N.pl3 501  NAD501      0.2180
     19  N1A        3.9610   15.4880  311.2840 N.2   501  NAD501      0.0021
     20  C2A        5.2130   15.3670  310.8530 C.3   501  NAD501      0.5254
     21  N3A        5.5700   15.4900  309.5140 N.2   501  NAD501     -0.0055
     22  C4A        4.5170   15.7510  308.6450 C.2   501  NAD501      0.3518
     23  O3         6.3300   17.9150  299.9850 O.3   501  NAD501     -0.2703
     24  PN         7.2510   19.2710  299.7150 P.3   501  NAD501      0.2189
     25  O1N        6.7740   19.8720  298.4850 O.2   501  NAD501     -0.5170
     26  O2N        8.6770   18.9370  299.9250 O.3   501  NAD501     -0.4371
     27  O5D        6.8530   20.1930  300.9630 O.3   501  NAD501     -0.3112
     28  C5D        7.8540   20.9890  301.6720 C.3   501  NAD501      0.1813
     29  C4D        7.2880   22.2260  302.2160 C.3   501  NAD501      0.1799
     30  O4D        7.4590   23.2810  301.1150 O.3   501  NAD501     -0.3327
     31  C3D        5.7260   22.3320  302.4720 C.3   501  NAD501      0.2158
     32  O3D        5.6080   23.2420  303.5030 O.3   501  NAD501     -0.2175
     33  C2D        5.1200   22.8220  301.1220 C.3   501  NAD501      0.2309
     34  O2D        3.8960   23.4180  301.2750 O.3   501  NAD501     -0.2158
     35  C1D        6.2090   23.8330  300.7550 C.3   501  NAD501      0.2263
     36  N1N        6.2550   24.2710  299.2760 N.pl3 501  NAD501     -0.2787
     37  C2N        6.1780   23.3290  298.2640 C.3   501  NAD501      0.1244
     38  C3N        6.2280   23.8800  297.0170 C.2   501  NAD501      0.0544
     39  C7N        6.1530   22.7400  295.9360 C.2   501  NAD501      0.2818
     40  O7N        6.1650   23.0710  294.7630 O.2   501  NAD501     -0.2670
     41  N7N        6.0400   21.4730  296.3850 N.am  501  NAD501     -0.0839
     42  C4N        6.3330   25.2340  296.6730 C.2   501  NAD501      0.0033
     43  C5N        6.3950   26.0860  297.8080 C.2   501  NAD501      0.0157
     44  C6N        6.3550   25.6060  299.0900 C.2   501  NAD501      0.0633
@<TRIPOS>BOND
     1    40    39    2
     2    39    41   am
     3    39    38    1
     4    42    38    2
     5    42    43    1
     6    38    37    1
     7    43    44    2
     8    37    36    1
     9    25    24    2
    10    44    36    1
    11    36    35    1
    12    24    26    1
    13    24    23    1
    14    24    27    1
    15     3     1    2
    16    23     1    1
    17     1     2    1
    18     1     4    1
    19    35    30    1
    20    35    33    1
    21    27    28    1
    22    30    29    1
    23    33    34    1
    24    33    31    1
    25    28    29    1
    26     4     5    1
    27    29    31    1
    28    31    32    1
    29     5     6    1
    30     6     8    1
    31     6     7    1
    32     8     9    1
    33     8    10    1
    34     7    12    1
    35    10    11    1
    36    10    12    1
    37    12    13    1
    38    14    13    1
    39    14    15    1
    40    13    22    1
    41    15    16    2
    42    22    16    1
    43    22    21    2
    44    16    17    1
    45    21    20    1
    46    17    18    1
    47    17    19    2
    48    20    19    1
