@<TRIPOS>MOLECULE
1d8d_FII_B_1.pdb
 24 23 0 0 0
SMALL
GASTEIGER

@<TRIPOS>ATOM
      1  C1        97.3820   26.3310   34.4220 C.3   1000  FII1000     0.0260
      2  C2        97.5170   27.5010   33.4680 C.2   1000  FII1000    -0.0478
      3  C6        96.2150   28.2050   33.2050 C.3   1000  FII1000     0.0260
      4  C10       98.6700   27.9120   32.8860 C.2   1000  FII1000    -0.0342
      5  C11      100.0350   27.2970   33.0660 C.3   1000  FII1000     0.0297
      6  C12      100.7110   27.0880   31.7110 C.3   1000  FII1000     0.0263
      7  C15      102.1300   26.5490   31.7890 C.2   1000  FII1000    -0.0478
      8  C18      102.6740   26.1240   30.4340 C.3   1000  FII1000     0.0260
      9  C22      102.8610   26.4480   32.9380 C.2   1000  FII1000    -0.0342
     10  C23      104.2800   25.9030   32.9800 C.3   1000  FII1000     0.0297
     11  C24      104.7860   25.6570   34.3900 C.3   1000  FII1000     0.0264
     12  C27      106.2380   25.2240   34.4240 C.2   1000  FII1000    -0.0453
     13  C30      107.2300   26.3030   34.1020 C.3   1000  FII1000     0.0261
     14  C34      106.6160   23.9660   34.7220 C.2   1000  FII1000    -0.0002
     15  C35      108.0610   23.5100   34.7630 C.3   1000  FII1000     0.1990
     16  O36      108.2270   22.3390   33.9810 O.3   1000  FII1000    -0.2391
     17  N42      108.0940   22.6510   32.6230 N.am  1000  FII1000    -0.0618
     18  C43      109.1780   22.8440   31.8490 C.2   1000  FII1000     0.2747
     19  O44      110.3450   22.8030   32.2290 O.2   1000  FII1000    -0.2705
     20  C45      108.8150   23.0630   30.3870 C.3   1000  FII1000     0.1477
     21  P46      109.9910   24.1600   29.5440 P.3   1000  FII1000     0.1265
     22  O49      109.4250   24.4810   28.2390 O.2   1000  FII1000    -0.4596
     23  O50      111.2760   23.5110   29.3570 O.3   1000  FII1000    -0.3568
     24  O51      110.1800   25.3630   30.3470 O.3   1000  FII1000    -0.3568
@<TRIPOS>BOND
     1    22    21    2
     2    23    21    1
     3    21    24    1
     4    21    20    1
     5    20    18    1
     6     8     7    1
     7     6     7    1
     8     6     5    1
     9     7     9    2
    10    18    19    2
    11    18    17   am
    12    17    16    1
    13     4     5    1
    14     4     2    2
    15     9    10    1
    16    10    11    1
    17     3     2    1
    18     2     1    1
    19    16    15    1
    20    13    12    1
    21    11    12    1
    22    12    14    2
    23    14    15    1
