@<TRIPOS>MOLECULE
1d8e_III_P_1.pdb
 46 45 0 0 0
SMALL
GASTEIGER

@<TRIPOS>ATOM
      1  N        101.9500    9.4430   30.1090 N.3     6  THR6       -0.1203
      2  CA       101.9350   10.9180   29.8870 C.3     6  THR6        0.1994
      3  C        101.3550   11.6070   31.1120 C.2     6  THR6        0.2618
      4  O        100.4600   11.0650   31.7720 O.2     6  THR6       -0.2717
      5  CB       101.0760   11.3100   28.6590 C.3     6  THR6        0.1784
      6  OG1      100.3190   10.1720   28.2170 O.3     6  THR6       -0.2211
      7  CG2      101.9620   11.8380   27.5250 C.3     6  THR6        0.0376
      8  N        101.8260   12.8240   31.3660 N.am    7  LYS7       -0.1965
      9  CA       101.3990   13.6090   32.5190 C.3     7  LYS7        0.1728
     10  C        100.8570   14.9670   32.0930 C.2     7  LYS7        0.2616
     11  O        100.8430   15.2810   30.9010 O.2     7  LYS7       -0.2715
     12  CB       102.6010   13.8120   33.4460 C.3     7  LYS7        0.0311
     13  CG       103.9050   14.1690   32.7100 C.3     7  LYS7        0.0038
     14  CD       105.0590   14.5130   33.6690 C.3     7  LYS7        0.0206
     15  CE       104.7920   15.8240   34.4400 C.3     7  LYS7        0.1093
     16  NZ       105.9020   16.2430   35.3540 N.3     7  LYS7       -0.1314
     17  N        100.3580   15.7440   33.0540 N.am    8  CYS8       -0.1954
     18  CA        99.8610   17.0900   32.7620 C.3     8  CYS8        0.1843
     19  C        100.8070   18.1140   33.3840 C.2     8  CYS8        0.2625
     20  O        100.6850   18.4420   34.5600 O.2     8  CYS8       -0.2714
     21  CB        98.4650   17.3300   33.3180 C.3     8  CYS8        0.0997
     22  SG        98.1140   19.1060   33.2740 S.3     8  CYS8       -0.0797
     23  N        101.6880   18.6840   32.5750 N.am    9  VAL9       -0.1963
     24  CA       102.6800   19.6300   33.0750 C.3     9  VAL9        0.1727
     25  C        102.2120   20.9790   33.6250 C.2     9  VAL9        0.2616
     26  O        103.0460   21.8140   33.9910 O.2     9  VAL9       -0.2715
     27  CB       103.7450   19.9170   32.0090 C.3     9  VAL9        0.0290
     28  CG1      104.3870   18.6110   31.5310 C.3     9  VAL9        0.0023
     29  CG2      103.1250   20.6970   30.8620 C.3     9  VAL9        0.0023
     30  N        100.9110   21.2180   33.7010 N.am   10  ILE10      -0.1963
     31  CA       100.5070   22.5180   34.2020 C.3    10  ILE10       0.1727
     32  C         99.8360   22.5590   35.5680 C.2    10  ILE10       0.2617
     33  O         99.3900   23.6140   36.0100 O.2    10  ILE10      -0.2715
     34  CB        99.7030   23.3000   33.1540 C.3    10  ILE10       0.0290
     35  CG1       98.4000   22.5720   32.8190 C.3    10  ILE10       0.0022
     36  CG2      100.5680   23.5080   31.9140 C.3    10  ILE10       0.0023
     37  CD1       97.4300   23.3970   32.0000 C.3    10  ILE10       0.0001
     38  N         99.8150   21.4270   36.2620 N.am   11  MET11      -0.1941
     39  CA        99.2220   21.3640   37.5880 C.3    11  MET11       0.1987
     40  C         99.6110   20.0930   38.3130 C.2    11  MET11       0.3842
     41  O        100.6190   19.4750   37.9210 O.co2  11  MET11      -0.2437
     42  CB        97.7050   21.4650   37.5160 C.3    11  MET11       0.0449
     43  CG        97.0300   20.3480   36.7630 C.3    11  MET11       0.0599
     44  SD        95.4610   19.9390   37.5480 S.3    11  MET11      -0.1393
     45  CE        96.0420   18.4160   38.5020 C.3    11  MET11       0.0692
     46  OXT       98.9050   19.7320   39.2740 O.co2  11  MET11      -0.2437
@<TRIPOS>BOND
     1     7     5    1
     2     6     5    1
     3     5     2    1
     4     2     1    1
     5     2     3    1
     6    29    27    1
     7    11    10    2
     8     3     8   am
     9     3     4    2
    10     8     9    1
    11    28    27    1
    12    36    34    1
    13    37    35    1
    14    27    24    1
    15    10     9    1
    16    10    17   am
    17     9    12    1
    18    23    24    1
    19    23    19   am
    20    13    12    1
    21    13    14    1
    22    18    17    1
    23    18    21    1
    24    18    19    1
    25    35    34    1
    26    24    25    1
    27    34    31    1
    28    22    21    1
    29    19    20    2
    30    25    30   am
    31    25    26    2
    32    14    15    1
    33    30    31    1
    34    31    32    1
    35    15    16    1
    36    32    33    2
    37    32    38   am
    38    38    39    1
    39    43    42    1
    40    43    44    1
    41    42    39    1
    42    44    45    1
    43    39    40    1
    44    41    40   ar
    45    40    46   ar
