@<TRIPOS>MOLECULE
1d8e_FII_B_1.pdb
 24 23 0 0 0
SMALL
GASTEIGER

@<TRIPOS>ATOM
      1  C1        97.3330   26.4930   34.4390 C.3   3003  FII3003     0.0260
      2  C2        97.4410   27.6550   33.4710 C.2   3003  FII3003    -0.0478
      3  C6        96.1210   28.3390   33.2210 C.3   3003  FII3003     0.0260
      4  C10       98.5890   28.0670   32.8730 C.2   3003  FII3003    -0.0342
      5  C11       99.9630   27.4470   33.0590 C.3   3003  FII3003     0.0297
      6  C12      100.6630   27.3240   31.7290 C.3   3003  FII3003     0.0263
      7  C15      102.0730   26.8480   31.8310 C.2   3003  FII3003    -0.0478
      8  C18      102.6770   26.6030   30.4600 C.3   3003  FII3003     0.0260
      9  C22      102.7710   26.6450   33.0120 C.2   3003  FII3003    -0.0342
     10  C23      104.2250   26.1510   33.0470 C.3   3003  FII3003     0.0297
     11  C24      104.6730   25.6780   34.4170 C.3   3003  FII3003     0.0264
     12  C27      106.1270   25.2750   34.4240 C.2   3003  FII3003    -0.0453
     13  C30      107.0850   26.3810   34.0350 C.3   3003  FII3003     0.0261
     14  C34      106.5450   24.0360   34.7520 C.2   3003  FII3003    -0.0002
     15  C35      108.0070   23.6060   34.7680 C.3   3003  FII3003     0.1990
     16  O36      108.2250   22.6040   33.8100 O.3   3003  FII3003    -0.2391
     17  N42      108.0430   23.1400   32.5270 N.am  3003  FII3003    -0.0618
     18  C43      109.0640   23.1250   31.6690 C.2   3003  FII3003     0.2747
     19  O44      110.2430   22.9540   31.9760 O.2   3003  FII3003    -0.2705
     20  C45      108.6240   23.2610   30.2230 C.3   3003  FII3003     0.1477
     21  P46      109.8160   24.2570   29.3110 P.3   3003  FII3003     0.1265
     22  O49      109.2570   24.5810   28.0120 O.2   3003  FII3003    -0.4596
     23  O50      111.0660   23.5080   29.1330 O.3   3003  FII3003    -0.3568
     24  O51      110.0790   25.4800   30.0680 O.3   3003  FII3003    -0.3568
@<TRIPOS>BOND
     1    22    21    2
     2    23    21    1
     3    21    24    1
     4    21    20    1
     5    20    18    1
     6     8     7    1
     7    18    19    2
     8    18    17   am
     9     6     7    1
    10     6     5    1
    11     7     9    2
    12    17    16    1
    13     4     5    1
    14     4     2    2
    15     9    10    1
    16    10    11    1
    17     3     2    1
    18     2     1    1
    19    16    15    1
    20    13    12    1
    21    11    12    1
    22    12    14    2
    23    14    15    1
