@<TRIPOS>MOLECULE
1d8f_SPI_B_1.pdb
 31 33 0 0 0
SMALL
GASTEIGER

@<TRIPOS>ATOM
      1  S1         3.9180   48.6810   53.5750 S.O2  901  SPI901      0.0637
      2  O1         3.3760   47.7850   52.5980 O.2   901  SPI901     -0.1528
      3  O2         5.3480   48.7510   53.5270 O.2   901  SPI901     -0.1528
      4  C1         3.2840   48.4860   55.2440 C.ar  901  SPI901      0.1224
      5  C2         3.9490   49.1640   56.3430 C.ar  901  SPI901      0.0230
      6  C3         3.5790   48.8280   57.7130 C.ar  901  SPI901      0.0383
      7  C4         2.5560   47.8260   57.9670 C.ar  901  SPI901      0.1388
      8  C5         1.8940   47.1680   56.8530 C.ar  901  SPI901      0.0383
      9  C6         2.2480   47.4860   55.4650 C.ar  901  SPI901      0.0230
     10  O3         2.1330   47.4780   59.1900 O.3   901  SPI901     -0.4714
     11  C7         2.8350   47.5240   60.3240 C.3   901  SPI901      0.2525
     12  N1         3.6410   50.2240   52.9200 N.3   901  SPI901     -0.1474
     13  C8         2.3150   50.3110   52.2910 C.3   901  SPI901      0.1442
     14  C9         2.2980   51.5650   51.4090 C.3   901  SPI901      0.1209
     15  N2         2.8490   52.7490   52.0950 N.am  901  SPI901     -0.2427
     16  C10        4.2130   52.6080   52.6330 C.3   901  SPI901      0.1159
     17  C11        4.3220   51.3870   53.5200 C.3   901  SPI901      0.1178
     18  C12        2.2590   53.9330   51.9750 C.2   901  SPI901      0.4053
     19  O4         2.6990   54.9230   52.6190 O.2   901  SPI901     -0.2262
     20  O5         1.2710   54.0340   51.2070 O.3   901  SPI901     -0.4295
     21  C13        0.8050   55.2320   50.6470 C.3   901  SPI901      0.2367
     22  C14       -0.3870   55.0030   49.7710 C.ar  901  SPI901      0.0213
     23  C15       -0.9910   53.6900   49.8390 C.ar  901  SPI901     -0.0007
     24  C16       -2.1350   53.4050   48.9910 C.ar  901  SPI901     -0.0002
     25  C17       -2.5980   54.4800   48.1150 C.ar  901  SPI901     -0.0000
     26  C18       -1.9540   55.7950   48.0810 C.ar  901  SPI901     -0.0002
     27  C19       -0.8020   56.0960   48.9230 C.ar  901  SPI901     -0.0007
     28  C20        1.1400   50.3020   53.2820 C.2   901  SPI901      0.1046
     29  NA         0.2800   49.2890   53.2140 N.am  901  SPI901     -0.2015
     30  OA        -0.8590   49.4820   54.0310 O.3   901  SPI901     -0.4026
     31  OB         0.9540   51.1930   54.1290 O.2   901  SPI901     -0.5381
@<TRIPOS>BOND
     1    26    25   ar
     2    26    27   ar
     3    25    24   ar
     4    27    22   ar
     5    24    23   ar
     6    22    23   ar
     7    22    21    1
     8    21    20    1
     9    20    18    1
    10    14    15    1
    11    14    13    1
    12    18    15   am
    13    18    19    2
    14    15    16    1
    15    13    12    1
    16    13    28    1
    17     2     1    2
    18    16    17    1
    19    12    17    1
    20    12     1    1
    21    29    28   am
    22    29    30    1
    23    28    31    2
    24     3     1    2
    25     1     4    1
    26     4     9   ar
    27     4     5   ar
    28     9     8   ar
    29     5     6   ar
    30     8     7   ar
    31     6     7   ar
    32     7    10    1
    33    10    11    1
