@<TRIPOS>MOLECULE
1d8m_BBH_B_1.pdb
 29 31 0 0 0
SMALL
GASTEIGER

@<TRIPOS>ATOM
      1  C1         3.2160   48.2730   54.6770 C.ar  901  BBH901      0.1225
      2  C2         3.8020   48.9350   55.8260 C.ar  901  BBH901      0.0230
      3  C3         3.2410   48.5530   57.1030 C.ar  901  BBH901      0.0383
      4  C4         2.1790   47.5530   57.1260 C.ar  901  BBH901      0.1388
      5  C5         1.6140   46.9100   55.9430 C.ar  901  BBH901      0.0383
      6  C6         2.1520   47.2870   54.6540 C.ar  901  BBH901      0.0230
      7  O7         1.7030   47.1160   58.2940 O.3   901  BBH901     -0.4714
      8  C8         2.2230   47.2360   59.5190 C.3   901  BBH901      0.2525
      9  S9         3.8440   48.7300   53.0640 S.O2  901  BBH901      0.0650
     10  O10        3.2570   47.5680   51.9330 O.2   901  BBH901     -0.1527
     11  O11        5.5730   48.7610   53.0480 O.2   901  BBH901     -0.1527
     12  N12        3.1650   50.3130   52.7230 N.3   901  BBH901     -0.1303
     13  C13        1.9910   50.3550   51.8270 C.3   901  BBH901      0.1353
     14  C14        1.9270   51.7440   51.1950 C.3   901  BBH901      0.1095
     15  C15        3.2540   52.1600   50.6080 C.2   901  BBH901      0.2287
     16  N16        4.3370   51.9690   51.3490 N.am  901  BBH901     -0.2599
     17  C17        4.1730   51.3860   52.6990 C.3   901  BBH901      0.1923
     18  O18        3.3470   52.6750   49.4940 O.2   901  BBH901     -0.2748
     19  C          0.7200   50.0800   52.6110 C.2   901  BBH901      0.1035
     20  NA         0.1090   48.9130   52.4380 N.am  901  BBH901     -0.2015
     21  OA        -1.1370   48.6980   53.1590 O.3   901  BBH901     -0.4026
     22  OB         0.2600   50.8890   53.4320 O.2   901  BBH901     -0.5381
     23  C7         5.6340   52.3860   50.7750 C.3   901  BBH901      0.1215
     24  C9         8.0180   53.9100   53.4110 C.ar  901  BBH901     -0.0003
     25  C10        6.9070   53.7550   52.4850 C.ar  901  BBH901     -0.0026
     26  C11        6.7400   52.4860   51.7880 C.ar  901  BBH901     -0.0023
     27  C12        7.6300   51.3500   51.9710 C.ar  901  BBH901     -0.0026
     28  C16        8.7400   51.5070   52.9010 C.ar  901  BBH901     -0.0003
     29  C18        8.9140   52.7740   53.5970 C.ar  901  BBH901     -0.0000
@<TRIPOS>BOND
     1    18    15    2
     2    15    14    1
     3    15    16   am
     4    23    16    1
     5    23    26    1
     6    14    13    1
     7    16    17    1
     8    26    27   ar
     9    26    25   ar
    10    13    19    1
    11    13    12    1
    12    10     9    2
    13    27    28   ar
    14    20    19   am
    15    20    21    1
    16    25    24   ar
    17    19    22    2
    18    17    12    1
    19    12     9    1
    20    28    29   ar
    21    11     9    2
    22     9     1    1
    23    24    29   ar
    24     6     1   ar
    25     6     5   ar
    26     1     2   ar
    27     2     3   ar
    28     5     4   ar
    29     3     4   ar
    30     4     7    1
    31     7     8    1
