@<TRIPOS>MOLECULE
1d8u_HEM_A_1.pdb
 43 50 0 0 0
SMALL
GASTEIGER

@<TRIPOS>ATOM
      1 FE         23.2820   65.0090    3.6120 Fe    166  HEM166      0.0000
      2  CHA       25.9840   65.5300    5.5850 C.2   166  HEM166      0.0000
      3  CHB       23.8060   68.0310    2.1310 C.2   166  HEM166      0.0000
      4  CHC       20.9300   64.2340    1.2780 C.2   166  HEM166      0.0000
      5  CHD       22.6580   62.0940    5.2190 C.2   166  HEM166      0.0000
      6  NA        24.6230   66.4560    3.8180 N.ar  166  HEM166      0.0000
      7  C1A       25.6740   66.5180    4.6920 C.ar  166  HEM166      0.0000
      8  C2A       26.3620   67.7940    4.6150 C.ar  166  HEM166      0.0000
      9  C3A       25.7470   68.4930    3.6470 C.ar  166  HEM166      0.0000
     10  C4A       24.6640   67.6710    3.1650 C.ar  166  HEM166      0.0000
     11  CMA       26.0910   69.9050    3.1990 C.3   166  HEM166      0.0000
     12  CAA       27.3830   68.3450    5.6100 C.3   166  HEM166      0.0000
     13  CBA       28.7270   67.6290    5.5740 C.3   166  HEM166      0.0000
     14  CGA       29.5710   68.0080    4.3780 C.2   166  HEM166      0.0000
     15  O1A       30.0430   69.1650    4.3140 O.co2 166  HEM166      0.0000
     16  O2A       29.7620   67.1480    3.5010 O.co2 166  HEM166      0.0000
     17  NB        22.5430   65.9250    2.0360 N.2   166  HEM166      0.0000
     18  C1B       22.8310   67.2040    1.5910 C.2   166  HEM166      0.0000
     19  C2B       22.0640   67.5380    0.4320 C.2   166  HEM166      0.0000
     20  C3B       21.2730   66.4640    0.1580 C.2   166  HEM166      0.0000
     21  C4B       21.5880   65.4610    1.1540 C.2   166  HEM166      0.0000
     22  CMB       22.1150   68.8570   -0.3050 C.3   166  HEM166      0.0000
     23  CAB       20.2690   66.3820   -0.7960 C.3   166  HEM166      0.0000
     24  CBB       20.4190   66.8820   -2.1380 C.3   166  HEM166      0.0000
     25  NC        22.0630   63.4820    3.3200 N.ar  166  HEM166      0.0000
     26  C1C       21.1370   63.3180    2.3150 C.ar  166  HEM166      0.0000
     27  C2C       20.3260   62.1390    2.5440 C.ar  166  HEM166      0.0000
     28  C3C       20.7630   61.5860    3.7000 C.ar  166  HEM166      0.0000
     29  C4C       21.8560   62.4060    4.1450 C.ar  166  HEM166      0.0000
     30  CMC       19.2920   61.5540    1.5910 C.3   166  HEM166      0.0000
     31  CAC       20.3550   60.3800    4.2830 C.3   166  HEM166      0.0000
     32  CBC       18.9790   60.0730    4.6060 C.3   166  HEM166      0.0000
     33  ND        24.1620   64.0060    5.0480 N.2   166  HEM166      0.0000
     34  C1D       23.7430   62.8370    5.6370 C.2   166  HEM166      0.0000
     35  C2D       24.5930   62.4670    6.7300 C.2   166  HEM166      0.0000
     36  C3D       25.5790   63.3780    6.7700 C.2   166  HEM166      0.0000
     37  C4D       25.2790   64.3550    5.7540 C.2   166  HEM166      0.0000
     38  CMD       24.3480   61.3540    7.7410 C.3   166  HEM166      0.0000
     39  CAD       26.8590   63.2750    7.5730 C.3   166  HEM166      0.0000
     40  CBD       26.6300   63.2650    9.0570 C.3   166  HEM166      0.0000
     41  CGD       26.6670   64.6450    9.6370 C.2   166  HEM166      0.0000
     42  O1D       25.8500   65.4860    9.2150 O.co2 166  HEM166      0.0000
     43  O2D       27.5240   64.8890   10.5080 O.co2 166  HEM166      0.0000
@<TRIPOS>BOND
     1    24    23    1
     2    23    20    1
     3    22    19    1
     4    20    19    2
     5    20    21    1
     6    19    18    1
     7    21     4    2
     8    21    17    1
     9     4    26    1
    10    30    27    1
    11    18    17    2
    12    18     3    1
    13    17     1    1
    14     3    10    2
    15    26    27   ar
    16    26    25   ar
    17    27    28   ar
    18    10     9   ar
    19    10     6   ar
    20    11     9    1
    21    25     1    1
    22    25    29   ar
    23    16    14   ar
    24     1     6    1
    25     1    33    1
    26     9     8   ar
    27    28    29   ar
    28    28    31    1
    29     6     7   ar
    30    29     5    1
    31    31    32    1
    32    15    14   ar
    33    14    13    1
    34     8     7   ar
    35     8    12    1
    36     7     2    2
    37    33    34    1
    38    33    37    2
    39     5    34    2
    40    13    12    1
    41     2    37    1
    42    34    35    1
    43    37    36    1
    44    35    36    2
    45    35    38    1
    46    36    39    1
    47    39    40    1
    48    40    41    1
    49    42    41   ar
    50    41    43   ar
