@<TRIPOS>MOLECULE
1d9i_00P_A_1.pdb
 33 36 0 0 0
SMALL
GASTEIGER

@<TRIPOS>ATOM
      1  C1        14.6340  -11.3620   20.5950 C.3   380  00P380      0.1152
      2  N1        15.5640  -12.1770   21.3760 N.am  380  00P380     -0.2035
      3  C2        13.1470  -11.2940   21.1010 C.3   380  00P380      0.0218
      4  N2        10.3290  -12.8470   24.1710 N.3   380  00P380     -0.1329
      5  C3        13.0620  -10.6940   22.5400 C.3   380  00P380      0.0032
      6  C4        11.6930  -10.9390   23.2670 C.3   380  00P380      0.0191
      7  C5        11.3930  -12.4610   23.2340 C.3   380  00P380      0.0918
      8  C6        11.1010  -12.8180   21.7700 C.3   380  00P380      0.0191
      9  C7        12.4150  -12.6670   20.9440 C.3   380  00P380      0.0032
     10  N07       17.9450  -15.9540   23.4870 N.ar  380  00P380     -0.2303
     11  C08       19.0400  -16.1960   22.6510 C.ar  380  00P380      0.3496
     12  O09       19.7450  -17.2000   22.5880 O.2   380  00P380     -0.2447
     13  N10       19.2010  -15.0530   21.8590 N.ar  380  00P380     -0.2131
     14  N11       18.2070  -14.1460   22.2110 N.ar  380  00P380     -0.2067
     15  C12       17.4300  -14.6990   23.2110 C.ar  380  00P380      0.3500
     16  O13       16.4570  -14.1480   23.6930 O.2   380  00P380     -0.2447
     17  C14       20.4440  -14.5980   21.2530 C.3   380  00P380      0.1562
     18  C15       20.1380  -13.4830   20.2800 C.2   380  00P380     -0.0021
     19  C16       19.0090  -12.7640   20.4130 C.2   380  00P380      0.0045
     20  C17       17.9940  -12.8890   21.5140 C.3   380  00P380      0.2070
     21  C18       16.5950  -12.9620   20.8130 C.2   380  00P380      0.2681
     22  O19       16.3630  -13.7750   19.9310 O.2   380  00P380     -0.2709
     23  C31       17.3710  -16.9340   24.3950 C.3   380  00P380      0.1409
     24  C32       16.9020  -16.4020   25.7390 C.3   380  00P380      0.1806
     25  S33       18.2030  -17.0280   26.7510 S.O2  380  00P380      0.0106
     26  O34       17.9480  -16.9120   28.1580 O.2   380  00P380     -0.1686
     27  O35       18.5360  -18.3710   26.2200 O.2   380  00P380     -0.1686
     28  C36       19.7060  -16.1130   26.4360 C.ar  380  00P380      0.1057
     29  C37       20.2580  -15.3020   27.4200 C.ar  380  00P380      0.0183
     30  C38       21.4520  -14.6360   27.1510 C.ar  380  00P380      0.0013
     31  C39       22.0830  -14.7810   25.9190 C.ar  380  00P380      0.0001
     32  C40       21.5350  -15.5990   24.9340 C.ar  380  00P380      0.0013
     33  C41       20.3480  -16.2710   25.2010 C.ar  380  00P380      0.0183
@<TRIPOS>BOND
     1    22    21    2
     2    18    19    2
     3    18    17    1
     4    19    20    1
     5     1     3    1
     6     1     2    1
     7    21     2   am
     8    21    20    1
     9     9     3    1
    10     9     8    1
    11     3     5    1
    12    17    13    1
    13    20    14    1
    14     8     7    1
    15    13    14   ar
    16    13    11   ar
    17    14    15   ar
    18     5     6    1
    19    12    11    2
    20    11    10   ar
    21    15    10   ar
    22    15    16    2
    23     7     6    1
    24     7     4    1
    25    10    23    1
    26    23    24    1
    27    32    33   ar
    28    32    31   ar
    29    33    28   ar
    30    24    25    1
    31    31    30   ar
    32    27    25    2
    33    28    25    1
    34    28    29   ar
    35    25    26    2
    36    30    29   ar
