@<TRIPOS>MOLECULE
1d9u_NAG_B_1.pdb
 14 14 0 0 0
SMALL
GASTEIGER

@<TRIPOS>ATOM
      1  C1        92.5940   91.5820  116.8610 C.3   1401  NAG1401     0.1665
      2  C2        91.6540   92.4300  115.9950 C.3   1401  NAG1401     0.1576
      3  C3        92.1770   92.5300  114.5560 C.3   1401  NAG1401     0.2069
      4  C4        93.6150   93.0290  114.5720 C.3   1401  NAG1401     0.2134
      5  C5        94.4320   92.0840  115.4330 C.3   1401  NAG1401     0.1809
      6  C6        95.9020   92.4270  115.5050 C.3   1401  NAG1401     0.2141
      7  C7        89.3290   92.4880  116.6200 C.2   1401  NAG1401     0.2420
      8  C8        87.9620   91.8290  116.5680 C.3   1401  NAG1401     0.0964
      9  N2        90.3200   91.8610  115.9960 N.am  1401  NAG1401    -0.2019
     10  O3        91.3650   93.4260  113.8070 O.3   1401  NAG1401    -0.2184
     11  O4        94.1320   93.0670  113.2490 O.3   1401  NAG1401    -0.2176
     12  O5        93.9250   92.0980  116.7780 O.3   1401  NAG1401    -0.3489
     13  O6        96.6310   91.3790  116.1270 O.3   1401  NAG1401    -0.2176
     14  O7        89.4820   93.5490  117.2330 O.2   1401  NAG1401    -0.2733
@<TRIPOS>BOND
     1    11     4    1
     2    10     3    1
     3     3     4    1
     4     3     2    1
     5     4     5    1
     6     5     6    1
     7     5    12    1
     8     6    13    1
     9     2     9    1
    10     2     1    1
    11     9     7   am
    12     8     7    1
    13     7    14    2
    14    12     1    1
