@<TRIPOS>MOLECULE
1d9z_ATP_A_1.pdb
 31 33 0 0 0
SMALL
GASTEIGER

@<TRIPOS>ATOM
      1  PG        46.2380   40.9730   66.6000 P.3   700  ATP700      0.5373
      2  O1G       45.5570   40.7280   67.8770 O.3   700  ATP700     -0.1143
      3  O2G       47.4250   41.8500   66.7350 O.3   700  ATP700     -0.1143
      4  O3G       46.6520   39.6760   65.9760 O.2   700  ATP700     -0.2221
      5  PB        45.5990   41.9380   64.0950 P.3   700  ATP700      0.2277
      6  O1B       46.4020   40.8300   63.4800 O.2   700  ATP700     -0.5168
      7  O2B       46.2170   43.2460   63.9030 O.3   700  ATP700     -0.4368
      8  O3B       45.1640   41.6260   65.5840 O.3   700  ATP700     -0.2258
      9  PA        44.4010   42.1390   61.7430 P.3   700  ATP700      0.2189
     10  O1A       45.5560   43.0230   61.5010 O.3   700  ATP700     -0.4371
     11  O2A       44.5650   40.8290   61.0840 O.2   700  ATP700     -0.5170
     12  O3A       44.1940   41.9340   63.3430 O.3   700  ATP700     -0.2700
     13  O5'       42.9460   42.7490   61.6360 O.3   700  ATP700     -0.3112
     14  C5'       41.8470   42.0780   62.2990 C.3   700  ATP700      0.1813
     15  C4'       40.5750   42.4190   61.5480 C.3   700  ATP700      0.1821
     16  O4'       40.5040   43.7710   61.0610 O.3   700  ATP700     -0.3135
     17  C3'       40.0180   41.5590   60.4370 C.3   700  ATP700      0.2184
     18  O3'       38.7420   40.9820   60.7880 O.3   700  ATP700     -0.2174
     19  C2'       40.0170   42.5320   59.2310 C.3   700  ATP700      0.2570
     20  O2'       38.9300   42.2560   58.3290 O.3   700  ATP700     -0.2130
     21  C1'       39.7890   43.9070   59.8750 C.3   700  ATP700      0.3186
     22  N9        39.9610   45.0740   59.0300 N.pl3 700  ATP700     -0.1439
     23  C8        41.1250   45.7580   58.8670 C.3   700  ATP700      0.3377
     24  N7        41.1540   46.8800   58.2530 N.2   700  ATP700     -0.2095
     25  C5        39.8890   47.0250   57.9300 C.2   700  ATP700      0.2526
     26  C6        39.3490   48.0870   57.2390 C.2   700  ATP700      0.4393
     27  N6        40.0600   49.1230   56.7930 N.pl3 700  ATP700      0.2180
     28  N1        38.0190   47.9940   57.0240 N.2   700  ATP700      0.0021
     29  C2        37.3130   46.8980   57.4970 C.3   700  ATP700      0.5254
     30  N3        37.7660   45.8580   58.1560 N.2   700  ATP700     -0.0055
     31  C4        39.1020   45.9630   58.3650 C.2   700  ATP700      0.3518
@<TRIPOS>BOND
     1    27    26    1
     2    28    26    2
     3    28    29    1
     4    26    25    1
     5    29    30    1
     6    25    24    2
     7    25    31    1
     8    30    31    2
     9    24    23    1
    10    20    19    1
    11    31    22    1
    12    23    22    1
    13    22    21    1
    14    19    21    1
    15    19    17    1
    16    21    16    1
    17    17    18    1
    18    17    15    1
    19    16    15    1
    20    11     9    2
    21    10     9    1
    22    15    14    1
    23    13     9    1
    24    13    14    1
    25     9    12    1
    26    12     5    1
    27     6     5    2
    28     7     5    1
    29     5     8    1
    30     8     1    1
    31     4     1    2
    32     1     3    1
    33     1     2    1
