@<TRIPOS>MOLECULE
1daa_PLP_A_1.pdb
 16 16 0 0 0
SMALL
GASTEIGER

@<TRIPOS>ATOM
      1  N1        48.5730   -7.7940   42.8570 N.ar  285  PLP285     -0.2452
      2  C2        47.4950   -8.4290   43.4280 C.ar  285  PLP285      0.0982
      3  C2A       46.1400   -7.7400   43.4130 C.3   285  PLP285      0.0555
      4  C3        47.6520   -9.6750   44.0090 C.ar  285  PLP285      0.2120
      5  O3        46.5710  -10.2940   44.6260 O.3   285  PLP285     -0.2852
      6  C4        48.9200  -10.2870   43.9930 C.ar  285  PLP285      0.0822
      7  C4A       49.1680  -11.6660   44.6880 C.2   285  PLP285      0.2372
      8  O4A       48.2220  -12.2520   45.2520 O.2   285  PLP285     -0.2830
      9  C5        49.9970   -9.6250   43.3870 C.ar  285  PLP285      0.0333
     10  C6        49.8140   -8.3850   42.8440 C.ar  285  PLP285      0.0969
     11  C5A       51.3470  -10.3190   43.1970 C.3   285  PLP285      0.1819
     12  O4P       52.0570  -10.2830   44.4260 O.3   285  PLP285     -0.2653
     13  P         53.0710  -11.4190   44.8700 P.3   285  PLP285      0.5329
     14  O1P       52.3930  -12.7070   45.0240 O.3   285  PLP285     -0.1145
     15  O2P       53.4710  -10.9200   46.3080 O.3   285  PLP285     -0.1145
     16  O3P       54.2330  -11.3240   43.9680 O.2   285  PLP285     -0.2224
@<TRIPOS>BOND
     1    10     1   ar
     2    10     9   ar
     3     1     2   ar
     4    11     9    1
     5    11    12    1
     6     9     6   ar
     7     3     2    1
     8     2     4   ar
     9    16    13    2
    10     6     4   ar
    11     6     7    1
    12     4     5    1
    13    12    13    1
    14     7     8    2
    15    13    14    1
    16    13    15    1
