@<TRIPOS>MOLECULE
1dad_ADP_A_1.pdb
 27 29 0 0 0
SMALL
GASTEIGER

@<TRIPOS>ATOM
      1  PB         3.9530   22.8560   11.3420 P.3   225  ADP225      0.5373
      2  O1B        4.0140   23.8290   10.2110 O.2   225  ADP225     -0.2221
      3  O2B        4.2920   23.5190   12.7910 O.3   225  ADP225     -0.1143
      4  O3B        2.6200   22.1910   11.4060 O.3   225  ADP225     -0.1143
      5  PA         5.7310   20.7270   12.0470 P.3   225  ADP225      0.2231
      6  O1A        4.7650   20.3930   13.1080 O.3   225  ADP225     -0.4370
      7  O2A        7.0070   21.1960   12.6140 O.2   225  ADP225     -0.5169
      8  O3A        5.0960   21.8330   11.1360 O.3   225  ADP225     -0.2261
      9  O5'        5.9510   19.5250   11.0210 O.3   225  ADP225     -0.3111
     10  C5'        4.8390   18.9320   10.3260 C.3   225  ADP225      0.1813
     11  C4'        5.2770   17.5280    9.9100 C.3   225  ADP225      0.1821
     12  O4'        6.3980   17.6380    9.0120 O.3   225  ADP225     -0.3135
     13  C3'        5.7650   16.6930   11.0900 C.3   225  ADP225      0.2184
     14  O3'        5.4680   15.3070   10.9050 O.3   225  ADP225     -0.2174
     15  C2'        7.2690   16.8690   11.0600 C.3   225  ADP225      0.2570
     16  O2'        7.9540   15.8090   11.7420 O.3   225  ADP225     -0.2130
     17  C1'        7.5230   16.9290    9.5660 C.3   225  ADP225      0.3186
     18  N9         8.7980   17.6440    9.2480 N.pl3 225  ADP225     -0.1439
     19  C8         8.9950   18.9540    9.4160 C.3   225  ADP225      0.3377
     20  N7        10.2800   19.2330    9.2030 N.2   225  ADP225     -0.2095
     21  C5        10.9040   18.1220    8.8990 C.2   225  ADP225      0.2526
     22  C6        12.2040   17.7860    8.5820 C.2   225  ADP225      0.4393
     23  N6        13.1650   18.7220    8.5950 N.pl3 225  ADP225      0.2180
     24  N1        12.5160   16.5040    8.2920 N.2   225  ADP225      0.0021
     25  C2        11.5910   15.5410    8.3220 C.3   225  ADP225      0.5254
     26  N3        10.3380   15.8490    8.6420 N.2   225  ADP225     -0.0055
     27  C4         9.9520   17.0980    8.9210 C.2   225  ADP225      0.3518
@<TRIPOS>BOND
     1    24    25    1
     2    24    22    2
     3    25    26    1
     4    22    23    1
     5    22    21    1
     6    26    27    2
     7    21    27    1
     8    21    20    2
     9    27    18    1
    10    12    17    1
    11    12    11    1
    12    20    19    1
    13    18    19    1
    14    18    17    1
    15    17    15    1
    16    11    10    1
    17    11    13    1
    18     2     1    2
    19    10     9    1
    20    14    13    1
    21     9     5    1
    22    15    13    1
    23    15    16    1
    24     8     1    1
    25     8     5    1
    26     1     4    1
    27     1     3    1
    28     5     7    2
    29     5     6    1
