@<TRIPOS>MOLECULE
1dae_IKT_A_1.pdb
 16 15 0 0 0
SMALL
GASTEIGER

@<TRIPOS>ATOM
      1  C1        -2.4110   24.4300   15.0800 C.2   225  IKT225      0.3649
      2  O1        -1.3920   24.6600   14.4240 O.co2 225  IKT225     -0.2457
      3  O2        -2.4160   24.4130   16.3230 O.co2 225  IKT225     -0.2457
      4  C2        -3.7030   24.1810   14.3090 C.3   225  IKT225      0.1155
      5  C3        -3.6070   24.2230   12.7630 C.3   225  IKT225      0.0289
      6  C4        -4.6430   25.2450   12.2980 C.3   225  IKT225      0.0020
      7  C5        -4.7760   25.4520   10.8050 C.3   225  IKT225      0.0001
      8  C6        -5.7770   26.5600   10.5410 C.3   225  IKT225      0.0006
      9  C7        -5.8960   26.7940    9.0380 C.3   225  IKT225      0.0118
     10  C8        -6.8410   27.9490    8.6570 C.3   225  IKT225      0.1141
     11  C9        -6.8400   28.1400    7.1410 C.2   225  IKT225      0.3649
     12  O3        -7.5530   27.4390    6.4180 O.co2 225  IKT225     -0.2457
     13  O4        -6.0800   28.9730    6.6510 O.co2 225  IKT225     -0.2457
     14  C1'       -3.8270   22.8440   12.1260 C.3   225  IKT225      0.0924
     15  C2'       -5.0400   22.1520   12.7320 C.3   225  IKT225      0.0205
     16  N1'       -2.6530   22.0320   12.3500 N.3   225  IKT225     -0.1329
@<TRIPOS>BOND
     1    12    11   ar
     2    13    11   ar
     3    11    10    1
     4    10     9    1
     5     9     8    1
     6     8     7    1
     7     7     6    1
     8    14    16    1
     9    14    15    1
    10    14     5    1
    11     6     5    1
    12     5     4    1
    13     4     1    1
    14     2     1   ar
    15     1     3   ar
