@<TRIPOS>MOLECULE
1daf_DSD_A_1.pdb
 16 15 0 0 0
SMALL
GASTEIGER

@<TRIPOS>ATOM
      1  C1        -6.6410   28.1690    7.0560 C.2   225  DSD225      0.3649
      2  O1        -7.4050   27.4880    6.3520 O.co2 225  DSD225     -0.2457
      3  O2        -5.8690   28.9990    6.5790 O.co2 225  DSD225     -0.2457
      4  C2        -6.5860   27.9690    8.5670 C.3   225  DSD225      0.1141
      5  C3        -5.7830   26.7400    8.9470 C.3   225  DSD225      0.0118
      6  C4        -5.6910   26.5010   10.4410 C.3   225  DSD225      0.0006
      7  C5        -4.5850   25.4890   10.6930 C.3   225  DSD225      0.0018
      8  C6        -4.5040   25.1650   12.1700 C.3   225  DSD225      0.0233
      9  C7        -3.2720   24.3980   12.6620 C.3   225  DSD225      0.1163
     10  C8        -3.2740   22.9360   12.1490 C.3   225  DSD225      0.1118
     11  C9        -4.4810   22.1570   12.6730 C.3   225  DSD225      0.0223
     12  N7        -3.3010   24.4380   14.1250 N.am  225  DSD225     -0.1660
     13  C         -2.2090   24.6970   14.8720 C.2   225  DSD225      0.4629
     14  O         -1.1960   25.1850   14.3730 O.co2 225  DSD225     -0.2207
     15  OXT       -2.2790   24.4810   16.0770 O.co2 225  DSD225     -0.2207
     16  N8        -2.0340   22.3440   12.6420 N.3   225  DSD225     -0.1311
@<TRIPOS>BOND
     1     2     1   ar
     2     3     1   ar
     3     1     4    1
     4     4     5    1
     5     5     6    1
     6     6     7    1
     7     7     8    1
     8    10    16    1
     9    10     9    1
    10    10    11    1
    11     8     9    1
    12     9    12    1
    13    12    13   am
    14    14    13   ar
    15    13    15   ar
