@<TRIPOS>MOLECULE
1daf_ADP_A_1.pdb
 27 29 0 0 0
SMALL
GASTEIGER

@<TRIPOS>ATOM
      1  PB         3.7010   23.1550   11.4160 P.3   226  ADP226      0.5373
      2  O1B        4.1000   24.1040   10.3460 O.2   226  ADP226     -0.2221
      3  O2B        4.0750   23.7260   12.8540 O.3   226  ADP226     -0.1143
      4  O3B        2.2540   22.8550   11.3570 O.3   226  ADP226     -0.1143
      5  PA         5.3050   20.7650   12.0090 P.3   226  ADP226      0.2231
      6  O1A        4.4140   20.2470   13.0420 O.3   226  ADP226     -0.4370
      7  O2A        6.5100   21.4250   12.5540 O.2   226  ADP226     -0.5169
      8  O3A        4.5110   21.8290   11.1330 O.3   226  ADP226     -0.2261
      9  O5'        5.7260   19.6250   10.9950 O.3   226  ADP226     -0.3111
     10  C5'        4.6810   18.9640   10.2570 C.3   226  ADP226      0.1813
     11  C4'        5.0860   17.5400    9.9520 C.3   226  ADP226      0.1821
     12  O4'        6.1900   17.5550    9.0330 O.3   226  ADP226     -0.3135
     13  C3'        5.5210   16.7950   11.1960 C.3   226  ADP226      0.2184
     14  O3'        4.9980   15.4710   11.1220 O.3   226  ADP226     -0.2174
     15  C2'        7.0340   16.8100   11.1240 C.3   226  ADP226      0.2570
     16  O2'        7.6770   15.6880   11.7660 O.3   226  ADP226     -0.2130
     17  C1'        7.3070   16.8440    9.6240 C.3   226  ADP226      0.3186
     18  N9         8.5640   17.5850    9.3050 N.pl3 226  ADP226     -0.1439
     19  C8         8.7120   18.9330    9.4220 C.3   226  ADP226      0.3377
     20  N7         9.9840   19.2230    9.1950 N.2   226  ADP226     -0.2095
     21  C5        10.6360   18.1110    8.9370 C.2   226  ADP226      0.2526
     22  C6        11.9570   17.8200    8.6380 C.2   226  ADP226      0.4393
     23  N6        12.8580   18.7710    8.5210 N.pl3 226  ADP226      0.2180
     24  N1        12.3290   16.5260    8.4040 N.2   226  ADP226      0.0021
     25  C2        11.4000   15.5350    8.4580 C.3   226  ADP226      0.5254
     26  N3        10.1290   15.8040    8.7540 N.2   226  ADP226     -0.0055
     27  C4         9.7150   17.0590    8.9930 C.2   226  ADP226      0.3518
@<TRIPOS>BOND
     1    24    25    1
     2    24    22    2
     3    25    26    1
     4    23    22    1
     5    22    21    1
     6    26    27    2
     7    21    27    1
     8    21    20    2
     9    27    18    1
    10    12    17    1
    11    12    11    1
    12    20    19    1
    13    18    19    1
    14    18    17    1
    15    17    15    1
    16    11    10    1
    17    11    13    1
    18    10     9    1
    19     2     1    2
    20     9     5    1
    21    14    13    1
    22    15    13    1
    23    15    16    1
    24     8     1    1
    25     8     5    1
    26     4     1    1
    27     1     3    1
    28     5     7    2
    29     5     6    1
