@<TRIPOS>MOLECULE
1dag_ACP_A_1.pdb
 31 33 0 0 0
SMALL
GASTEIGER

@<TRIPOS>ATOM
      1  PG         0.6200   23.6420   12.1690 P.3   226  ACP226      0.1295
      2  O1G        0.2730   24.2730   10.8730 O.2   226  ACP226     -0.4595
      3  O2G        1.0660   24.8190   13.1850 O.3   226  ACP226     -0.3567
      4  O3G       -0.4800   22.8150   12.7200 O.3   226  ACP226     -0.3567
      5  PB         3.7860   23.0370   11.6360 P.3   226  ACP226      0.3815
      6  O1B        4.2550   23.6690   12.9030 O.3   226  ACP226     -0.1391
      7  O2B        3.8270   23.9580   10.4460 O.2   226  ACP226     -0.2547
      8  C3B        2.0570   22.5190   11.9410 C.3   226  ACP226      0.1768
      9  PA         5.4410   20.6330   12.1460 P.3   226  ACP226      0.2209
     10  O1A        4.6350   19.9870   13.1850 O.3   226  ACP226     -0.4371
     11  O2A        6.6860   21.2110   12.6970 O.2   226  ACP226     -0.5170
     12  O3A        4.6050   21.7270   11.3310 O.3   226  ACP226     -0.2483
     13  O5'        5.7490   19.6140   10.9530 O.3   226  ACP226     -0.3111
     14  C5'        4.6540   19.1310   10.1420 C.3   226  ACP226      0.1813
     15  C4'        5.0250   17.7200    9.7130 C.3   226  ACP226      0.1821
     16  O4'        6.1800   17.7890    8.8440 O.3   226  ACP226     -0.3135
     17  C3'        5.4110   16.8430   10.9140 C.3   226  ACP226      0.2184
     18  O3'        4.8980   15.5100   10.7770 O.3   226  ACP226     -0.2174
     19  C2'        6.9330   16.8670   10.9360 C.3   226  ACP226      0.2570
     20  O2'        7.5070   15.6860   11.5330 O.3   226  ACP226     -0.2130
     21  C1'        7.2770   17.0510    9.4550 C.3   226  ACP226      0.3186
     22  N9         8.5970   17.7420    9.2630 N.pl3 226  ACP226     -0.1439
     23  C8         8.8280   19.0510    9.4960 C.3   226  ACP226      0.3377
     24  N7        10.1170   19.3050    9.2980 N.2   226  ACP226     -0.2095
     25  C5        10.7200   18.1690    8.9290 C.2   226  ACP226      0.2526
     26  C6        12.0230   17.8420    8.5960 C.2   226  ACP226      0.4393
     27  N6        13.0160   18.7230    8.6600 N.pl3 226  ACP226      0.2180
     28  N1        12.2800   16.5560    8.2360 N.2   226  ACP226      0.0021
     29  C2        11.3100   15.6150    8.2180 C.3   226  ACP226      0.5254
     30  N3        10.0720   15.9300    8.5590 N.2   226  ACP226     -0.0055
     31  C4         9.7270   17.2100    8.9130 C.2   226  ACP226      0.3518
@<TRIPOS>BOND
     1    29    28    1
     2    29    30    1
     3    28    26    2
     4    30    31    2
     5    26    27    1
     6    26    25    1
     7    16    21    1
     8    16    15    1
     9    31    25    1
    10    31    22    1
    11    25    24    2
    12    22    21    1
    13    22    23    1
    14    24    23    1
    15    21    19    1
    16    15    14    1
    17    15    17    1
    18    14    13    1
    19     7     5    2
    20    18    17    1
    21     2     1    2
    22    17    19    1
    23    19    20    1
    24    13     9    1
    25    12     5    1
    26    12     9    1
    27     5     8    1
    28     5     6    1
    29     8     1    1
    30     9    11    2
    31     9    10    1
    32     1     4    1
    33     1     3    1
