@<TRIPOS>MOLECULE
1dag_DSD_A_1.pdb
 16 15 0 0 0
SMALL
GASTEIGER

@<TRIPOS>ATOM
      1  C1        -6.7850   28.2240    7.2070 C.2   225  DSD225      0.3649
      2  O1        -7.5000   27.5050    6.4850 O.co2 225  DSD225     -0.2457
      3  O2        -6.0430   29.0940    6.7260 O.co2 225  DSD225     -0.2457
      4  C2        -6.7870   28.0360    8.7290 C.3   225  DSD225      0.1141
      5  C3        -5.8300   26.9050    9.0980 C.3   225  DSD225      0.0118
      6  C4        -5.6690   26.7530   10.6100 C.3   225  DSD225      0.0006
      7  C5        -4.6830   25.6290   10.9230 C.3   225  DSD225      0.0018
      8  C6        -4.4210   25.3980   12.4110 C.3   225  DSD225      0.0233
      9  C7        -3.4500   24.2120   12.7420 C.3   225  DSD225      0.1163
     10  C8        -3.8850   22.8550   12.0770 C.3   225  DSD225      0.1118
     11  C9        -5.2220   22.3150   12.6180 C.3   225  DSD225      0.0223
     12  N7        -3.4040   23.9820   14.1990 N.am  225  DSD225     -0.1660
     13  C         -2.3950   24.3510   14.9960 C.2   225  DSD225      0.4629
     14  O         -1.4500   24.9930   14.5180 O.co2 225  DSD225     -0.2207
     15  OXT       -2.4610   24.0440   16.1900 O.co2 225  DSD225     -0.2207
     16  N8        -2.8800   21.8170   12.3000 N.3   225  DSD225     -0.1311
@<TRIPOS>BOND
     1     2     1   ar
     2     3     1   ar
     3     1     4    1
     4     4     5    1
     5     5     6    1
     6     6     7    1
     7     7     8    1
     8    10    16    1
     9    10    11    1
    10    10     9    1
    11     8     9    1
    12     9    12    1
    13    12    13   am
    14    14    13   ar
    15    13    15   ar
