@<TRIPOS>MOLECULE
1dah_DNN_A_1.pdb
 13 12 0 0 0
SMALL
GASTEIGER

@<TRIPOS>ATOM
      1  C1        -6.8420   28.1780    7.1400 C.2   225  DNN225      0.3649
      2  O1        -7.5360   27.4740    6.4090 O.co2 225  DNN225     -0.2457
      3  O2        -6.0710   29.0210    6.6700 O.co2 225  DNN225     -0.2457
      4  C2        -6.8470   27.9560    8.6560 C.3   225  DNN225      0.1141
      5  C3        -5.7830   26.9060    9.0110 C.3   225  DNN225      0.0118
      6  C4        -5.6180   26.6370   10.4960 C.3   225  DNN225      0.0006
      7  C5        -4.5580   25.5560   10.6870 C.3   225  DNN225      0.0015
      8  C6        -4.3710   25.2650   12.1650 C.3   225  DNN225      0.0205
      9  C7        -3.4020   24.1360   12.5870 C.3   225  DNN225      0.1093
     10  C8        -3.8230   22.7710   11.9690 C.3   225  DNN225      0.1094
     11  C9        -5.1090   22.2600   12.5930 C.3   225  DNN225      0.0220
     12  N7        -3.4910   24.0840   14.0350 N.3   225  DNN225     -0.1314
     13  N8        -2.8020   21.7500   12.1420 N.3   225  DNN225     -0.1314
@<TRIPOS>BOND
     1     2     1   ar
     2     3     1   ar
     3     1     4    1
     4     4     5    1
     5     5     6    1
     6     6     7    1
     7     7     8    1
     8    10    13    1
     9    10     9    1
    10    10    11    1
    11     8     9    1
    12     9    12    1
