@<TRIPOS>MOLECULE
1dah_ACP_A_1.pdb
 31 33 0 0 0
SMALL
GASTEIGER

@<TRIPOS>ATOM
      1  PG         0.8550   23.2630   12.2680 P.3   226  ACP226      0.1295
      2  O1G        0.2610   24.0670   11.1550 O.2   226  ACP226     -0.4595
      3  O2G        1.5460   24.2690   13.3220 O.3   226  ACP226     -0.3567
      4  O3G       -0.1310   22.3590   12.9100 O.3   226  ACP226     -0.3567
      5  PB         3.9600   22.9890   11.4430 P.3   226  ACP226      0.3815
      6  O1B        4.3120   23.6160   12.7350 O.3   226  ACP226     -0.1391
      7  O2B        3.9240   23.9590   10.3010 O.2   226  ACP226     -0.2547
      8  C3B        2.2840   22.2700   11.6710 C.3   226  ACP226      0.1768
      9  PA         5.7430   20.7430   12.1060 P.3   226  ACP226      0.2209
     10  O1A        4.8310   20.2740   13.1830 O.3   226  ACP226     -0.4371
     11  O2A        7.0060   21.2900   12.6600 O.2   226  ACP226     -0.5170
     12  O3A        5.0120   21.8360   11.1810 O.3   226  ACP226     -0.2483
     13  O5'        6.0310   19.5600   11.0600 O.3   226  ACP226     -0.3111
     14  C5'        4.9790   19.0950   10.1930 C.3   226  ACP226      0.1813
     15  C4'        5.2560   17.6540    9.8080 C.3   226  ACP226      0.1821
     16  O4'        6.3740   17.6320    8.8930 O.3   226  ACP226     -0.3135
     17  C3'        5.6520   16.8010   11.0140 C.3   226  ACP226      0.2184
     18  O3'        5.2040   15.4480   10.8610 O.3   226  ACP226     -0.2174
     19  C2'        7.1700   16.9250   11.0340 C.3   226  ACP226      0.2570
     20  O2'        7.8570   15.9360   11.8240 O.3   226  ACP226     -0.2130
     21  C1'        7.4740   16.9460    9.5320 C.3   226  ACP226      0.3186
     22  N9         8.7090   17.7200    9.2130 N.pl3 226  ACP226     -0.1439
     23  C8         8.8950   19.0190    9.4210 C.3   226  ACP226      0.3377
     24  N7        10.1830   19.2940    9.1830 N.2   226  ACP226     -0.2095
     25  C5        10.7990   18.1770    8.8190 C.2   226  ACP226      0.2526
     26  C6        12.1150   17.8560    8.4630 C.2   226  ACP226      0.4393
     27  N6        13.1040   18.7320    8.5870 N.pl3 226  ACP226      0.2180
     28  N1        12.3770   16.5790    8.1080 N.2   226  ACP226      0.0021
     29  C2        11.4290   15.6450    8.1140 C.3   226  ACP226      0.5254
     30  N3        10.2040   15.9280    8.4830 N.2   226  ACP226     -0.0055
     31  C4         9.8490   17.1740    8.8270 C.2   226  ACP226      0.3518
@<TRIPOS>BOND
     1    28    29    1
     2    28    26    2
     3    29    30    1
     4    26    27    1
     5    26    25    1
     6    30    31    2
     7    25    31    1
     8    25    24    2
     9    31    22    1
    10    16    21    1
    11    16    15    1
    12    24    23    1
    13    22    23    1
    14    22    21    1
    15    21    19    1
    16    15    14    1
    17    15    17    1
    18    14    13    1
    19     7     5    2
    20    18    17    1
    21    17    19    1
    22    19    20    1
    23    13     9    1
    24     2     1    2
    25    12     5    1
    26    12     9    1
    27     5     8    1
    28     5     6    1
    29     8     1    1
    30     9    11    2
    31     9    10    1
    32     1     4    1
    33     1     3    1
