@<TRIPOS>MOLECULE
1dai_DSD_A_1.pdb
 16 15 0 0 0
SMALL
GASTEIGER

@<TRIPOS>ATOM
      1  C1        -6.8120   28.1450    7.1580 C.2   225  DSD225      0.3649
      2  O1        -7.5050   27.3960    6.4250 O.co2 225  DSD225     -0.2457
      3  O2        -6.1080   29.0560    6.7310 O.co2 225  DSD225     -0.2457
      4  C2        -6.7770   27.9790    8.6810 C.3   225  DSD225      0.1141
      5  C3        -5.7970   26.8760    9.0960 C.3   225  DSD225      0.0118
      6  C4        -5.7490   26.6650   10.6000 C.3   225  DSD225      0.0006
      7  C5        -4.7920   25.5190   10.9140 C.3   225  DSD225      0.0018
      8  C6        -4.7690   25.2600   12.4140 C.3   225  DSD225      0.0233
      9  C7        -3.6130   24.4150   12.9150 C.3   225  DSD225      0.1163
     10  C8        -3.6440   23.0230   12.3260 C.3   225  DSD225      0.1118
     11  C9        -4.8630   22.2540   12.8060 C.3   225  DSD225      0.0223
     12  N7        -3.6830   24.2950   14.3720 N.am  225  DSD225     -0.1660
     13  C         -2.6150   24.5050   15.1650 C.2   225  DSD225      0.4629
     14  O         -1.5190   24.6950   14.6660 O.co2 225  DSD225     -0.2207
     15  OXT       -2.7220   24.5090   16.3820 O.co2 225  DSD225     -0.2207
     16  N8        -2.4320   22.3990   12.8170 N.3   225  DSD225     -0.1311
@<TRIPOS>BOND
     1     2     1   ar
     2     3     1   ar
     3     1     4    1
     4     4     5    1
     5     5     6    1
     6     6     7    1
     7     7     8    1
     8    10    11    1
     9    10    16    1
    10    10     9    1
    11     8     9    1
    12     9    12    1
    13    12    13   am
    14    14    13   ar
    15    13    15   ar
