@<TRIPOS>MOLECULE
1daj_MOT_A_1.pdb
 32 34 0 0 0
SMALL
GASTEIGER

@<TRIPOS>ATOM
      1  N1        11.4250    2.3330   11.7490 N.2   208  MOT208     -0.2915
      2  C2        10.3700    2.3890   12.5700 C.1   208  MOT208      0.2450
      3  NA2        9.4370    1.4780   12.3560 N.pl3 208  MOT208     -0.0231
      4  N3        10.2450    3.2440   13.5250 N.2   208  MOT208     -0.3110
      5  C4        11.1290    4.1210   13.8110 C.2   208  MOT208      0.2236
      6  NA4       10.9490    4.9820   14.8150 N.pl3 208  MOT208     -0.0961
      7  C4A       12.2140    4.1260   13.0340 C.3   208  MOT208      0.1838
      8  C6        13.4340    4.9190   12.9410 C.2   208  MOT208      0.0309
      9  C7        14.0490    4.3270   11.9120 C.2   208  MOT208      0.1762
     10  O8        13.4000    3.3990   11.4150 O.2   208  MOT208     -0.4268
     11  C8A       12.3520    3.2550   12.0410 C.2   208  MOT208      0.2811
     12  C9        13.7940    6.0610   13.8320 C.3   208  MOT208      0.1176
     13  N10       14.8550    7.0270   13.4870 N.pl3 208  MOT208     -0.3020
     14  CM        16.1590    6.7480   14.1330 C.3   208  MOT208      0.1125
     15  C11       14.8320    8.7640    9.7830 C.ar  208  MOT208      0.0551
     16  C12       13.6710    8.4180   10.3940 C.ar  208  MOT208      0.0058
     17  C13       13.6660    7.8770   11.6180 C.ar  208  MOT208      0.0147
     18  C14       14.7990    7.6140   12.2880 C.ar  208  MOT208      0.0481
     19  C15       15.9460    7.9380   11.6640 C.ar  208  MOT208      0.0147
     20  C16       15.9770    8.4980   10.4440 C.ar  208  MOT208      0.0058
     21  C         14.8050    9.3080    8.5550 C.2   208  MOT208      0.2652
     22  O         15.7310    9.9240    8.0560 O.2   208  MOT208     -0.2684
     23  N         13.7020    9.1980    7.7690 N.am  208  MOT208     -0.1918
     24  CA        13.7830   10.2820    6.7300 C.3   208  MOT208      0.1986
     25  CT        12.3920   10.5770    6.2520 C.2   208  MOT208      0.3842
     26  O1        11.4270    9.8690    6.5420 O.co2 208  MOT208     -0.2437
     27  O2        12.1440   11.5870    5.6010 O.co2 208  MOT208     -0.2437
     28  CB        14.8220    9.8530    5.6760 C.3   208  MOT208      0.0451
     29  CG        14.3210    9.5530    4.2580 C.3   208  MOT208      0.1164
     30  CD        14.9090    8.2860    3.6910 C.2   208  MOT208      0.3649
     31  OE1       15.9030    7.7910    4.2070 O.co2 208  MOT208     -0.2457
     32  OE2       14.3630    7.7660    2.7310 O.co2 208  MOT208     -0.2457
@<TRIPOS>BOND
     1    32    30   ar
     2    30    31   ar
     3    30    29    1
     4    29    28    1
     5    27    25   ar
     6    28    24    1
     7    25    26   ar
     8    25    24    1
     9    24    23    1
    10    23    21   am
    11    22    21    2
    12    21    15    1
    13    15    16   ar
    14    15    20   ar
    15    16    17   ar
    16    20    19   ar
    17    10     9    1
    18    10    11    1
    19    17    18   ar
    20    19    18   ar
    21     1    11    2
    22     1     2    2
    23     9     8    2
    24    11     7    1
    25    18    13    1
    26     3     2    1
    27     2     4    2
    28     8     7    1
    29     8    12    1
    30     7     5    1
    31    13    12    1
    32    13    14    1
    33     4     5    2
    34     5     6    1
