@<TRIPOS>MOLECULE
1daj_NDP_A_1.pdb
 48 52 0 0 0
SMALL
GASTEIGER

@<TRIPOS>ATOM
      1  PA        15.6830    9.4500   22.9170 P.3   207  NDP207      0.2189
      2  O1A       15.7660    9.8240   21.4710 O.2   207  NDP207     -0.5170
      3  O2A       14.4360    9.0590   23.5650 O.3   207  NDP207     -0.4371
      4  O5B       16.3020   10.8490   23.6440 O.3   207  NDP207     -0.3112
      5  C5B       16.0740   10.9250   25.1110 C.3   207  NDP207      0.1813
      6  C4B       16.3120   12.4390   25.3710 C.3   207  NDP207      0.1820
      7  O4B       15.3090   13.0560   24.9260 O.3   207  NDP207     -0.3136
      8  C3B       16.2420   12.6460   26.9870 C.3   207  NDP207      0.2157
      9  O3B       17.7110   12.5900   27.3150 O.3   207  NDP207     -0.2175
     10  C2B       15.6990   14.0940   26.8970 C.3   207  NDP207      0.2314
     11  O2B       16.5670   14.9540   26.2900 O.3   207  NDP207     -0.2630
     12  C1B       14.5500   13.8020   25.8920 C.3   207  NDP207      0.3158
     13  N9A       13.4790   13.0340   26.4900 N.pl3 207  NDP207     -0.1439
     14  C8A       13.1240   11.7810   26.1200 C.3   207  NDP207      0.3377
     15  N7A       12.1360   11.2980   26.8340 N.2   207  NDP207     -0.2095
     16  C5A       11.9060   12.4010   27.7340 C.2   207  NDP207      0.2526
     17  C6A       10.8930   12.6330   28.9000 C.2   207  NDP207      0.4393
     18  N6A       10.0270   11.6630   29.2000 N.pl3 207  NDP207      0.2180
     19  N1A       10.9410   13.8160   29.5510 N.2   207  NDP207      0.0021
     20  C2A       11.8820   14.6620   29.0990 C.3   207  NDP207      0.5254
     21  N3A       12.7870   14.5830   28.1440 N.2   207  NDP207     -0.0055
     22  C4A       12.7170   13.4000   27.4900 C.2   207  NDP207      0.3518
     23  O3        16.9450    8.5840   23.2490 O.3   207  NDP207     -0.2703
     24  PN        17.1280    7.2820   24.1390 P.3   207  NDP207      0.2189
     25  O1N       16.1290    7.0450   25.1110 O.3   207  NDP207     -0.4371
     26  O2N       18.5080    7.3270   24.6210 O.2   207  NDP207     -0.5170
     27  O5D       17.2680    6.2940   23.0820 O.3   207  NDP207     -0.3112
     28  C5D       18.1250    6.6970   21.9860 C.3   207  NDP207      0.1813
     29  C4D       18.3340    5.3230   21.3510 C.3   207  NDP207      0.1799
     30  O4D       17.0100    4.8770   20.8280 O.3   207  NDP207     -0.3327
     31  C3D       19.3570    5.2520   20.1800 C.3   207  NDP207      0.2158
     32  O3D       19.9260    3.9060   20.1510 O.3   207  NDP207     -0.2175
     33  C2D       18.3560    5.4730   18.9940 C.3   207  NDP207      0.2309
     34  O2D       18.9480    5.0770   17.8160 O.3   207  NDP207     -0.2158
     35  C1D       17.2360    4.5100   19.4350 C.3   207  NDP207      0.2263
     36  N1N       15.9670    4.6590   18.5800 N.pl3 207  NDP207     -0.2787
     37  C2N       15.3070    3.5510   17.9700 C.3   207  NDP207      0.1244
     38  C3N       14.2350    3.8050   17.2120 C.2   207  NDP207      0.0544
     39  C7N       13.5070    2.6850   16.5430 C.2   207  NDP207      0.2818
     40  O7N       12.5400    3.0470   15.8940 O.2   207  NDP207     -0.2670
     41  N7N       13.8870    1.4020   16.6490 N.am  207  NDP207     -0.0839
     42  C4N       13.6600    5.2300   16.9600 C.2   207  NDP207      0.0033
     43  C5N       14.4630    6.2700   17.6780 C.2   207  NDP207      0.0157
     44  C6N       15.5220    5.9710   18.4070 C.2   207  NDP207      0.0633
     45  P2B       17.5360   15.9490   27.3180 P.3   207  NDP207      0.5328
     46  O1X       16.8590   15.7100   28.6580 O.3   207  NDP207     -0.1145
     47  O2X       17.2410   17.2450   26.7420 O.2   207  NDP207     -0.2224
     48  O3X       18.8620   15.3030   27.2960 O.3   207  NDP207     -0.1145
@<TRIPOS>BOND
     1    40    39    2
     2    39    41   am
     3    39    38    1
     4    42    38    2
     5    42    43    1
     6    38    37    1
     7    43    44    2
     8    34    33    1
     9    37    36    1
    10    44    36    1
    11    36    35    1
    12    33    35    1
    13    33    31    1
    14    35    30    1
    15    32    31    1
    16    31    29    1
    17    30    29    1
    18    29    28    1
    19     2     1    2
    20    28    27    1
    21     1    23    1
    22     1     3    1
    23     1     4    1
    24    27    24    1
    25    23    24    1
    26     4     5    1
    27    24    26    2
    28    24    25    1
    29     7     6    1
    30     7    12    1
    31     5     6    1
    32     6     8    1
    33    12    13    1
    34    12    10    1
    35    14    13    1
    36    14    15    1
    37    11    10    1
    38    11    45    1
    39    13    22    1
    40    47    45    2
    41    15    16    2
    42    10     8    1
    43     8     9    1
    44    48    45    1
    45    45    46    1
    46    22    16    1
    47    22    21    2
    48    16    17    1
    49    21    20    1
    50    17    18    1
    51    17    19    2
    52    20    19    1
