@<TRIPOS>MOLECULE
1dak_ADP_A_1.pdb
 27 29 0 0 0
SMALL
GASTEIGER

@<TRIPOS>ATOM
      1  PB         3.9470   23.2950   10.9100 P.3   802  ADP802      0.5373
      2  O1B        4.0950   24.3530    9.9150 O.2   802  ADP802     -0.2221
      3  O2B        2.6170   22.6450   11.0480 O.3   802  ADP802     -0.1143
      4  O3B        4.3790   23.5840   12.4190 O.3   802  ADP802     -0.1143
      5  PA         5.8020   20.9600   11.6230 P.3   802  ADP802      0.2231
      6  O1A        4.8350   20.4140   12.6410 O.3   802  ADP802     -0.4370
      7  O2A        7.0830   21.4880   12.1590 O.2   802  ADP802     -0.5169
      8  O3A        5.0260   22.0890   10.5920 O.3   802  ADP802     -0.2261
      9  O5'        6.1480   19.8310   10.4490 O.3   802  ADP802     -0.3111
     10  C5'        5.0130   19.2500    9.7000 C.3   802  ADP802      0.1813
     11  C4'        5.2690   17.7480    9.5740 C.3   802  ADP802      0.1821
     12  O4'        6.4620   17.5660    8.7960 O.3   802  ADP802     -0.3135
     13  C3'        5.5490   17.0790   10.9180 C.3   802  ADP802      0.2184
     14  O3'        5.0810   15.7070   10.9620 O.3   802  ADP802     -0.2174
     15  C2'        7.0740   17.1330   11.0770 C.3   802  ADP802      0.2570
     16  O2'        7.5530   16.0930   11.9570 O.3   802  ADP802     -0.2130
     17  C1'        7.5170   16.9600    9.6240 C.3   802  ADP802      0.3186
     18  N9         8.8360   17.6910    9.4180 N.pl3 802  ADP802     -0.1439
     19  C8         8.9770   19.0140    9.5170 C.3   802  ADP802      0.3377
     20  N7        10.2010   19.3510    9.1310 N.2   802  ADP802     -0.2095
     21  C5        10.9070   18.2520    8.9070 C.2   802  ADP802      0.2526
     22  C6        12.2250   18.0450    8.4880 C.2   802  ADP802      0.4393
     23  N6        13.0730   19.0550    8.2540 N.pl3 802  ADP802      0.2180
     24  N1        12.5180   16.7970    8.0840 N.2   802  ADP802      0.0021
     25  C2        11.6100   15.8240    8.0660 C.3   802  ADP802      0.5254
     26  N3        10.4100   15.9450    8.6580 N.2   802  ADP802     -0.0055
     27  C4        10.0110   17.1980    8.9740 C.2   802  ADP802      0.3518
@<TRIPOS>BOND
     1    25    24    1
     2    25    26    1
     3    24    22    2
     4    23    22    1
     5    22    21    1
     6    26    27    2
     7    12    11    1
     8    12    17    1
     9    21    27    1
    10    21    20    2
    11    27    18    1
    12    20    19    1
    13    18    19    1
    14    18    17    1
    15    11    10    1
    16    11    13    1
    17    17    15    1
    18    10     9    1
    19     2     1    2
    20     9     5    1
    21     8     1    1
    22     8     5    1
    23     1     3    1
    24     1     4    1
    25    13    14    1
    26    13    15    1
    27    15    16    1
    28     5     7    2
    29     5     6    1
