@<TRIPOS>MOLECULE
1dak_DPU_A_1.pdb
 20 19 0 0 0
SMALL
GASTEIGER

@<TRIPOS>ATOM
      1  CA        -6.4350   28.1630    8.4870 C.3   801  DPU801      0.1141
      2  C         -6.5350   28.3100    6.9530 C.2   801  DPU801      0.3649
      3  OI1       -7.2800   27.5180    6.3160 O.co2 801  DPU801     -0.2457
      4  OI2       -5.7440   29.1290    6.4370 O.co2 801  DPU801     -0.2457
      5  CB        -5.6780   26.8360    8.7570 C.3   801  DPU801      0.0118
      6  CG        -5.4060   26.6260   10.2510 C.3   801  DPU801      0.0006
      7  CD        -4.4900   25.4330   10.6050 C.3   801  DPU801      0.0018
      8  CE        -4.3020   25.3440   12.1480 C.3   801  DPU801      0.0233
      9  CZ        -3.3690   24.2480   12.5770 C.3   801  DPU801      0.1162
     10  CH        -3.3590   22.8410   11.9540 C.3   801  DPU801      0.1118
     11  CS        -4.6360   22.1000   12.3940 C.3   801  DPU801      0.0223
     12  N1        -3.3930   24.3390   14.2770 N.am  801  DPU801     -0.1687
     13  N2        -2.2240   22.0790   12.6070 N.3   801  DPU801     -0.1311
     14  CN1       -2.1340   24.5580   14.8570 C.2   801  DPU801      0.4280
     15  O12       -2.2040   24.6280   16.1400 O.2   801  DPU801     -0.2242
     16  O2B        1.5800   24.9120   13.3280 O.3   801  DPU801     -0.1038
     17  PB         0.3090   24.6070   12.7150 P.3   801  DPU801      0.5917
     18  O1B       -0.7830   25.2810   14.0320 O.3   801  DPU801     -0.3522
     19  O3B        0.0730   23.1530   12.8030 O.3   801  DPU801     -0.1038
     20  O2A        0.1650   25.2210   11.3100 O.2   801  DPU801     -0.2114
@<TRIPOS>BOND
     1     3     2   ar
     2     4     2   ar
     3     2     1    1
     4     1     5    1
     5     5     6    1
     6     6     7    1
     7     7     8    1
     8    20    17    2
     9    10    11    1
    10    10     9    1
    11    10    13    1
    12     8     9    1
    13     9    12    1
    14    17    19    1
    15    17    16    1
    16    17    18    1
    17    18    14    1
    18    12    14   am
    19    14    15    2
