@<TRIPOS>MOLECULE
1dam_ADP_A_1.pdb
 27 29 0 0 0
SMALL
GASTEIGER

@<TRIPOS>ATOM
      1  PB         3.8800   23.1940   11.0760 P.3   801  ADP801      0.5373
      2  O1B        4.0990   24.2640   10.0920 O.2   801  ADP801     -0.2221
      3  O2B        4.3520   23.4490   12.5640 O.3   801  ADP801     -0.1143
      4  O3B        2.5290   22.6320   11.2130 O.3   801  ADP801     -0.1143
      5  PA         5.8350   20.9610   11.7430 P.3   801  ADP801      0.2231
      6  O1A        4.8940   20.3490   12.7440 O.3   801  ADP801     -0.4370
      7  O2A        7.0990   21.5420   12.2570 O.2   801  ADP801     -0.5169
      8  O3A        4.9400   21.9810   10.7090 O.3   801  ADP801     -0.2261
      9  O5'        6.2650   19.8460   10.5530 O.3   801  ADP801     -0.3111
     10  C5'        5.2020   19.1930    9.7750 C.3   801  ADP801      0.1813
     11  C4'        5.4530   17.6950    9.6260 C.3   801  ADP801      0.1821
     12  O4'        6.6430   17.4980    8.8430 O.3   801  ADP801     -0.3135
     13  C3'        5.7100   17.0010   10.9650 C.3   801  ADP801      0.2184
     14  O3'        5.3100   15.6070   10.9460 O.3   801  ADP801     -0.2174
     15  C2'        7.2290   17.1110   11.1640 C.3   801  ADP801      0.2570
     16  O2'        7.6960   16.0730   12.0800 O.3   801  ADP801     -0.2130
     17  C1'        7.6920   16.9200    9.7120 C.3   801  ADP801      0.3186
     18  N9         8.9990   17.6890    9.5430 N.pl3 801  ADP801     -0.1439
     19  C8         9.0870   19.0220    9.4840 C.3   801  ADP801      0.3377
     20  N7        10.3460   19.3620    9.2400 N.2   801  ADP801     -0.2095
     21  C5        11.0380   18.2610    8.9760 C.2   801  ADP801      0.2526
     22  C6        12.3770   18.0340    8.6580 C.2   801  ADP801      0.4393
     23  N6        13.1650   19.0460    8.2980 N.pl3 801  ADP801      0.2180
     24  N1        12.6770   16.7880    8.2290 N.2   801  ADP801      0.0021
     25  C2        11.7360   15.8510    8.1320 C.3   801  ADP801      0.5254
     26  N3        10.4720   15.9880    8.5430 N.2   801  ADP801     -0.0055
     27  C4        10.0950   17.2460    8.8700 C.2   801  ADP801      0.3518
@<TRIPOS>BOND
     1    25    24    1
     2    25    26    1
     3    24    22    2
     4    23    22    1
     5    26    27    2
     6    22    21    1
     7    12    11    1
     8    12    17    1
     9    27    21    1
    10    27    18    1
    11    21    20    2
    12    20    19    1
    13    19    18    1
    14    18    17    1
    15    11    10    1
    16    11    13    1
    17    17    15    1
    18    10     9    1
    19     2     1    2
    20     9     5    1
    21     8     1    1
    22     8     5    1
    23    14    13    1
    24    13    15    1
    25     1     4    1
    26     1     3    1
    27    15    16    1
    28     5     7    2
    29     5     6    1
