@<TRIPOS>MOLECULE
1dam_DTB_A_1.pdb
 15 15 0 0 0
SMALL
GASTEIGER

@<TRIPOS>ATOM
      1  CN        -3.1450   22.4880   13.0060 C.1   803  DTB803      0.2386
      2  O         -2.2720   21.7590   13.4940 O.2   803  DTB803     -0.2023
      3  N2        -3.1290   23.0530   11.7590 N.2   803  DTB803     -0.1869
      4  CR        -4.3800   23.7430   11.5100 C.3   803  DTB803      0.1393
      5  CS        -4.7770   24.0400   13.0080 C.3   803  DTB803      0.1394
      6  N1        -4.2750   22.8450   13.6390 N.2   803  DTB803     -0.1869
      7  CT        -4.3150   25.3550   13.6960 C.3   803  DTB803      0.0293
      8  CE        -4.2170   25.0700   10.6790 C.3   803  DTB803      0.0272
      9  CD        -5.5780   25.6920   10.3170 C.3   803  DTB803      0.0021
     10  CG        -5.6410   26.7840    9.2670 C.3   803  DTB803      0.0006
     11  CB        -6.9020   27.6040    9.4220 C.3   803  DTB803      0.0118
     12  CA        -6.9640   28.6890    8.3180 C.3   803  DTB803      0.1141
     13  C         -6.7120   28.1880    6.8290 C.2   803  DTB803      0.3649
     14  OI1       -7.3650   27.2190    6.3800 O.co2 803  DTB803     -0.2457
     15  OI2       -5.7990   28.7430    6.2050 O.co2 803  DTB803     -0.2457
@<TRIPOS>BOND
     1    15    13   ar
     2    14    13   ar
     3    13    12    1
     4    12    11    1
     5    10    11    1
     6    10     9    1
     7     9     8    1
     8     8     4    1
     9     4     3    1
    10     4     5    1
    11     3     1    2
    12     1     2    2
    13     1     6    2
    14     5     6    1
    15     5     7    1
