@<TRIPOS>MOLECULE
1dan_0Z6_H_1.pdb
 34 35 0 0 0
SMALL
GASTEIGER

@<TRIPOS>ATOM
      1  N         34.6920    5.1470   11.8860 N.3     1  0Z61       -0.1227
      2  CA        34.6480    5.6920   10.5090 C.3     1  0Z61        0.1736
      3  C         33.8820    7.0170   10.4670 C.2     1  0Z61        0.2595
      4  O         33.5610    7.5960   11.5140 O.2     1  0Z61       -0.2718
      5  CB        36.0670    5.8860    9.9980 C.3     1  0Z61        0.0547
      6  CG        36.9300    6.7030   10.9090 C.ar    1  0Z61       -0.0202
      7  CD1       37.7670    6.0830   11.8270 C.ar    1  0Z61       -0.0042
      8  CD2       36.9210    8.0950   10.8380 C.ar    1  0Z61       -0.0042
      9  CE1       38.5840    6.8330   12.6610 C.ar    1  0Z61       -0.0003
     10  CE2       37.7320    8.8570   11.6660 C.ar    1  0Z61       -0.0003
     11  CZ        38.5660    8.2240   12.5780 C.ar    1  0Z61       -0.0000
     12  N1        33.6000    7.4850    9.2540 N.am    1  0Z61       -0.1962
     13  CA1       32.8440    8.7110    9.0420 C.3     1  0Z61        0.1771
     14  C1        31.4130    8.2500    8.9960 C.2     1  0Z61        0.2616
     15  O1        31.1130    7.2200    8.4000 O.2     1  0Z61       -0.2715
     16  CB1       33.2330    9.3750    7.7130 C.3     1  0Z61        0.0574
     17  CG1       34.6150    9.9260    7.7140 C.ar    1  0Z61       -0.0200
     18 CD11       34.8670   11.1850    8.2510 C.ar    1  0Z61       -0.0042
     19 CD21       35.6800    9.1760    7.2210 C.ar    1  0Z61       -0.0042
     20 CE11       36.1570   11.6880    8.3020 C.ar    1  0Z61       -0.0003
     21 CE21       36.9790    9.6750    7.2690 C.ar    1  0Z61       -0.0003
     22  CZ1       37.2170   10.9330    7.8110 C.ar    1  0Z61       -0.0000
     23  N2        30.5280    9.0060    9.6230 N.am    1  0Z61       -0.2031
     24  CA2       29.1350    8.6260    9.6600 C.3     1  0Z61        0.1257
     25  C2        28.2180    9.4520    8.7630 C.3     1  0Z61        0.1718
     26  O2        27.2430    8.7100    8.5470 O.3     1  0Z61       -0.2213
     27  CB2       28.6590    8.6610   11.1180 C.3     1  0Z61        0.0280
     28  CG2       29.5010    7.7810   12.0320 C.3     1  0Z61        0.0488
     29  CD        29.1460    7.9830   13.4970 C.3     1  0Z61        0.2205
     30  NE        29.8790    7.0230   14.3150 N.pl3   1  0Z61       -0.0865
     31  CZ2       29.8000    6.9270   15.6400 C.cat   1  0Z61        0.5346
     32  NH1       29.0170    7.7400   16.3330 N.pl3   1  0Z61        0.1354
     33  NH2       30.5120    6.0020   16.2690 N.pl3   1  0Z61        0.1354
     34  C3        28.7580    9.9120    7.3580 C.3     1  0Z61        0.0373
@<TRIPOS>BOND
     1    19    21   ar
     2    19    17   ar
     3    21    22   ar
     4    34    25    1
     5    16    17    1
     6    16    13    1
     7    17    18   ar
     8    22    20   ar
     9    18    20   ar
    10    15    14    2
    11    26    25    1
    12    25    24    1
    13    14    13    1
    14    14    23   am
    15    13    12    1
    16    12     3   am
    17    23    24    1
    18    24    27    1
    19     5     2    1
    20     5     6    1
    21     3     2    1
    22     3     4    2
    23     2     1    1
    24     8     6   ar
    25     8    10   ar
    26     6     7   ar
    27    27    28    1
    28    10    11   ar
    29     7     9   ar
    30    28    29    1
    31    11     9   ar
    32    29    30    1
    33    30    31    2
    34    31    33    1
    35    31    32    1
