@<TRIPOS>MOLECULE
1dan_FUC_L_1.pdb
 10 10 0 0 0
SMALL
GASTEIGER

@<TRIPOS>ATOM
      1  C1        21.4200   31.7660   64.4510 C.3   154  FUC154      0.1776
      2  C2        20.4440   32.9130   64.8810 C.3   154  FUC154      0.2141
      3  C3        20.3420   33.9800   63.7620 C.3   154  FUC154      0.2172
      4  C4        19.9480   33.2800   62.4390 C.3   154  FUC154      0.2116
      5  C5        20.9890   32.1780   62.1560 C.3   154  FUC154      0.1483
      6  C6        20.8040   31.5160   60.7930 C.3   154  FUC154      0.0349
      7  O2        20.8420   33.4900   66.1290 O.3   154  FUC154     -0.2176
      8  O3        19.4660   35.0720   64.1090 O.3   154  FUC154     -0.2175
      9  O4        18.6420   32.6980   62.5280 O.3   154  FUC154     -0.2177
     10  O5        21.0070   31.1970   63.2120 O.3   154  FUC154     -0.3508
@<TRIPOS>BOND
     1     6     5    1
     2     5     4    1
     3     5    10    1
     4     4     9    1
     5     4     3    1
     6    10     1    1
     7     3     8    1
     8     3     2    1
     9     1     2    1
    10     2     7    1
