@<TRIPOS>MOLECULE
1dan_BGC_L_1.pdb
 11 11 0 0 0
SMALL
GASTEIGER

@<TRIPOS>ATOM
      1  C2        38.1360   35.2600   62.6830 C.3   153  BGC153      0.2141
      2  C3        38.5330   34.1740   61.6340 C.3   153  BGC153      0.2173
      3  C4        39.2780   32.9660   62.2610 C.3   153  BGC153      0.2142
      4  C5        38.5560   32.4630   63.5260 C.3   153  BGC153      0.1810
      5  C6        39.4740   31.5420   64.3690 C.3   153  BGC153      0.2141
      6  C1        37.3930   34.5930   63.8700 C.3   153  BGC153      0.1777
      7  O2        37.3280   36.2610   62.0450 O.3   153  BGC153     -0.2176
      8  O3        39.3030   34.7500   60.5740 O.3   153  BGC153     -0.2175
      9  O4        39.5350   31.8790   61.3280 O.3   153  BGC153     -0.2176
     10  O5        38.1620   33.5220   64.3790 O.3   153  BGC153     -0.3481
     11  O6        40.6070   32.2120   64.9930 O.3   153  BGC153     -0.2176
@<TRIPOS>BOND
     1     8     2    1
     2     9     3    1
     3     2     3    1
     4     2     1    1
     5     7     1    1
     6     3     4    1
     7     1     6    1
     8     4     5    1
     9     4    10    1
    10     6    10    1
    11     5    11    1
