@<TRIPOS>MOLECULE
1dap_NDP_A_1.pdb
 48 52 0 0 0
SMALL
GASTEIGER

@<TRIPOS>ATOM
      1  PA        -4.4080   61.5640    8.0750 P.3   400  NDP400      0.2189
      2  O1A       -4.6650   62.2760    9.3620 O.3   400  NDP400     -0.4371
      3  O2A       -5.4520   61.4700    7.0220 O.2   400  NDP400     -0.5170
      4  O5B       -3.2230   62.3020    7.2990 O.3   400  NDP400     -0.3112
      5  C5B       -2.4770   61.7390    6.2530 C.3   400  NDP400      0.1813
      6  C4B       -1.8810   62.8050    5.3530 C.3   400  NDP400      0.1820
      7  O4B       -2.9660   63.6440    4.8880 O.3   400  NDP400     -0.3136
      8  C3B       -0.8630   63.7530    5.9760 C.3   400  NDP400      0.2157
      9  O3B        0.4720   63.2830    5.8930 O.3   400  NDP400     -0.2175
     10  C2B       -1.1030   65.1000    5.2520 C.3   400  NDP400      0.2314
     11  O2B       -0.1900   65.3130    4.2030 O.3   400  NDP400     -0.2630
     12  C1B       -2.5050   64.9470    4.6460 C.3   400  NDP400      0.3158
     13  N9A       -3.4880   65.8070    5.2840 N.pl3 400  NDP400     -0.1439
     14  C8A       -3.7410   65.7250    6.6260 C.3   400  NDP400      0.3377
     15  N7A       -4.6120   66.6120    7.0570 N.2   400  NDP400     -0.2095
     16  C5A       -5.0150   67.2370    5.8760 C.2   400  NDP400      0.2526
     17  C6A       -5.9320   68.2820    5.6440 C.2   400  NDP400      0.4393
     18  N6A       -6.6020   68.7930    6.6770 N.pl3 400  NDP400      0.2180
     19  N1A       -6.1180   68.6700    4.3740 N.2   400  NDP400      0.0021
     20  C2A       -5.4270   68.1790    3.3360 C.3   400  NDP400      0.5254
     21  N3A       -4.4780   67.1540    3.4730 N.2   400  NDP400     -0.0055
     22  C4A       -4.3220   66.7780    4.7780 C.2   400  NDP400      0.3518
     23  O3        -3.9460   60.2240    8.6140 O.3   400  NDP400     -0.2703
     24  PN        -3.2390   59.8250    9.8640 P.3   400  NDP400      0.2189
     25  O1N       -4.2570   59.5510   10.8670 O.3   400  NDP400     -0.4371
     26  O2N       -2.1750   60.7790   10.2730 O.2   400  NDP400     -0.5170
     27  O5D       -2.6250   58.3580    9.6210 O.3   400  NDP400     -0.3112
     28  C5D       -1.5320   58.0990    8.7170 C.3   400  NDP400      0.1813
     29  C4D       -1.2900   56.5910    8.6160 C.3   400  NDP400      0.1799
     30  O4D       -0.9490   56.0650    9.9400 O.3   400  NDP400     -0.3327
     31  C3D       -2.4030   55.7530    7.9780 C.3   400  NDP400      0.2158
     32  O3D       -2.3570   55.4620    6.5660 O.3   400  NDP400     -0.2175
     33  C2D       -2.3010   54.5370    8.9330 C.3   400  NDP400      0.2309
     34  O2D       -2.4470   53.2540    8.3060 O.3   400  NDP400     -0.2158
     35  C1D       -1.0480   54.6400    9.8040 C.3   400  NDP400      0.2263
     36  N1N       -1.2870   54.0050   11.1090 N.pl3 400  NDP400     -0.2787
     37  C2N       -0.6080   52.8200   11.4480 C.3   400  NDP400      0.1244
     38  C3N       -0.7260   52.2250   12.6670 C.2   400  NDP400      0.0544
     39  C7N        0.0290   51.0620   13.0150 C.2   400  NDP400      0.2818
     40  O7N       -0.2150   50.4550   14.2610 O.2   400  NDP400     -0.2670
     41  N7N        0.9030   50.5900   12.1170 N.am  400  NDP400     -0.0839
     42  C4N       -1.6800   52.7690   13.5330 C.2   400  NDP400      0.0033
     43  C5N       -2.3250   53.9700   13.2760 C.2   400  NDP400      0.0157
     44  C6N       -2.1100   54.5870   12.0160 C.2   400  NDP400      0.0633
     45  P2B        0.3730   66.7980    3.9230 P.3   400  NDP400      0.5328
     46  O1X       -0.8310   67.6100    3.6280 O.3   400  NDP400     -0.1145
     47  O2X        0.9770   67.2500    5.2180 O.3   400  NDP400     -0.1145
     48  O3X        1.4160   66.5720    2.8680 O.2   400  NDP400     -0.2224
@<TRIPOS>BOND
     1    48    45    2
     2    20    21    1
     3    20    19    1
     4    21    22    2
     5    46    45    1
     6    45    11    1
     7    45    47    1
     8    11    10    1
     9    19    17    2
    10    12     7    1
    11    12    10    1
    12    12    13    1
    13    22    13    1
    14    22    16    1
    15     7     6    1
    16    10     8    1
    17    13    14    1
    18     6     8    1
    19     6     5    1
    20    17    16    1
    21    17    18    1
    22    16    15    2
    23     9     8    1
    24     5     4    1
    25    32    31    1
    26    14    15    1
    27     3     1    2
    28     4     1    1
    29    31    29    1
    30    31    33    1
    31     1    23    1
    32     1     2    1
    33    34    33    1
    34    23    24    1
    35    29    28    1
    36    29    30    1
    37    28    27    1
    38    33    35    1
    39    27    24    1
    40    35    30    1
    41    35    36    1
    42    24    26    2
    43    24    25    1
    44    36    37    1
    45    36    44    1
    46    37    38    1
    47    44    43    2
    48    41    39   am
    49    38    39    1
    50    38    42    2
    51    39    40    2
    52    43    42    1
