@<TRIPOS>MOLECULE
1dar_GDP_A_1.pdb
 28 30 0 0 0
SMALL
GASTEIGER

@<TRIPOS>ATOM
      1  PB        35.7410   31.4950  -20.3320 P.3   692  GDP692      0.5373
      2  O1B       35.3560   30.9410  -19.0810 O.3   692  GDP692     -0.1143
      3  O2B       34.9090   32.8600  -20.2240 O.3   692  GDP692     -0.1143
      4  O3B       37.2680   32.1210  -20.2260 O.2   692  GDP692     -0.2221
      5  O3A       35.7000   30.2100  -21.1350 O.3   692  GDP692     -0.2261
      6  PA        34.8250   29.0000  -20.7480 P.3   692  GDP692      0.2231
      7  O1A       35.1090   27.8550  -21.6280 O.2   692  GDP692     -0.5169
      8  O2A       33.3410   29.4680  -21.1300 O.3   692  GDP692     -0.4370
      9  O5'       35.0240   28.4330  -19.3460 O.3   692  GDP692     -0.3111
     10  C5'       36.2230   27.7480  -19.0200 C.3   692  GDP692      0.1813
     11  C4'       36.0010   26.3540  -18.3910 C.3   692  GDP692      0.1799
     12  O4'       34.8460   26.4250  -17.4920 O.3   692  GDP692     -0.3326
     13  C3'       35.5630   25.2440  -19.3540 C.3   692  GDP692      0.2158
     14  O3'       36.1290   24.0060  -18.9520 O.3   692  GDP692     -0.2175
     15  C2'       34.0860   25.0510  -19.2280 C.3   692  GDP692      0.2310
     16  O2'       33.9030   23.6980  -19.7550 O.3   692  GDP692     -0.2158
     17  C1'       33.8870   25.3170  -17.6850 C.3   692  GDP692      0.2293
     18  N9        32.4850   25.7790  -17.3580 N.pl3 692  GDP692     -0.2354
     19  C8        31.7450   26.8440  -17.8090 C.3   692  GDP692      0.2246
     20  N7        30.5160   26.8870  -17.4130 N.2   692  GDP692     -0.2322
     21  C5        30.4760   25.7440  -16.6330 C.2   692  GDP692      0.2182
     22  C6        29.4180   25.2200  -15.8950 C.1   692  GDP692      0.2372
     23  O6        28.2430   25.5910  -15.8340 O.2   692  GDP692     -0.2069
     24  N1        29.8050   24.1250  -15.2310 N.2   692  GDP692     -0.2485
     25  C2        31.0300   23.5810  -15.2490 C.1   692  GDP692      0.2531
     26  N2        31.2110   22.5370  -14.4460 N.pl3 692  GDP692     -0.0226
     27  N3        32.0300   24.0360  -15.9430 N.2   692  GDP692     -0.3074
     28  C4        31.6650   25.1070  -16.5990 C.2   692  GDP692      0.2300
@<TRIPOS>BOND
     1     7     6    2
     2     5     6    1
     3     5     1    1
     4     8     6    1
     5     6     9    1
     6     1     4    2
     7     1     3    1
     8     1     2    1
     9    16    15    1
    10    13    15    1
    11    13    14    1
    12    13    11    1
    13     9    10    1
    14    15    17    1
    15    10    11    1
    16    11    12    1
    17    19    20    1
    18    19    18    1
    19    17    12    1
    20    17    18    1
    21    20    21    2
    22    18    28    1
    23    21    28    1
    24    21    22    1
    25    28    27    2
    26    27    25    2
    27    22    23    2
    28    22    24    2
    29    25    24    2
    30    25    26    1
