@<TRIPOS>MOLECULE
1daw_ANP_A_1.pdb
 31 33 0 0 0
SMALL
GASTEIGER

@<TRIPOS>ATOM
      1  PG        26.2290   -0.2570   15.9220 P.3   340  ANP340      0.4884
      2  O1G       24.7800   -0.3780   15.9690 O.3   340  ANP340     -0.1240
      3  O2G       26.8310   -1.4320   16.7520 O.3   340  ANP340     -0.1240
      4  O3G       26.7510   -0.5060   14.5540 O.2   340  ANP340     -0.2331
      5  PB        27.3310    2.4030   15.9110 P.3   340  ANP340      0.4669
      6  O1B       28.3280    2.9760   16.8180 O.3   340  ANP340     -0.1253
      7  O2B       27.7240    2.7960   14.4900 O.2   340  ANP340     -0.2351
      8  N3B       26.8840    1.0240   16.4870 N.3   340  ANP340     -0.0163
      9  PA        24.9810    4.0640   16.6750 P.3   340  ANP340      0.2220
     10  O1A       24.8290    5.3300   15.9240 O.2   340  ANP340     -0.5170
     11  O2A       23.8330    3.1320   16.5910 O.3   340  ANP340     -0.4370
     12  O3A       26.0490    3.0270   16.3450 O.3   340  ANP340     -0.2360
     13  O5'       25.3000    4.4290   18.1700 O.3   340  ANP340     -0.3111
     14  C5'       25.0620    3.5340   19.2810 C.3   340  ANP340      0.1813
     15  C4'       24.0010    3.9300   20.2590 C.3   340  ANP340      0.1821
     16  O4'       24.0890    5.3610   20.4580 O.3   340  ANP340     -0.3135
     17  C3'       22.5520    3.6960   19.8520 C.3   340  ANP340      0.2184
     18  O3'       22.2640    2.2520   19.8610 O.3   340  ANP340     -0.2174
     19  C2'       21.8590    4.6720   20.8050 C.3   340  ANP340      0.2570
     20  O2'       21.5630    4.2330   22.1370 O.3   340  ANP340     -0.2130
     21  C1'       22.8830    5.8450   20.9140 C.3   340  ANP340      0.3186
     22  N9        22.4340    6.9830   20.1150 N.pl3 340  ANP340     -0.1439
     23  C8        22.8510    7.2340   18.8490 C.3   340  ANP340      0.3377
     24  N7        22.3410    8.2370   18.2410 N.2   340  ANP340     -0.2095
     25  C5        21.5040    8.7020   19.1480 C.2   340  ANP340      0.2526
     26  C6        20.6710    9.7880   19.0390 C.2   340  ANP340      0.4393
     27  N6        20.5530   10.5620   17.9660 N.pl3 340  ANP340      0.2180
     28  N1        19.8990   10.0580   20.1020 N.2   340  ANP340      0.0021
     29  C2        19.9760    9.2960   21.2350 C.3   340  ANP340      0.5254
     30  N3        20.7440    8.2530   21.4010 N.2   340  ANP340     -0.0055
     31  C4        21.4960    7.9780   20.3220 C.2   340  ANP340      0.3518
@<TRIPOS>BOND
     1     7     5    2
     2     4     1    2
     3     5    12    1
     4     5     8    1
     5     5     6    1
     6     1     2    1
     7     1     8    1
     8     1     3    1
     9    10     9    2
    10    12     9    1
    11    11     9    1
    12     9    13    1
    13    27    26    1
    14    13    14    1
    15    24    23    1
    16    24    25    2
    17    23    22    1
    18    26    25    1
    19    26    28    2
    20    25    31    1
    21    14    15    1
    22    17    18    1
    23    17    15    1
    24    17    19    1
    25    28    29    1
    26    22    31    1
    27    22    21    1
    28    15    16    1
    29    31    30    2
    30    16    21    1
    31    19    21    1
    32    19    20    1
    33    29    30    1
