@<TRIPOS>MOLECULE
1day_GNP_A_1.pdb
 32 34 0 0 0
SMALL
GASTEIGER

@<TRIPOS>ATOM
      1  PG        26.0150   -0.3580   16.1130 P.3   340  GNP340      0.4884
      2  O1G       24.5700   -0.4240   16.1380 O.3   340  GNP340     -0.1240
      3  O2G       26.5970   -1.5700   16.8100 O.3   340  GNP340     -0.1240
      4  O3G       26.5020   -0.5280   14.6840 O.2   340  GNP340     -0.2331
      5  N3B       26.7630    0.8800   16.6640 N.3   340  GNP340     -0.0163
      6  PB        27.0570    2.3500   16.1620 P.3   340  GNP340      0.4669
      7  O1B       28.1440    2.8910   16.9740 O.3   340  GNP340     -0.1253
      8  O2B       27.3610    2.7890   14.7600 O.2   340  GNP340     -0.2351
      9  O3A       25.8850    2.8720   17.0110 O.3   340  GNP340     -0.2360
     10  PA        24.7210    3.8980   17.0240 P.3   340  GNP340      0.2220
     11  O1A       24.4780    5.1750   16.2800 O.2   340  GNP340     -0.5170
     12  O2A       23.5660    2.9920   16.8660 O.3   340  GNP340     -0.4370
     13  O5'       24.9380    4.3570   18.5120 O.3   340  GNP340     -0.3111
     14  C5'       24.7840    3.4590   19.5980 C.3   340  GNP340      0.1813
     15  C4'       23.7470    3.6940   20.6500 C.3   340  GNP340      0.1799
     16  O4'       23.8710    5.0260   21.1820 O.3   340  GNP340     -0.3326
     17  C3'       22.2960    3.5420   20.2290 C.3   340  GNP340      0.2158
     18  O3'       21.9680    2.1390   20.0710 O.3   340  GNP340     -0.2175
     19  C2'       21.6430    4.2400   21.4370 C.3   340  GNP340      0.2310
     20  O2'       21.3400    3.3240   22.4910 O.3   340  GNP340     -0.2158
     21  C1'       22.6890    5.3320   21.8160 C.3   340  GNP340      0.2293
     22  N9        22.1240    6.5320   21.2270 N.pl3 340  GNP340     -0.2354
     23  C8        22.2440    6.9130   19.9380 C.3   340  GNP340      0.2246
     24  N7        21.6240    7.9770   19.6000 N.2   340  GNP340     -0.2322
     25  C5        21.0050    8.2870   20.7170 C.2   340  GNP340      0.2182
     26  C6        20.1690    9.3500   20.9390 C.1   340  GNP340      0.2372
     27  O6        19.8750   10.2020   19.9730 O.2   340  GNP340     -0.2069
     28  N1        19.6680    9.4810   22.1730 N.2   340  GNP340     -0.2485
     29  C2        20.0070    8.5550   23.1450 C.1   340  GNP340      0.2531
     30  N2        19.4120    8.8850   24.2610 N.pl3 340  GNP340     -0.0226
     31  N3        20.7820    7.5120   23.0390 N.2   340  GNP340     -0.3074
     32  C4        21.2530    7.4460   21.7750 C.2   340  GNP340      0.2300
@<TRIPOS>BOND
     1     4     1    2
     2     8     6    2
     3     1     2    1
     4     1     5    1
     5     1     3    1
     6     6     5    1
     7     6     7    1
     8     6     9    1
     9    11    10    2
    10    12    10    1
    11     9    10    1
    12    10    13    1
    13    13    14    1
    14    14    15    1
    15    24    23    1
    16    24    25    2
    17    23    22    1
    18    27    26    2
    19    18    17    1
    20    17    15    1
    21    17    19    1
    22    15    16    1
    23    25    26    1
    24    25    32    1
    25    26    28    2
    26    16    21    1
    27    22    32    1
    28    22    21    1
    29    19    21    1
    30    19    20    1
    31    32    31    2
    32    28    29    2
    33    31    29    2
    34    29    30    1
