@<TRIPOS>MOLECULE
1db1_VDX_A_1.pdb
 30 32 0 0 0
SMALL
GASTEIGER

@<TRIPOS>ATOM
      1  O2        17.0290   18.0710   34.8190 O.3   428  VDX428     -0.2227
      2  O3         4.4890   26.9460   35.0540 O.3   428  VDX428     -0.2257
      3  C1        14.1390   17.9530   35.7550 C.3   428  VDX428      0.1765
      4  C2        14.8790   16.8930   34.8950 C.3   428  VDX428      0.0707
      5  C3        15.9920   17.5340   33.9620 C.3   428  VDX428      0.1592
      6  C4        15.3680   18.6720   33.0490 C.3   428  VDX428      0.0591
      7  C5        14.6220   19.7240   33.8640 C.2   428  VDX428     -0.0213
      8  C6        14.7970   21.1200   33.7920 C.2   428  VDX428     -0.0051
      9  C7        14.1740   22.2860   34.5140 C.2   428  VDX428     -0.0088
     10  C8        13.9660   23.4880   34.0420 C.2   428  VDX428     -0.0446
     11  C9        14.3540   23.9270   32.5440 C.3   428  VDX428      0.0220
     12  C10       13.6020   19.0750   34.8280 C.2   428  VDX428      0.0039
     13  C11       13.0880   24.4900   31.6710 C.3   428  VDX428      0.0044
     14  C12       12.1470   25.4430   32.5640 C.3   428  VDX428      0.0006
     15  C13       11.7530   24.8970   34.0700 C.3   428  VDX428      0.0034
     16  C14       13.1480   24.5380   34.7770 C.3   428  VDX428      0.0183
     17  C15       12.6610   24.2660   36.3500 C.3   428  VDX428      0.0040
     18  C16       11.4290   25.2310   36.4970 C.3   428  VDX428      0.0003
     19  C17       11.2760   25.9340   35.1060 C.3   428  VDX428      0.0003
     20  C18       10.7690   23.5700   33.7790 C.3   428  VDX428      0.0003
     21  C19       12.2910   19.4550   34.8520 C.2   428  VDX428     -0.0024
     22  C20        9.8490   26.5460   34.7260 C.3   428  VDX428      0.0000
     23  C21        9.8040   27.9560   35.4820 C.3   428  VDX428      0.0000
     24  C22        8.5750   25.8240   35.2680 C.3   428  VDX428      0.0001
     25  C23        7.3310   26.0600   34.4050 C.3   428  VDX428      0.0025
     26  C24        6.1520   25.2660   34.6720 C.3   428  VDX428      0.0304
     27  C25        4.7750   25.7760   34.3360 C.3   428  VDX428      0.1268
     28  C26        4.7010   26.0100   32.8420 C.3   428  VDX428      0.0329
     29  C27        3.6680   24.7300   34.7230 C.3   428  VDX428      0.0329
     30  O1        13.1190   17.3590   36.6200 O.3   428  VDX428     -0.2182
@<TRIPOS>BOND
     1    13    11    1
     2    13    14    1
     3    11    10    1
     4    14    15    1
     5    28    27    1
     6     6     7    1
     7     6     5    1
     8    20    15    1
     9     8     7    2
    10     8     9    1
    11     7    12    1
    12     5     1    1
    13     5     4    1
    14    10     9    2
    15    10    16    1
    16    15    16    1
    17    15    19    1
    18    27    26    1
    19    27    29    1
    20    27     2    1
    21    25    26    1
    22    25    24    1
    23    22    19    1
    24    22    24    1
    25    22    23    1
    26    16    17    1
    27    12    21    2
    28    12     3    1
    29     4     3    1
    30    19    18    1
    31     3    30    1
    32    17    18    1
