@<TRIPOS>MOLECULE
1dbb_STR_H_1.pdb
 23 26 0 0 0
SMALL
GASTEIGER

@<TRIPOS>ATOM
      1  C1       -19.9120   42.8500  -15.1180 C.3   229  STR229      0.0118
      2  C2       -18.7140   42.2110  -15.7850 C.3   229  STR229      0.0694
      3  C3       -17.5580   43.1900  -15.5720 C.2   229  STR229      0.1725
      4  O3       -16.8370   43.6090  -16.5000 O.2   229  STR229     -0.2914
      5  C4       -17.3070   43.5630  -14.2920 C.2   229  STR229      0.0289
      6  C5       -18.3340   43.5260  -13.3280 C.2   229  STR229     -0.0420
      7  C6       -18.1250   43.8940  -11.8890 C.3   229  STR229      0.0221
      8  C7       -19.1200   44.8880  -11.5040 C.3   229  STR229      0.0044
      9  C8       -20.5190   44.4360  -11.7200 C.3   229  STR229      0.0006
     10  C9       -20.7390   44.1110  -13.1940 C.3   229  STR229      0.0035
     11  C10      -19.7460   43.0470  -13.6120 C.3   229  STR229      0.0157
     12  C11      -22.1270   43.6600  -13.4710 C.3   229  STR229      0.0003
     13  C12      -23.0710   44.6670  -12.9620 C.3   229  STR229      0.0004
     14  C13      -22.8880   45.1430  -11.4600 C.3   229  STR229      0.0065
     15  C14      -21.4660   45.5780  -11.3090 C.3   229  STR229      0.0004
     16  C15      -21.5600   46.3950  -10.0120 C.3   229  STR229      0.0004
     17  C16      -22.9710   46.9580   -9.9290 C.3   229  STR229      0.0073
     18  C17      -23.7580   46.3120  -11.0520 C.3   229  STR229      0.0576
     19  C18      -23.1280   44.0010  -10.4700 C.3   229  STR229      0.0004
     20  C19      -19.9500   41.6840  -12.9700 C.3   229  STR229      0.0041
     21  C20      -25.1940   46.1310  -10.7280 C.2   229  STR229      0.1507
     22  O20      -25.5790   46.0380   -9.5860 O.2   229  STR229     -0.2961
     23  C21      -26.2210   46.1930  -11.7970 C.3   229  STR229      0.0722
@<TRIPOS>BOND
     1     4     3    2
     2     2     3    1
     3     2     1    1
     4     3     5    1
     5     1    11    1
     6     5     6    2
     7    11     6    1
     8    11    10    1
     9    11    20    1
    10    12    10    1
    11    12    13    1
    12     6     7    1
    13    10     9    1
    14    13    14    1
    15     7     8    1
    16    23    21    1
    17     9     8    1
    18     9    15    1
    19    14    15    1
    20    14    18    1
    21    14    19    1
    22    15    16    1
    23    18    21    1
    24    18    17    1
    25    21    22    2
    26    16    17    1
