@<TRIPOS>MOLECULE
1dbg_RAM_A_1.pdb
 10 10 0 0 0
SMALL
GASTEIGER

@<TRIPOS>ATOM
      1  C1        42.4150   26.3570   28.4910 C.3   508  RAM508      0.1776
      2  C2        43.5170   27.4440   28.3980 C.3   508  RAM508      0.2141
      3  C3        43.5200   27.9170   26.9350 C.3   508  RAM508      0.2172
      4  C4        42.1230   28.4830   26.5800 C.3   508  RAM508      0.2116
      5  C5        40.9970   27.3900   26.7950 C.3   508  RAM508      0.1483
      6  C6        39.5610   27.9060   26.5270 C.3   508  RAM508      0.0349
      7  O2        43.2360   28.5260   29.2560 O.3   508  RAM508     -0.2176
      8  O3        44.4790   28.9390   26.7390 O.3   508  RAM508     -0.2175
      9  O4        42.1240   28.9260   25.2130 O.3   508  RAM508     -0.2177
     10  O5        41.1100   26.9260   28.1820 O.3   508  RAM508     -0.3508
@<TRIPOS>BOND
     1     9     4    1
     2     6     5    1
     3     4     5    1
     4     4     3    1
     5     8     3    1
     6     5    10    1
     7     3     2    1
     8    10     1    1
     9     2     1    1
    10     2     7    1
