@<TRIPOS>MOLECULE
1dbg_GCU_A_1.pdb
 12 12 0 0 0
SMALL
GASTEIGER

@<TRIPOS>ATOM
      1  C1        39.7920   20.5990   29.2930 C.3   509  GCU509      0.1783
      2  C2        39.1190   20.4120   30.6900 C.3   509  GCU509      0.2141
      3  C3        40.1650   20.7790   31.7430 C.3   509  GCU509      0.2178
      4  C4        41.3910   19.8730   31.5590 C.3   509  GCU509      0.2227
      5  C5        42.0040   20.0470   30.1490 C.3   509  GCU509      0.2512
      6  C6        43.2290   19.1450   29.9250 C.2   509  GCU509      0.3940
      7  O2        37.9990   21.2920   30.8090 O.3   509  GCU509     -0.2176
      8  O3        39.6600   20.5350   33.0590 O.3   509  GCU509     -0.2175
      9  O4        42.3990   20.2260   32.5000 O.3   509  GCU509     -0.2171
     10  O5        40.9620   19.7220   29.1780 O.3   509  GCU509     -0.3403
     11  O6A       44.4260   19.7270   30.1000 O.co2 509  GCU509     -0.2429
     12  O6B       43.1550   17.9810   29.6370 O.co2 509  GCU509     -0.2429
@<TRIPOS>BOND
     1    10     1    1
     2    10     5    1
     3     1     2    1
     4    12     6   ar
     5     6    11   ar
     6     6     5    1
     7     5     4    1
     8     2     7    1
     9     2     3    1
    10     4     3    1
    11     4     9    1
    12     3     8    1
