@<TRIPOS>MOLECULE
1dbg_MAN_A_1.pdb
 11 11 0 0 0
SMALL
GASTEIGER

@<TRIPOS>ATOM
      1  C1        41.0210   21.5660   26.8330 C.3   507  MAN507      0.1777
      2  C2        40.1300   22.4530   27.6930 C.3   507  MAN507      0.2141
      3  C3        40.6600   23.8890   27.6520 C.3   507  MAN507      0.2173
      4  C4        42.1510   23.9210   28.0660 C.3   507  MAN507      0.2142
      5  C5        42.9780   22.8580   27.3220 C.3   507  MAN507      0.1810
      6  C6        44.3540   22.7100   27.9480 C.3   507  MAN507      0.2141
      7  O2        40.1200   21.9880   29.0560 O.3   507  MAN507     -0.2176
      8  O3        39.8900   24.6870   28.5410 O.3   507  MAN507     -0.2175
      9  O4        42.7390   25.1890   27.7390 O.3   507  MAN507     -0.2176
     10  O5        42.3480   21.5600   27.3720 O.3   507  MAN507     -0.3481
     11  O6        45.2330   21.9940   27.0980 O.3   507  MAN507     -0.2176
@<TRIPOS>BOND
     1     1    10    1
     2     1     2    1
     3    11     6    1
     4     5    10    1
     5     5     6    1
     6     5     4    1
     7     3     2    1
     8     3     4    1
     9     3     8    1
    10     2     7    1
    11     9     4    1
