@<TRIPOS>MOLECULE
1dbj_AE2_H_1.pdb
 21 24 0 0 0
SMALL
GASTEIGER

@<TRIPOS>ATOM
      1  C1       -19.3250   42.4490  -11.1620 C.3   229  AE2229      0.0026
      2  C2       -20.0690   41.1030  -11.1410 C.3   229  AE2229      0.0329
      3  C3       -20.2460   40.5980  -12.5670 C.3   229  AE2229      0.1520
      4  O3       -21.0010   39.3920  -12.5720 O.3   229  AE2229     -0.2232
      5  C4       -20.9990   41.6510  -13.4480 C.3   229  AE2229      0.0329
      6  C5       -20.1430   42.9430  -13.4860 C.3   229  AE2229      0.0025
      7  C6       -20.8430   43.9470  -14.4220 C.3   229  AE2229      0.0001
      8  C7       -22.1420   44.5000  -13.8430 C.3   229  AE2229      0.0000
      9  C8       -22.0560   44.9550  -12.4050 C.3   229  AE2229      0.0004
     10  C9       -21.4070   43.8820  -11.5080 C.3   229  AE2229      0.0000
     11  C10      -19.9920   43.5240  -12.0440 C.3   229  AE2229      0.0002
     12  C11      -21.3630   44.3320  -10.0840 C.3   229  AE2229      0.0004
     13  C12      -22.7520   44.7200   -9.5790 C.3   229  AE2229      0.0069
     14  C13      -23.3970   45.7460  -10.4630 C.3   229  AE2229      0.0515
     15  C14      -23.4440   45.2460  -11.8930 C.3   229  AE2229      0.0070
     16  C15      -24.5160   46.0880  -12.5730 C.3   229  AE2229      0.0082
     17  C16      -25.5820   46.1650  -11.4850 C.3   229  AE2229      0.0645
     18  C17      -24.8410   45.9420  -10.1700 C.2   229  AE2229      0.1498
     19  O17      -25.3300   45.9550   -9.0410 O.2   229  AE2229     -0.2961
     20  C18      -22.7230   47.1090  -10.2410 C.3   229  AE2229      0.0073
     21  C19      -18.9870   44.6450  -11.9900 C.3   229  AE2229      0.0000
@<TRIPOS>BOND
     1     7     8    1
     2     7     6    1
     3     8     9    1
     4     6     5    1
     5     6    11    1
     6     5     3    1
     7    16    15    1
     8    16    17    1
     9     4     3    1
    10     3     2    1
    11     9    15    1
    12     9    10    1
    13    11    21    1
    14    11    10    1
    15    11     1    1
    16    15    14    1
    17    10    12    1
    18    17    18    1
    19     1     2    1
    20    14    20    1
    21    14    18    1
    22    14    13    1
    23    18    19    2
    24    12    13    1
