@<TRIPOS>MOLECULE
1dbk_ANO_H_1.pdb
 21 24 0 0 0
SMALL
GASTEIGER

@<TRIPOS>ATOM
      1  C1       -19.0460   42.4230  -11.7190 C.3   229  ANO229      0.0078
      2  C2       -19.5520   40.9680  -11.6830 C.3   229  ANO229      0.0645
      3  C3       -20.3890   40.3850  -12.8350 C.2   229  ANO229      0.1506
      4  O3       -20.6990   39.1910  -12.9790 O.2   229  ANO229     -0.2961
      5  C4       -20.9200   41.5200  -13.7240 C.3   229  ANO229      0.0645
      6  C5       -20.1610   42.8400  -13.8500 C.3   229  ANO229      0.0073
      7  C6       -21.0280   43.7030  -14.6890 C.3   229  ANO229      0.0004
      8  C7       -22.2800   44.2190  -14.0010 C.3   229  ANO229      0.0000
      9  C8       -22.0410   44.7990  -12.6250 C.3   229  ANO229      0.0004
     10  C9       -21.3010   43.7300  -11.7720 C.3   229  ANO229      0.0000
     11  C10      -19.9280   43.4280  -12.4310 C.3   229  ANO229      0.0008
     12  C11      -21.1190   44.2020  -10.3150 C.3   229  ANO229      0.0004
     13  C12      -22.4600   44.4940   -9.6440 C.3   229  ANO229      0.0069
     14  C13      -23.1580   45.5110  -10.4710 C.3   229  ANO229      0.0515
     15  C14      -23.3970   45.1320  -11.9540 C.3   229  ANO229      0.0070
     16  C15      -24.3860   46.1920  -12.4980 C.3   229  ANO229      0.0082
     17  C16      -25.3630   46.3020  -11.3180 C.3   229  ANO229      0.0645
     18  C17      -24.6340   45.6440  -10.1270 C.2   229  ANO229      0.1498
     19  O17      -25.1770   45.2560   -9.0850 O.2   229  ANO229     -0.2961
     20  C18      -22.4890   46.8500  -10.2010 C.3   229  ANO229      0.0073
     21  C19      -19.1510   44.7480  -12.4620 C.3   229  ANO229      0.0000
@<TRIPOS>BOND
     1     7     8    1
     2     7     6    1
     3     8     9    1
     4     6     5    1
     5     6    11    1
     6     5     3    1
     7     4     3    2
     8     3     2    1
     9     9    15    1
    10     9    10    1
    11    16    15    1
    12    16    17    1
    13    21    11    1
    14    11    10    1
    15    11     1    1
    16    15    14    1
    17    10    12    1
    18     1     2    1
    19    17    18    1
    20    14    20    1
    21    14    18    1
    22    14    13    1
    23    12    13    1
    24    18    19    2
