@<TRIPOS>MOLECULE
1dbm_SIH_H_1.pdb
 31 34 0 0 0
SMALL
GASTEIGER

@<TRIPOS>ATOM
      1  C1       -19.8260   43.0500  -15.2390 C.3   229  SIH229      0.0120
      2  C2       -18.5110   42.5030  -15.7020 C.3   229  SIH229      0.0695
      3  C3       -17.5170   43.5010  -15.1990 C.2   229  SIH229      0.1725
      4  O3       -16.8450   44.2110  -15.9470 O.2   229  SIH229     -0.2914
      5  C4       -17.3990   43.6290  -13.8510 C.2   229  SIH229      0.0289
      6  C5       -18.5580   43.4880  -13.1040 C.2   229  SIH229     -0.0419
      7  C6       -18.5810   43.5660  -11.6890 C.3   229  SIH229      0.0221
      8  C7       -19.4230   44.7260  -11.3130 C.3   229  SIH229      0.0045
      9  C8       -20.8230   44.3790  -11.6980 C.3   229  SIH229      0.0041
     10  C9       -20.9420   44.2450  -13.2460 C.3   229  SIH229      0.0436
     11  C10      -19.9450   43.1540  -13.7220 C.3   229  SIH229      0.0190
     12  C11      -22.4570   43.8130  -13.6280 C.3   229  SIH229      0.1690
     13  O11      -22.6820   43.9340  -15.0350 O.3   229  SIH229     -0.4523
     14  C12      -23.4310   44.7390  -12.8780 C.3   229  SIH229      0.0440
     15  C13      -23.1300   45.0430  -11.4020 C.3   229  SIH229      0.0100
     16  C14      -21.7330   45.4650  -11.2240 C.3   229  SIH229      0.0007
     17  C15      -21.7300   46.0580   -9.8210 C.3   229  SIH229      0.0004
     18  C16      -23.1990   46.4560   -9.5540 C.3   229  SIH229      0.0073
     19  C17      -24.0040   46.1010  -10.7910 C.3   229  SIH229      0.0577
     20  C18      -23.2940   43.7200  -10.6400 C.3   229  SIH229      0.0005
     21  C19      -20.3900   41.7560  -13.2600 C.3   229  SIH229      0.0042
     22  C20      -25.4650   45.7900  -10.5990 C.2   229  SIH229      0.1507
     23  O20      -25.8590   44.9880   -9.7620 O.2   229  SIH229     -0.2961
     24  C21      -26.4930   46.4640  -11.4680 C.3   229  SIH229      0.0722
     25  CH1      -23.2140   43.0030  -15.7240 C.2   229  SIH229      0.3174
     26  OH1      -23.2940   42.9710  -16.9780 O.2   229  SIH229     -0.2501
     27  CH2      -23.9190   41.8140  -15.1570 C.3   229  SIH229      0.1213
     28  CH3      -25.4310   42.0260  -15.3910 C.3   229  SIH229      0.1257
     29  CH4      -25.9500   40.9920  -16.3900 C.2   229  SIH229      0.3654
     30  OH4      -25.6730   41.2130  -17.5940 O.co2 229  SIH229     -0.2456
     31  OH5      -26.5180   39.9370  -15.9540 O.co2 229  SIH229     -0.2456
@<TRIPOS>BOND
     1    30    29   ar
     2    26    25    2
     3    29    31   ar
     4    29    28    1
     5     4     3    2
     6    25    27    1
     7    25    13    1
     8     2     1    1
     9     2     3    1
    10    28    27    1
    11     1    11    1
    12     3     5    1
    13    13    12    1
    14     5     6    2
    15    11    21    1
    16    11    10    1
    17    11     6    1
    18    12    10    1
    19    12    14    1
    20    10     9    1
    21     6     7    1
    22    14    15    1
    23     9     8    1
    24     9    16    1
    25     7     8    1
    26    24    22    1
    27    15    16    1
    28    15    19    1
    29    15    20    1
    30    16    17    1
    31    19    22    1
    32    19    18    1
    33    22    23    2
    34    17    18    1
