@<TRIPOS>MOLECULE
1dbn_GAL_A_1.pdb
 11 11 0 0 0
SMALL
GASTEIGER

@<TRIPOS>ATOM
      1  C1        29.2350   32.1620   49.3810 C.3   823  GAL823      0.1777
      2  C2        29.3190   30.8010   50.0870 C.3   823  GAL823      0.2141
      3  C3        30.7420   30.2530   50.0150 C.3   823  GAL823      0.2173
      4  C4        31.1890   30.1890   48.5640 C.3   823  GAL823      0.2142
      5  C5        31.1000   31.6060   47.9920 C.3   823  GAL823      0.1810
      6  C6        31.5870   31.7780   46.5620 C.3   823  GAL823      0.2141
      7  O2        28.9260   30.9420   51.4430 O.3   823  GAL823     -0.2176
      8  O3        30.8020   28.9430   50.6170 O.3   823  GAL823     -0.2175
      9  O4        30.3230   29.3200   47.8510 O.3   823  GAL823     -0.2176
     10  O5        29.7330   32.0590   48.0390 O.3   823  GAL823     -0.3481
     11  O6        31.8550   30.5350   45.9350 O.3   823  GAL823     -0.2176
@<TRIPOS>BOND
     1    11     6    1
     2     6     5    1
     3     9     4    1
     4     5    10    1
     5     5     4    1
     6    10     1    1
     7     4     3    1
     8     1     2    1
     9     3     2    1
    10     3     8    1
    11     2     7    1
