@<TRIPOS>MOLECULE
1dbn_NAG_A_1.pdb
 14 14 0 0 0
SMALL
GASTEIGER

@<TRIPOS>ATOM
      1  C1        54.1190   17.6470   19.2340 C.3   821  NAG821      0.1665
      2  C2        54.0570   18.3990   17.9000 C.3   821  NAG821      0.1576
      3  C3        54.7240   17.5910   16.7820 C.3   821  NAG821      0.2069
      4  C4        56.1450   17.2170   17.2040 C.3   821  NAG821      0.2134
      5  C5        56.0640   16.4260   18.5150 C.3   821  NAG821      0.1809
      6  C6        57.4250   15.9910   19.0240 C.3   821  NAG821      0.2141
      7  C7        52.1560   19.8650   17.7250 C.2   821  NAG821      0.2420
      8  C8        50.6870   20.0370   17.3690 C.3   821  NAG821      0.0964
      9  N2        52.6690   18.6490   17.5700 N.am  821  NAG821     -0.2019
     10  O3        54.7640   18.3620   15.5920 O.3   821  NAG821     -0.2184
     11  O4        56.7790   16.4460   16.1890 O.3   821  NAG821     -0.2176
     12  O5        55.4640   17.2510   19.5420 O.3   821  NAG821     -0.3489
     13  O6        58.1780   17.1030   19.4900 O.3   821  NAG821     -0.2176
     14  O7        52.8160   20.8310   18.1220 O.2   821  NAG821     -0.2733
@<TRIPOS>BOND
     1    10     3    1
     2    11     4    1
     3     3     4    1
     4     3     2    1
     5     4     5    1
     6     8     7    1
     7     9     7   am
     8     9     2    1
     9     7    14    2
    10     2     1    1
    11     5     6    1
    12     5    12    1
    13     6    13    1
    14     1    12    1
