@<TRIPOS>MOLECULE
1dbn_BGC_A_1.pdb
 12 12 0 0 0
SMALL
GASTEIGER

@<TRIPOS>ATOM
      1  C2        26.2220   35.8530   48.5030 C.3   824  BGC824      0.2434
      2  C3        26.7090   34.4140   48.2870 C.3   824  BGC824      0.2199
      3  C4        27.6500   33.9740   49.4190 C.3   824  BGC824      0.2144
      4  C5        27.0240   34.2610   50.7900 C.3   824  BGC824      0.1836
      5  C6        27.9960   33.9950   51.9210 C.3   824  BGC824      0.2142
      6  C1        25.6470   36.0080   49.9070 C.3   824  BGC824      0.3024
      7  O1        25.3050   37.3330   50.1170 O.3   824  BGC824     -0.1869
      8  O2        25.2280   36.1830   47.5420 O.3   824  BGC824     -0.2148
      9  O3        27.3940   34.3270   47.0470 O.3   824  BGC824     -0.2174
     10  O4        27.9120   32.5620   49.3090 O.3   824  BGC824     -0.2176
     11  O5        26.6330   35.6460   50.8830 O.3   824  BGC824     -0.3236
     12  O6        27.3350   33.9940   53.1760 O.3   824  BGC824     -0.2176
@<TRIPOS>BOND
     1     9     2    1
     2     8     1    1
     3     2     1    1
     4     2     3    1
     5     1     6    1
     6    10     3    1
     7     3     4    1
     8     6     7    1
     9     6    11    1
    10     4    11    1
    11     4     5    1
    12     5    12    1
