@<TRIPOS>MOLECULE
1dbn_SIA_A_1.pdb
 20 20 0 0 0
SMALL
GASTEIGER

@<TRIPOS>ATOM
      1  C1        33.0780   28.9620   51.3170 C.2   822  SIA822      0.3914
      2  C2        31.6110   28.8450   51.7420 C.3   822  SIA822      0.2203
      3  C3        31.3940   27.4960   52.4430 C.3   822  SIA822      0.0760
      4  C4        32.1650   27.4530   53.7710 C.3   822  SIA822      0.1773
      5  C5        31.8240   28.6690   54.6480 C.3   822  SIA822      0.1552
      6  C6        32.0370   29.9610   53.8580 C.3   822  SIA822      0.1710
      7  C7        31.6160   31.1670   54.6980 C.3   822  SIA822      0.2134
      8  C8        32.6790   32.2590   54.6270 C.3   822  SIA822      0.2173
      9  C9        32.1690   33.5350   55.2890 C.3   822  SIA822      0.2175
     10  C10       32.3250   28.0540   56.9340 C.2   822  SIA822      0.2420
     11  C11       33.2870   28.1330   58.1080 C.3   822  SIA822      0.0964
     12  N5        32.6800   28.6890   55.8210 N.am  822  SIA822     -0.2020
     13  O1A       33.7620   29.9260   51.7260 O.co2 822  SIA822     -0.2430
     14  O1B       33.5450   28.0900   50.5560 O.co2 822  SIA822     -0.2430
     15  O4        31.8490   26.2580   54.4710 O.3   822  SIA822     -0.2211
     16  O6        31.2740   29.9370   52.6290 O.3   822  SIA822     -0.3429
     17  O7        30.3770   31.6780   54.2320 O.3   822  SIA822     -0.2176
     18  O8        33.8600   31.8200   55.2840 O.3   822  SIA822     -0.2175
     19  O9        33.1350   34.5660   55.1490 O.3   822  SIA822     -0.2175
     20  O10       31.2750   27.4230   57.0430 O.2   822  SIA822     -0.2733
@<TRIPOS>BOND
     1    14     1   ar
     2     1    13   ar
     3     1     2    1
     4     2     3    1
     5     2    16    1
     6     3     4    1
     7    16     6    1
     8     4    15    1
     9     4     5    1
    10     6     5    1
    11     6     7    1
    12    17     7    1
    13     8     7    1
    14     8    18    1
    15     8     9    1
    16     5    12    1
    17    19     9    1
    18    12    10   am
    19    10    20    2
    20    10    11    1
