@<TRIPOS>MOLECULE
1dbo_MAN_A_1.pdb
 11 11 0 0 0
SMALL
GASTEIGER

@<TRIPOS>ATOM
      1  C1        41.0210   21.5190   26.8880 C.3   507  MAN507      0.1777
      2  C2        40.1020   22.3840   27.7470 C.3   507  MAN507      0.2141
      3  C3        40.6060   23.8290   27.7270 C.3   507  MAN507      0.2173
      4  C4        42.0910   23.8880   28.1590 C.3   507  MAN507      0.2142
      5  C5        42.9400   22.8620   27.3920 C.3   507  MAN507      0.1810
      6  C6        44.3310   22.7470   27.9860 C.3   507  MAN507      0.2141
      7  O2        40.0760   21.9070   29.1050 O.3   507  MAN507     -0.2176
      8  O3        39.8070   24.6100   28.6090 O.3   507  MAN507     -0.2175
      9  O4        42.6560   25.1750   27.8540 O.3   507  MAN507     -0.2176
     10  O5        42.3500   21.5450   27.4260 O.3   507  MAN507     -0.3481
     11  O6        45.1660   21.9290   27.1800 O.3   507  MAN507     -0.2176
@<TRIPOS>BOND
     1     1    10    1
     2     1     2    1
     3    11     6    1
     4     5    10    1
     5     5     6    1
     6     5     4    1
     7     3     2    1
     8     3     4    1
     9     3     8    1
    10     2     7    1
    11     9     4    1
