@<TRIPOS>MOLECULE
1dbo_NGA_A_1.pdb
 15 15 0 0 0
SMALL
GASTEIGER

@<TRIPOS>ATOM
      1  C1        26.4440   20.8170    1.8760 C.3   514  NGA514      0.2917
      2  C2        25.8000   21.4690    0.6500 C.3   514  NGA514      0.1871
      3  C3        26.8270   22.3700   -0.0400 C.3   514  NGA514      0.2095
      4  C4        27.4660   23.3480    0.9620 C.3   514  NGA514      0.2136
      5  C5        28.0150   22.5870    2.1780 C.3   514  NGA514      0.1835
      6  C6        28.5540   23.4990    3.2620 C.3   514  NGA514      0.2142
      7  C7        24.1400   20.5240   -0.8690 C.2   514  NGA514      0.2421
      8  C8        23.7470   19.4450   -1.8150 C.3   514  NGA514      0.0964
      9  N2        25.3330   20.4380   -0.2690 N.am  514  NGA514     -0.1991
     10  O1        25.4950   20.0670    2.5510 O.3   514  NGA514     -0.1879
     11  O3        26.1910   23.1090   -1.0960 O.3   514  NGA514     -0.2183
     12  O4        26.4940   24.3100    1.3770 O.3   514  NGA514     -0.2176
     13  O5        26.9550   21.8120    2.7770 O.3   514  NGA514     -0.3242
     14  O6        29.7540   24.1410    2.8560 O.3   514  NGA514     -0.2176
     15  O7        23.3460   21.4680   -0.6850 O.2   514  NGA514     -0.2733
@<TRIPOS>BOND
     1     8     7    1
     2    11     3    1
     3     7    15    2
     4     7     9   am
     5     9     2    1
     6     3     2    1
     7     3     4    1
     8     2     1    1
     9     4    12    1
    10     4     5    1
    11     1    10    1
    12     1    13    1
    13     5    13    1
    14     5     6    1
    15    14     6    1
