@<TRIPOS>MOLECULE
1dbo_GCU_A_1.pdb
 12 12 0 0 0
SMALL
GASTEIGER

@<TRIPOS>ATOM
      1  C1        39.7290   20.5180   29.3210 C.3   509  GCU509      0.1783
      2  C2        39.0800   20.3360   30.7270 C.3   509  GCU509      0.2141
      3  C3        40.1460   20.6920   31.7630 C.3   509  GCU509      0.2178
      4  C4        41.3600   19.7670   31.5570 C.3   509  GCU509      0.2227
      5  C5        41.9460   19.9400   30.1330 C.3   509  GCU509      0.2512
      6  C6        43.1430   19.0190   29.8720 C.2   509  GCU509      0.3940
      7  O2        37.9680   21.2290   30.8600 O.3   509  GCU509     -0.2176
      8  O3        39.6490   20.4630   33.0870 O.3   509  GCU509     -0.2175
      9  O4        42.3930   20.1120   32.4860 O.3   509  GCU509     -0.2171
     10  O5        40.8850   19.6320   29.1790 O.3   509  GCU509     -0.3403
     11  O6A       44.3640   19.5720   30.0190 O.co2 509  GCU509     -0.2429
     12  O6B       43.0200   17.8560   29.5650 O.co2 509  GCU509     -0.2429
@<TRIPOS>BOND
     1    10     1    1
     2    10     5    1
     3     1     2    1
     4    12     6   ar
     5     6    11   ar
     6     6     5    1
     7     5     4    1
     8     2     7    1
     9     2     3    1
    10     4     3    1
    11     4     9    1
    12     3     8    1
