@<TRIPOS>MOLECULE
1dbo_RAM_A_1.pdb
 10 10 0 0 0
SMALL
GASTEIGER

@<TRIPOS>ATOM
      1  C1        42.3150   26.3480   28.6110 C.3   508  RAM508      0.1776
      2  C2        43.4100   27.4440   28.5100 C.3   508  RAM508      0.2141
      3  C3        43.4180   27.8900   27.0310 C.3   508  RAM508      0.2172
      4  C4        42.0220   28.4520   26.6670 C.3   508  RAM508      0.2116
      5  C5        40.8980   27.3660   26.9050 C.3   508  RAM508      0.1483
      6  C6        39.4670   27.8840   26.6300 C.3   508  RAM508      0.0349
      7  O2        43.0900   28.5320   29.3530 O.3   508  RAM508     -0.2176
      8  O3        44.3710   28.9150   26.8100 O.3   508  RAM508     -0.2175
      9  O4        42.0200   28.8690   25.2870 O.3   508  RAM508     -0.2177
     10  O5        41.0100   26.9210   28.2990 O.3   508  RAM508     -0.3508
@<TRIPOS>BOND
     1     9     4    1
     2     6     5    1
     3     4     5    1
     4     4     3    1
     5     8     3    1
     6     5    10    1
     7     3     2    1
     8    10     1    1
     9     2     1    1
    10     2     7    1
