@<TRIPOS>MOLECULE
1dbo_GC4_A_1.pdb
 11 11 0 0 0
SMALL
GASTEIGER

@<TRIPOS>ATOM
      1  C1        26.6360   22.8320   -2.4310 C.3   516  GC4516      0.2413
      2  C2        25.7730   23.3310   -3.6030 C.3   516  GC4516      0.2297
      3  C3        25.7240   24.8770   -3.6210 C.3   516  GC4516      0.2111
      4  C4        27.0890   25.5310   -3.2740 C.2   516  GC4516      0.0526
      5  C5        28.2420   24.6680   -2.7510 C.2   516  GC4516      0.2164
      6  O5        27.9850   23.2540   -2.6290 O.2   516  GC4516     -0.4664
      7  C6        29.5480   25.3170   -2.3140 C.2   516  GC4516      0.4208
      8  O6A       29.6950   26.5520   -2.4620 O.co2 516  GC4516     -0.2371
      9  O6B       30.4000   24.5990   -1.7510 O.co2 516  GC4516     -0.2371
     10  O2        26.2970   22.8610   -4.8380 O.3   516  GC4516     -0.2160
     11  O3        24.9530   25.3360   -2.5090 O.3   516  GC4516     -0.2153
@<TRIPOS>BOND
     1    10     2    1
     2     3     2    1
     3     3     4    1
     4     3    11    1
     5     2     1    1
     6     4     5    2
     7     5     6    1
     8     5     7    1
     9     6     1    1
    10     8     7   ar
    11     7     9   ar
