@<TRIPOS>MOLECULE
1dbp_RIP_A_1.pdb
 20 20 0 0 0
SMALL
GASTEIGER

@<TRIPOS>ATOM
      1  C1        50.0140   33.5510   43.7350 C.3   272  RIP272      0.1850
      2  C2        49.3540   32.9820   44.9780 C.3   272  RIP272      0.1339
      3  C3        49.0120   34.1100   45.9400 C.3   272  RIP272      0.1137
      4  C4        50.2700   34.9300   46.2520 C.3   272  RIP272      0.1069
      5  C5        50.9320   35.3990   44.9720 C.3   272  RIP272      0.0792
      6  O1        50.3590   32.5140   42.8470 O.3   272  RIP272     -0.3649
      7  O2        48.1750   32.2970   44.6200 O.3   272  RIP272     -0.3841
      8  O3        48.0060   34.9370   45.3620 O.3   272  RIP272     -0.3864
      9  O4        49.9380   36.0450   47.0310 O.3   272  RIP272     -0.3869
     10  O5        51.1780   34.2960   44.0990 O.3   272  RIP272     -0.3462
     11  H1        49.3250   34.2450   43.2270 H     272  RIP272      0.0935
     12  H2        50.0540   32.2950   45.4710 H     272  RIP272      0.0671
     13  H3        48.6350   33.6750   46.8720 H     272  RIP272      0.0647
     14  H4        50.9780   34.2940   46.8010 H     272  RIP272      0.0643
     15  H51       51.8930   35.8830   45.1990 H     272  RIP272      0.0587
     16  H52       50.2830   36.1170   44.4540 H     272  RIP272      0.0587
     17  HO1       49.6040   31.9330   42.7280 H     272  RIP272      0.2126
     18  HO2       47.9040   32.5730   43.7420 H     272  RIP272      0.2101
     19  HO3       47.9170   35.7390   45.8810 H     272  RIP272      0.2100
     20  HO4       49.7650   35.7630   47.9320 H     272  RIP272      0.2100
@<TRIPOS>BOND
     1    17     6    1
     2     6     1    1
     3    11     1    1
     4     1    10    1
     5     1     2    1
     6    18     7    1
     7    10     5    1
     8    16     5    1
     9     7     2    1
    10     5    15    1
    11     5     4    1
    12     2    12    1
    13     2     3    1
    14     8    19    1
    15     8     3    1
    16     3     4    1
    17     3    13    1
    18     4    14    1
    19     4     9    1
    20     9    20    1
