@<TRIPOS>MOLECULE
1dbt_U5P_A_1.pdb
 21 22 0 0 0
SMALL
GASTEIGER

@<TRIPOS>ATOM
      1  N1        62.0240   57.9560   28.0310 N.am  250  U5P250     -0.1766
      2  C2        61.0740   57.8660   29.0560 C.1   250  U5P250      0.2845
      3  N3        59.9610   57.0970   28.7470 N.2   250  U5P250     -0.2452
      4  C4        59.7130   56.4250   27.5380 C.1   250  U5P250      0.2182
      5  C5        60.7390   56.5800   26.5680 C.2   250  U5P250      0.1242
      6  C6        61.8100   57.3020   26.8280 C.2   250  U5P250      0.0929
      7  O2        61.2470   58.4290   30.1260 O.2   250  U5P250     -0.1918
      8  O4        58.6910   55.7870   27.4170 O.2   250  U5P250     -0.2085
      9  C1'       63.2580   58.7290   28.1970 C.3   250  U5P250      0.2401
     10  C2'       63.1470   60.2200   28.5020 C.3   250  U5P250      0.2319
     11  O2'       63.0330   61.0450   27.3200 O.3   250  U5P250     -0.2157
     12  C3'       64.3790   60.5290   29.3550 C.3   250  U5P250      0.2158
     13  C4'       64.6560   59.1830   30.0260 C.3   250  U5P250      0.1801
     14  O3'       65.4700   61.0630   28.5480 O.3   250  U5P250     -0.2175
     15  O4'       64.1240   58.1660   29.1580 O.3   250  U5P250     -0.3320
     16  C5'       64.0630   58.9270   31.4080 C.3   250  U5P250      0.1859
     17  O5'       64.3750   60.0170   32.2830 O.3   250  U5P250     -0.2675
     18  P         64.3220   59.9380   33.8770 P.3   250  U5P250      0.5327
     19  O1P       65.1230   60.9860   34.6070 O.3   250  U5P250     -0.1145
     20  O2P       64.8530   58.6370   34.3770 O.3   250  U5P250     -0.1145
     21  O3P       62.6950   59.9250   34.1780 O.2   250  U5P250     -0.2224
@<TRIPOS>BOND
     1     5     6    2
     2     5     4    1
     3     6     1    1
     4    11    10    1
     5     8     4    2
     6     4     3    2
     7     1     9    1
     8     1     2   am
     9     9    10    1
    10     9    15    1
    11    10    12    1
    12    14    12    1
    13     3     2    2
    14     2     7    2
    15    15    13    1
    16    12    13    1
    17    13    16    1
    18    16    17    1
    19    17    18    1
    20    18    21    2
    21    18    20    1
    22    18    19    1
