@<TRIPOS>MOLECULE
1dbv_NAD_O_1.pdb
 44 48 0 0 0
SMALL
GASTEIGER

@<TRIPOS>ATOM
      1  PA       -21.8270    8.2720   40.4810 P.3   336  NAD336      0.2189
      2  O1A      -21.9020    7.0480   41.2830 O.3   336  NAD336     -0.4371
      3  O2A      -20.5400    9.0130   40.4140 O.2   336  NAD336     -0.5170
      4  O5B      -23.0080    9.2850   40.8960 O.3   336  NAD336     -0.3112
      5  C5B      -24.1800    8.9020   41.6340 C.3   336  NAD336      0.1813
      6  C4B      -24.2840    9.8170   42.8550 C.3   336  NAD336      0.1821
      7  O4B      -25.6340    9.9390   43.3490 O.3   336  NAD336     -0.3135
      8  C3B      -23.4320    9.3320   44.0250 C.3   336  NAD336      0.2184
      9  O3B      -22.5400   10.3710   44.4810 O.3   336  NAD336     -0.2174
     10  C2B      -24.4360    8.8510   45.0820 C.3   336  NAD336      0.2570
     11  O2B      -23.8880    8.8990   46.4240 O.3   336  NAD336     -0.2130
     12  C1B      -25.5800    9.8300   44.7910 C.3   336  NAD336      0.3186
     13  N9A      -26.8970    9.3940   45.3000 N.pl3 336  NAD336     -0.1439
     14  C8A      -27.3500    8.1350   45.2870 C.3   336  NAD336      0.3377
     15  N7A      -28.6110    8.0610   45.7330 N.2   336  NAD336     -0.2095
     16  C5A      -28.9070    9.3270   46.0000 C.2   336  NAD336      0.2526
     17  C6A      -30.0950    9.7320   46.5910 C.2   336  NAD336      0.4393
     18  N6A      -31.0390    8.8320   46.8630 N.pl3 336  NAD336      0.2180
     19  N1A      -30.1800   11.0440   46.9070 N.2   336  NAD336      0.0021
     20  C2A      -29.1790   11.8980   46.6760 C.3   336  NAD336      0.5254
     21  N3A      -28.0340   11.4830   46.1230 N.2   336  NAD336     -0.0055
     22  C4A      -27.8620   10.1890   45.7650 C.2   336  NAD336      0.3518
     23  O3       -22.2340    7.8960   39.0090 O.3   336  NAD336     -0.2703
     24  PN       -22.4770    8.7500   37.6960 P.3   336  NAD336      0.2189
     25  O1N      -21.5140    8.1910   36.7240 O.2   336  NAD336     -0.5170
     26  O2N      -22.4490   10.1740   38.1240 O.3   336  NAD336     -0.4371
     27  O5D      -23.9180    8.4250   37.0760 O.3   336  NAD336     -0.3112
     28  C5D      -25.0290    9.2450   37.4460 C.3   336  NAD336      0.1813
     29  C4D      -26.1090    9.1220   36.3920 C.3   336  NAD336      0.1799
     30  O4D      -25.6580    9.7480   35.1830 O.3   336  NAD336     -0.3327
     31  C3D      -26.4000    7.6670   36.0440 C.3   336  NAD336      0.2158
     32  O3D      -27.7910    7.4230   35.7730 O.3   336  NAD336     -0.2175
     33  C2D      -25.5520    7.4040   34.8150 C.3   336  NAD336      0.2309
     34  O2D      -26.1420    6.4280   33.9430 O.3   336  NAD336     -0.2158
     35  C1D      -25.5910    8.7450   34.1540 C.3   336  NAD336      0.2263
     36  N1N      -24.4660    8.9010   33.2120 N.pl3 336  NAD336     -0.2787
     37  C2N      -23.1480    8.5420   33.5650 C.3   336  NAD336      0.1244
     38  C3N      -22.0840    8.9170   32.7440 C.2   336  NAD336      0.0544
     39  C7N      -20.6260    8.6780   33.1500 C.2   336  NAD336      0.2818
     40  O7N      -19.7180    8.7520   32.3270 O.2   336  NAD336     -0.2670
     41  N7N      -20.4170    8.1500   34.3470 N.am  336  NAD336     -0.0839
     42  C4N      -22.3620    9.6200   31.5740 C.2   336  NAD336      0.0033
     43  C5N      -23.6630    9.9360   31.1950 C.2   336  NAD336      0.0157
     44  C6N      -24.7290    9.5680   32.0010 C.2   336  NAD336      0.0633
@<TRIPOS>BOND
     1    43    42    1
     2    43    44    2
     3    42    38    2
     4    44    36    1
     5    40    39    2
     6    38    39    1
     7    38    37    1
     8    39    41   am
     9    36    37    1
    10    36    35    1
    11    34    33    1
    12    35    33    1
    13    35    30    1
    14    33    31    1
    15    30    29    1
    16    32    31    1
    17    31    29    1
    18    29    28    1
    19    25    24    2
    20    27    28    1
    21    27    24    1
    22    24    26    1
    23    24    23    1
    24    23     1    1
    25     3     1    2
    26     1     4    1
    27     1     2    1
    28     4     5    1
    29     5     6    1
    30     6     7    1
    31     6     8    1
    32     7    12    1
    33     8     9    1
    34     8    10    1
    35    12    10    1
    36    12    13    1
    37    10    11    1
    38    14    13    1
    39    14    15    1
    40    13    22    1
    41    15    16    2
    42    22    16    1
    43    22    21    2
    44    16    17    1
    45    21    20    1
    46    17    18    1
    47    17    19    2
    48    20    19    1
