@<TRIPOS>MOLECULE
1dc4_G3P_A_1.pdb
 10 9 0 0 0
SMALL
GASTEIGER

@<TRIPOS>ATOM
      1  O1        60.5770   40.9240  -14.9860 O.3   350  G3P350     -0.2175
      2  C1        60.9700   42.2180  -14.5020 C.3   350  G3P350      0.2174
      3  C2        60.4420   42.4280  -13.0550 C.3   350  G3P350      0.2147
      4  O2        60.0340   43.7880  -12.8940 O.3   350  G3P350     -0.2176
      5  C3        61.4970   42.1240  -11.9410 C.3   350  G3P350      0.1892
      6  O1P       61.7750   40.7120  -11.6700 O.3   350  G3P350     -0.2674
      7  O4P       64.0750   40.8180  -10.3960 O.3   350  G3P350     -0.1145
      8  O2P       64.0550   40.1160  -12.7510 O.2   350  G3P350     -0.2224
      9  O3P       63.1150   38.5930  -10.9950 O.3   350  G3P350     -0.1145
     10  P         63.2550   40.0690  -11.4550 P.3   350  G3P350      0.5327
@<TRIPOS>BOND
     1     1     2    1
     2     2     3    1
     3     3     4    1
     4     3     5    1
     5     8    10    2
     6     5     6    1
     7     6    10    1
     8    10     9    1
     9    10     7    1
