@<TRIPOS>MOLECULE
1dc6_NAD_A_1.pdb
 44 48 0 0 0
SMALL
GASTEIGER

@<TRIPOS>ATOM
      1  PA       -24.7460   71.3760   -9.0770 P.3   351  NAD351      0.2189
      2  O1A      -24.0600   71.0540   -7.7900 O.3   351  NAD351     -0.4371
      3  O2A      -25.9740   70.5930   -9.3820 O.2   351  NAD351     -0.5170
      4  O5B      -23.7240   71.2250  -10.3030 O.3   351  NAD351     -0.3112
      5  C5B      -22.2970   71.5050  -10.1180 C.3   351  NAD351      0.1813
      6  C4B      -21.4610   70.3590  -10.7150 C.3   351  NAD351      0.1821
      7  O4B      -20.0570   70.6860  -10.5200 O.3   351  NAD351     -0.3135
      8  C3B      -21.6620   69.0040  -10.0280 C.3   351  NAD351      0.2184
      9  O3B      -22.1960   68.0770  -10.9860 O.3   351  NAD351     -0.2174
     10  C2B      -20.2530   68.7100   -9.4670 C.3   351  NAD351      0.2570
     11  O2B      -19.9520   67.2910   -9.3730 O.3   351  NAD351     -0.2130
     12  C1B      -19.3670   69.4750  -10.4340 C.3   351  NAD351      0.3186
     13  N9A      -17.9970   69.7950   -9.9610 N.pl3 351  NAD351     -0.1439
     14  C8A      -17.5970   70.0160   -8.6690 C.3   351  NAD351      0.3377
     15  N7A      -16.3020   70.2890   -8.5450 N.2   351  NAD351     -0.2095
     16  C5A      -15.8130   70.2490   -9.8380 C.2   351  NAD351      0.2526
     17  C6A      -14.5120   70.4830  -10.3500 C.2   351  NAD351      0.4393
     18  N6A      -13.4220   70.7720   -9.6400 N.pl3 351  NAD351      0.2180
     19  N1A      -14.3430   70.3600  -11.7130 N.2   351  NAD351      0.0021
     20  C2A      -15.4590   70.0510  -12.4670 C.3   351  NAD351      0.5254
     21  N3A      -16.7040   69.8300  -12.0970 N.2   351  NAD351     -0.0055
     22  C4A      -16.8330   69.9450  -10.7430 C.2   351  NAD351      0.3518
     23  O3       -25.1040   72.8740   -9.0660 O.3   351  NAD351     -0.2703
     24  PN       -25.8840   73.7760  -10.1770 P.3   351  NAD351      0.2189
     25  O1N      -27.2740   73.8410   -9.6960 O.3   351  NAD351     -0.4371
     26  O2N      -25.6710   73.0740  -11.4750 O.2   351  NAD351     -0.5170
     27  O5D      -25.1530   75.1620  -10.0090 O.3   351  NAD351     -0.3112
     28  C5D      -24.3400   75.5750  -11.1140 C.3   351  NAD351      0.1813
     29  C4D      -23.7850   76.9480  -10.8500 C.3   351  NAD351      0.1799
     30  O4D      -24.8260   77.7450  -11.4440 O.3   351  NAD351     -0.3327
     31  C3D      -23.7030   77.4290   -9.4070 C.3   351  NAD351      0.2158
     32  O3D      -22.6310   78.3670   -9.2820 O.3   351  NAD351     -0.2175
     33  C2D      -25.0450   78.1130   -9.1730 C.3   351  NAD351      0.2309
     34  O2D      -24.9030   79.1940   -8.2420 O.3   351  NAD351     -0.2158
     35  C1D      -25.4130   78.6210  -10.5230 C.3   351  NAD351      0.2263
     36  N1N      -26.8610   78.6490  -10.7590 N.pl3 351  NAD351     -0.2787
     37  C2N      -27.7440   77.6630  -10.2640 C.3   351  NAD351      0.1244
     38  C3N      -29.2200   77.7240  -10.5420 C.2   351  NAD351      0.0544
     39  C7N      -30.0590   76.6470   -9.9990 C.2   351  NAD351      0.2818
     40  O7N      -31.2730   76.7100  -10.2300 O.2   351  NAD351     -0.2670
     41  N7N      -29.5710   75.6230   -9.2860 N.am  351  NAD351     -0.0839
     42  C4N      -29.7560   78.8590  -11.3810 C.2   351  NAD351      0.0033
     43  C5N      -28.6900   79.8130  -11.8090 C.2   351  NAD351      0.0157
     44  C6N      -27.3990   79.7140  -11.5370 C.2   351  NAD351      0.0633
@<TRIPOS>BOND
     1    20    21    1
     2    20    19    1
     3    21    22    2
     4    43    44    2
     5    43    42    1
     6    19    17    2
     7    44    36    1
     8    26    24    2
     9    30    29    1
    10    30    35    1
    11    42    38    2
    12    28    29    1
    13    28    27    1
    14     9     8    1
    15    29    31    1
    16    36    35    1
    17    36    37    1
    18    22    13    1
    19    22    16    1
    20     6     7    1
    21     6     5    1
    22     6     8    1
    23    38    37    1
    24    38    39    1
    25    35    33    1
    26     7    12    1
    27    12    13    1
    28    12    10    1
    29    17    16    1
    30    17    18    1
    31     4     5    1
    32     4     1    1
    33    40    39    2
    34    24    27    1
    35    24    25    1
    36    24    23    1
    37     8    10    1
    38    39    41   am
    39    13    14    1
    40    16    15    2
    41    10    11    1
    42    31    32    1
    43    31    33    1
    44     3     1    2
    45    33    34    1
    46     1    23    1
    47     1     2    1
    48    14    15    1
