@<TRIPOS>MOLECULE
1dcc_HEM_A_1.pdb
 43 50 0 0 0
SMALL
GASTEIGER

@<TRIPOS>ATOM
      1 FE         -5.4710   57.2830   20.8980 Fe    296  HEM296      0.0000
      2  CHA       -5.3560   54.1820   22.2050 C.2   296  HEM296      0.0000
      3  CHB       -7.2300   58.4390   23.8270 C.2   296  HEM296      0.0000
      4  CHC       -5.6000   60.3380   19.7780 C.2   296  HEM296      0.0000
      5  CHD       -3.2700   56.3720   18.4430 C.2   296  HEM296      0.0000
      6  NA        -6.0970   56.5820   22.5400 N.2   296  HEM296      0.0000
      7  C1A       -5.8270   55.2660   22.9180 C.2   296  HEM296      0.0000
      8  C2A       -6.3890   55.0170   24.2260 C.2   296  HEM296      0.0000
      9  C3A       -7.0930   56.1150   24.5560 C.2   296  HEM296      0.0000
     10  C4A       -6.8250   57.1370   23.5750 C.2   296  HEM296      0.0000
     11  CMA       -7.7250   56.5020   25.8920 C.3   296  HEM296      0.0000
     12  CAA       -6.2950   53.6120   24.8960 C.3   296  HEM296      0.0000
     13  CBA       -5.0040   53.2830   25.6920 C.3   296  HEM296      0.0000
     14  CGA       -5.0690   52.0070   26.5140 C.2   296  HEM296      0.0000
     15  O1A       -5.9300   51.8850   27.4330 O.co2 296  HEM296      0.0000
     16  O2A       -4.1570   51.1450   26.3920 O.co2 296  HEM296      0.0000
     17  NB        -6.4390   58.9340   21.5740 N.ar  296  HEM296      0.0000
     18  C1B       -7.0200   59.2760   22.7670 C.ar  296  HEM296      0.0000
     19  C2B       -7.5580   60.6010   22.6740 C.ar  296  HEM296      0.0000
     20  C3B       -7.1650   61.0950   21.5000 C.ar  296  HEM296      0.0000
     21  C4B       -6.4840   60.0570   20.7860 C.ar  296  HEM296      0.0000
     22  CMB       -8.3140   61.2770   23.8280 C.3   296  HEM296      0.0000
     23  CAB       -7.4510   62.4460   20.8660 C.2   296  HEM296      0.0000
     24  CBB       -8.3670   63.1630   21.4730 C.2   296  HEM296      0.0000
     25  NC        -4.6940   58.1360   19.3030 N.2   296  HEM296      0.0000
     26  C1C       -4.7940   59.4940   19.0640 C.2   296  HEM296      0.0000
     27  C2C       -4.0680   59.8280   17.8390 C.2   296  HEM296      0.0000
     28  C3C       -3.2530   58.7850   17.6170 C.2   296  HEM296      0.0000
     29  C4C       -3.7590   57.6640   18.4090 C.2   296  HEM296      0.0000
     30  CMC       -3.8420   61.2570   17.2610 C.3   296  HEM296      0.0000
     31  CAC       -2.2110   58.6450   16.4850 C.2   296  HEM296      0.0000
     32  CBC       -2.3370   59.2580   15.3130 C.2   296  HEM296      0.0000
     33  ND        -4.3010   55.6470   20.5180 N.ar  296  HEM296      0.0000
     34  C1D       -3.7810   55.3890   19.2680 C.ar  296  HEM296      0.0000
     35  C2D       -3.4160   53.9930   19.2350 C.ar  296  HEM296      0.0000
     36  C3D       -3.9390   53.4220   20.3220 C.ar  296  HEM296      0.0000
     37  C4D       -4.6980   54.4240   21.0160 C.ar  296  HEM296      0.0000
     38  CMD       -2.8390   53.2920   18.0060 C.3   296  HEM296      0.0000
     39  CAD       -4.0730   51.9390   20.6630 C.3   296  HEM296      0.0000
     40  CBD       -2.9010   51.5210   21.5530 C.3   296  HEM296      0.0000
     41  CGD       -2.8010   50.0740   21.9190 C.2   296  HEM296      0.0000
     42  O1D       -2.1190   49.9790   22.9720 O.co2 296  HEM296      0.0000
     43  O2D       -3.4410   49.2490   21.1980 O.co2 296  HEM296      0.0000
@<TRIPOS>BOND
     1    32    31    2
     2    31    28    1
     3    30    27    1
     4    28    27    2
     5    28    29    1
     6    27    26    1
     7    38    35    1
     8    29     5    1
     9    29    25    2
    10     5    34    2
    11    26    25    1
    12    26     4    2
    13    35    34   ar
    14    35    36   ar
    15    34    33   ar
    16    25     1    1
    17     4    21    1
    18    36    39    1
    19    36    37   ar
    20    33     1    1
    21    33    37   ar
    22    39    40    1
    23    21    20   ar
    24    21    17   ar
    25    23    24    2
    26    23    20    1
    27     1    17    1
    28     1     6    1
    29    37     2    2
    30    43    41   ar
    31    20    19   ar
    32    40    41    1
    33    17    18   ar
    34    41    42   ar
    35     2     7    1
    36     6     7    2
    37     6    10    1
    38    19    18   ar
    39    19    22    1
    40    18     3    1
    41     7     8    1
    42    10     3    2
    43    10     9    1
    44     8     9    2
    45     8    12    1
    46     9    11    1
    47    12    13    1
    48    13    14    1
    49    16    14   ar
    50    14    15   ar
