@<TRIPOS>MOLECULE
1dcn_AS1_D_1.pdb
 20 19 0 0 0
SMALL
GASTEIGER

@<TRIPOS>ATOM
      1  O51       42.8800   46.6860   97.2570 O.co2   0  AS10       -0.2440
      2  O52       42.6440   48.7060   98.0000 O.co2   0  AS10       -0.2440
      3  C5        42.2180   47.5220   97.8920 C.2     0  AS10        0.3829
      4  C4        40.9060   47.1040   98.5180 C.3     0  AS10        0.2073
      5  N4        39.9800   46.1260   97.9980 N.3     0  AS10       -0.1197
      6  C3        40.5490   47.8190   99.8680 C.3     0  AS10        0.1098
      7  C2        39.6130   49.0730   99.8450 C.1     0  AS10       -0.0472
      8  C1        38.7380   50.2990  100.2280 C.1     0  AS10        0.1290
      9  N2        37.6770   51.6080  100.4030 N.pl3   0  AS10       -0.0082
     10  C         37.1020   52.5360  101.1840 C.cat   0  AS10        0.5090
     11  N3        36.5690   51.9030  102.3390 N.pl3   0  AS10        0.1330
     12  N1        36.9080   53.9100  101.1380 N.pl3   0  AS10       -0.0796
     13  CA        36.0520   54.7240  101.8430 C.3     0  AS10        0.2938
     14  CG        35.0270   55.1630  100.7500 C.2     0  AS10        0.4045
     15  OG2       34.7610   56.3460  100.4820 O.co2   0  AS10       -0.2418
     16  OG1       34.4100   54.3060  100.0800 O.co2   0  AS10       -0.2418
     17  CB        36.7250   56.2030  102.5980 C.3     0  AS10        0.1690
     18  CD        35.9450   57.3070  103.4660 C.2     0  AS10        0.3690
     19  OD1       36.5950   58.3120  103.8390 O.co2   0  AS10       -0.2455
     20  OD2       34.6900   57.1720  103.7710 O.co2   0  AS10       -0.2455
@<TRIPOS>BOND
     1     1     3   ar
     2     3     2   ar
     3     3     4    1
     4     5     4    1
     5     4     6    1
     6     7     6    1
     7     7     8    3
     8    16    14   ar
     9     8     9    1
    10     9    10    1
    11    15    14   ar
    12    14    13    1
    13    12    10    1
    14    12    13    1
    15    10    11    2
    16    13    17    1
    17    17    18    1
    18    18    20   ar
    19    18    19   ar
