@<TRIPOS>MOLECULE
1dd4_TBR_A_1.pdb
 18 16 0 0 0
SMALL
GASTEIGER

@<TRIPOS>ATOM
      1 TA1        -6.9850   -7.7790   16.1650 Ta    401  TBR401      0.0000
      2 TA2        -9.6370   -7.4340   17.3530 Ta    401  TBR401      0.0000
      3 TA3        -9.0050   -9.8970   15.8480 Ta    401  TBR401      0.0000
      4 TA4        -9.3230   -9.9730   18.7730 Ta    401  TBR401      0.0000
      5 TA5        -6.6720  -10.3180   17.5840 Ta    401  TBR401      0.0000
      6 TA6        -7.3050   -7.8560   19.0890 Ta    401  TBR401      0.0000
      7 BR1        -8.5610   -5.7460   15.6920 Br    401  TBR401      0.0000
      8 BR2        -7.7460   -8.7390   13.8580 Br    401  TBR401      0.0000
      9 BR3        -4.8900   -9.3020   15.9860 Br    401  TBR401      0.0000
     10 BR4        -5.6510   -6.2860   17.8460 Br    401  TBR401      0.0000
     11 BR5       -11.0390   -8.3250   15.3600 Br    401  TBR401      0.0000
     12 BR6        -7.3290  -11.8900   15.6320 Br    401  TBR401      0.0000
     13 BR7        -7.7480  -12.0070   19.2450 Br    401  TBR401      0.0000
     14 BR8        -8.5620   -9.0150   21.0790 Br    401  TBR401      0.0000
     15 BR9       -11.4190   -8.4500   18.9510 Br    401  TBR401      0.0000
     16 BRA       -10.6560  -11.4660   17.0920 Br    401  TBR401      0.0000
     17 BRB        -5.2700   -9.4260   19.5780 Br    401  TBR401      0.0000
     18 BRC        -8.9790   -5.8620   19.3050 Br    401  TBR401      0.0000
@<TRIPOS>BOND
     1     8     1    1
     2    11     2    1
     3    12     5    1
     4     7     2    1
     5     3    16    1
     6     9     1    1
     7     1     2    1
     8     1     5    1
     9     2     4    1
    10     2    18    1
    11     5     4    1
    12     5    13    1
    13     5    17    1
    14    10     6    1
    15     4    15    1
    16     4    14    1
