@<TRIPOS>MOLECULE
1dd6_MCI_A_1.pdb
 29 31 0 0 0
SMALL
GASTEIGER

@<TRIPOS>ATOM
      1  C2         7.7630   10.0820   86.0050 C.ar  550  MCI550     -0.0222
      2  C1         7.0840    9.7950   87.2320 C.ar  550  MCI550     -0.0043
      3  C3         8.0140    9.0110   85.1040 C.ar  550  MCI550     -0.0043
      4  C4         7.6090    7.6980   85.4150 C.ar  550  MCI550     -0.0003
      5  C5         6.9500    7.4380   86.6310 C.ar  550  MCI550     -0.0000
      6  C6         6.6870    8.4860   87.5410 C.ar  550  MCI550     -0.0003
      7  C12        8.2410   11.4920   85.6810 C.3   550  MCI550      0.0269
      8  C13        9.3500   12.0820   86.5900 C.3   550  MCI550      0.0147
      9  C16       10.7910   11.5830   86.3410 C.3   550  MCI550      0.0901
     10  C19       11.6340   11.6900   87.6210 C.3   550  MCI550      0.0778
     11  S20       13.3170   11.0780   87.3330 S.3   550  MCI550     -0.0816
     12  C23       11.4890   12.5060   85.2480 C.2   550  MCI550      0.2423
     13  O25       11.5360   13.7060   85.4280 O.2   550  MCI550     -0.2733
     14  N26       12.0460   12.0010   84.1350 N.am  550  MCI550     -0.1947
     15  C27       12.7760   10.7730   83.8560 C.3   550  MCI550      0.2075
     16  C28       14.3130   10.9210   84.0740 C.2   550  MCI550      0.3851
     17  O29       14.9770   11.8050   83.6480 O.co2 550  MCI550     -0.2437
     18  O30       14.8200    9.8890   84.7600 O.co2 550  MCI550     -0.2437
     19  C31       12.5350   10.3890   82.4270 C.3   550  MCI550      0.0787
     20  C33       11.8900   11.0730   81.4570 C.3   550  MCI550      0.0140
     21  C34       11.7110   10.2710   80.2370 C.3   550  MCI550      0.0132
     22  C35       12.4610    9.1480   80.2480 C.3   550  MCI550      0.0652
     23  S36       13.1630    8.8770   81.8440 S.3   550  MCI550     -0.1382
     24  C37       12.7540    8.1470   79.1190 C.3   550  MCI550      0.1039
     25  N38       14.1280    8.0390   78.4880 N.3   550  MCI550     -0.1668
     26  C41       15.3340    8.4700   79.1050 C.3   550  MCI550      0.2021
     27  N42       16.2670    9.0100   78.2380 N.3   550  MCI550     -0.0931
     28  N43       15.5730    9.1100   77.0390 N.3   550  MCI550     -0.0202
     29  N44       14.1990    8.7830   77.2620 N.3   550  MCI550     -0.0348
@<TRIPOS>BOND
     1    28    29    1
     2    28    27    1
     3    29    25    1
     4    27    26    1
     5    25    26    1
     6    25    24    1
     7    24    22    1
     8    21    22    1
     9    21    20    1
    10    22    23    1
    11    20    19    1
    12    23    19    1
    13    19    15    1
    14    17    16   ar
    15    15    16    1
    16    15    14    1
    17    16    18   ar
    18    14    12   am
    19     3     4   ar
    20     3     1   ar
    21    12    13    2
    22    12     9    1
    23     4     5   ar
    24     7     1    1
    25     7     8    1
    26     1     2   ar
    27     9     8    1
    28     9    10    1
    29     5     6   ar
    30     2     6   ar
    31    11    10    1
