@<TRIPOS>MOLECULE
1dd7_1PM_A_1.pdb
 36 40 0 0 0
SMALL
GASTEIGER

@<TRIPOS>ATOM
      1  N3        68.0280   -8.9750   52.3590 N.ar  601  1PM601     -0.2197
      2  C4        66.6830   -8.8460   52.4850 C.ar  601  1PM601      0.1136
      3  C5        66.3670   -9.1610   53.7660 C.ar  601  1PM601      0.1204
      4  NFE       67.5180   -9.4670   54.4400 N.ar  601  1PM601     -0.2214
      5  C2        68.4970   -9.3400   53.5470 C.ar  601  1PM601      0.1926
      6  C11       68.7810   -8.7610   51.2500 C.1   601  1PM601      0.1676
      7  N12       70.1210   -8.9500   51.2640 N.2   601  1PM601     -0.3199
      8  C13       70.9390   -8.7910   50.1860 C.2   601  1PM601      0.1980
      9  C14       70.3220   -8.4010   48.9660 C.2   601  1PM601      0.0701
     10  C15       68.9490   -8.2000   48.9350 C.2   601  1PM601      0.1159
     11  N16       68.2220   -8.3840   50.0620 N.2   601  1PM601     -0.1673
     12  N21       72.2540   -9.0340   50.3500 N.pl3 601  1PM601     -0.2805
     13  C22       72.7860   -9.2670   51.6820 C.3   601  1PM601      0.1147
     14  C23       73.3590  -10.6800   51.7160 C.3   601  1PM601      0.1182
     15  N24       74.4290  -10.7400   50.7410 N.am  601  1PM601     -0.2426
     16  C25       74.0620  -10.4290   49.3510 C.3   601  1PM601      0.1170
     17  C26       73.2050   -9.1090   49.2240 C.3   601  1PM601      0.1041
     18  C27       75.7150  -11.0610   51.1000 C.2   601  1PM601      0.4051
     19  O28       76.0160  -11.3140   52.3020 O.2   601  1PM601     -0.2262
     20  O29       76.7030  -11.1180   50.1710 O.3   601  1PM601     -0.4304
     21  C30       78.0860  -11.4410   50.3610 C.3   601  1PM601      0.2573
     22  C31       74.0970   -7.8060   49.1480 C.3   601  1PM601      0.1065
     23  C32       73.3140   -6.5240   48.9780 C.2   601  1PM601      0.2244
     24  O33       72.9550   -6.1780   47.8090 O.2   601  1PM601     -0.2750
     25  N34       72.9830   -5.7380   50.0510 N.am  601  1PM601     -0.3004
     26  C36       72.2340   -4.5080   50.0020 C.3   601  1PM601      0.1164
     27  C41       71.2730   -4.4990   51.1140 C.ar  601  1PM601      0.0006
     28  C42       71.5580   -3.7590   52.2790 C.ar  601  1PM601      0.0007
     29  C43       70.6640   -3.7520   53.3710 C.ar  601  1PM601      0.0399
     30  C44       69.4660   -4.4780   53.2590 C.ar  601  1PM601      0.1764
     31  C45       69.1890   -5.2090   52.1330 C.ar  601  1PM601      0.1762
     32  C46       70.0640   -5.2240   51.0410 C.ar  601  1PM601      0.0376
     33  O47       68.4710   -4.6350   54.1440 O.3   601  1PM601     -0.4346
     34  C48       67.4820   -5.4780   53.5770 C.3   601  1PM601      0.4294
     35  O49       68.0020   -5.8040   52.2900 O.3   601  1PM601     -0.4346
     36  H35       73.2740   -6.0370   50.9290 H     601  1PM601      0.1497
@<TRIPOS>BOND
     1    24    23    2
     2    10     9    2
     3    10    11    1
     4     9     8    1
     5    23    22    1
     6    23    25   am
     7    22    17    1
     8    17    16    1
     9    17    12    1
    10    16    15    1
    11    26    25    1
    12    26    27    1
    13    25    36    1
    14    11     6    2
    15    20    21    1
    16    20    18    1
    17     8    12    1
    18     8     7    2
    19    12    13    1
    20    15    18   am
    21    15    14    1
    22    32    27   ar
    23    32    31   ar
    24    18    19    2
    25    27    28   ar
    26     6     7    2
    27     6     1    1
    28    13    14    1
    29    31    35    1
    30    31    30   ar
    31    28    29   ar
    32    35    34    1
    33     1     2   ar
    34     1     5   ar
    35     2     3   ar
    36    30    29   ar
    37    30    33    1
    38     5     4   ar
    39    34    33    1
    40     3     4   ar
