@<TRIPOS>MOLECULE
1dd7_HEM_A_1.pdb
 47 54 0 0 0
SMALL
GASTEIGER

@<TRIPOS>ATOM
      1 FE         68.3230   -9.4780   56.4640 Fe    600  HEM600      0.0000
      2  CHA       71.5970   -9.7020   55.4680 C.2   600  HEM600      0.0000
      3  CHB       68.5370   -6.1080   56.9830 C.2   600  HEM600      0.0000
      4  CHC       64.8500   -9.3200   56.6660 C.2   600  HEM600      0.0000
      5  CHD       68.0530  -13.0490   56.4840 C.2   600  HEM600      0.0000
      6  NA        69.6810   -8.2260   56.2170 N.2   600  HEM600      0.0000
      7  C1A       71.0170   -8.4410   55.7460 C.2   600  HEM600      0.0000
      8  C2A       71.7810   -7.2180   55.8030 C.2   600  HEM600      0.0000
      9  C3A       70.9400   -6.2380   56.3090 C.2   600  HEM600      0.0000
     10  C4A       69.6540   -6.8250   56.5430 C.2   600  HEM600      0.0000
     11  CMA       71.3400   -4.8130   56.6060 C.3   600  HEM600      0.0000
     12  CAA       73.2600   -7.1050   55.4020 C.3   600  HEM600      0.0000
     13  CBA       73.3020   -6.5370   54.0000 C.3   600  HEM600      0.0000
     14  CGA       74.6540   -6.6600   53.3280 C.2   600  HEM600      0.0000
     15  O1A       74.8980   -5.8620   52.4100 O.co2 600  HEM600      0.0000
     16  O2A       75.4500   -7.5660   53.6690 O.co2 600  HEM600      0.0000
     17  NB        66.9780   -8.0160   56.8010 N.ar  600  HEM600      0.0000
     18  C1B       67.2630   -6.6430   57.0400 C.ar  600  HEM600      0.0000
     19  C2B       66.0820   -5.8820   57.2760 C.ar  600  HEM600      0.0000
     20  C3B       65.0260   -6.7800   57.2350 C.ar  600  HEM600      0.0000
     21  C4B       65.5760   -8.0950   56.9050 C.ar  600  HEM600      0.0000
     22  CMB       66.0620   -4.3590   57.3100 C.3   600  HEM600      0.0000
     23  CAB       63.7050   -6.3780   57.2550 C.3   600  HEM600      0.0000
     24  CBB       62.5970   -7.0910   57.6920 C.3   600  HEM600      0.0000
     25  NC        66.7180  -10.9630   56.5000 N.2   600  HEM600      0.0000
     26  C1C       65.3540  -10.6630   56.5040 C.2   600  HEM600      0.0000
     27  C2C       64.5520  -11.9190   56.4310 C.2   600  HEM600      0.0000
     28  C3C       65.4830  -12.9690   56.4760 C.2   600  HEM600      0.0000
     29  C4C       66.8160  -12.3800   56.5360 C.2   600  HEM600      0.0000
     30  CMC       63.0230  -12.0060   56.3640 C.3   600  HEM600      0.0000
     31  CAC       65.2270  -14.3380   56.3950 C.3   600  HEM600      0.0000
     32  CBC       64.0690  -15.0940   56.6550 C.3   600  HEM600      0.0000
     33  ND        69.6130  -11.0150   56.1470 N.ar  600  HEM600      0.0000
     34  C1D       69.3430  -12.4470   56.2340 C.ar  600  HEM600      0.0000
     35  C2D       70.4870  -13.1830   55.7540 C.ar  600  HEM600      0.0000
     36  C3D       71.5310  -12.2560   55.4390 C.ar  600  HEM600      0.0000
     37  C4D       70.9600  -10.9230   55.6560 C.ar  600  HEM600      0.0000
     38  CMD       70.5060  -14.6910   55.8570 C.3   600  HEM600      0.0000
     39  CAD       73.0110  -12.5390   55.4170 C.3   600  HEM600      0.0000
     40  CBD       73.4960  -12.7320   56.8390 C.3   600  HEM600      0.0000
     41  CGD       74.9700  -13.0880   56.9260 C.2   600  HEM600      0.0000
     42  O1D       75.5260  -12.9840   58.0460 O.co2 600  HEM600      0.0000
     43  O2D       75.5710  -13.4810   55.8920 O.co2 600  HEM600      0.0000
     44  HHA       72.6650   -9.8000   55.3340 H     600  HEM600      0.0000
     45  HHB       68.6370   -5.2890   57.6730 H     600  HEM600      0.0000
     46  HHC       64.1480   -9.3570   55.8830 H     600  HEM600      0.0000
     47  HHD       67.8400  -14.0810   56.6550 H     600  HEM600      0.0000
@<TRIPOS>BOND
     1    15    14   ar
     2    14    16   ar
     3    14    13    1
     4    13    12    1
     5    44     2    1
     6    12     8    1
     7    39    36    1
     8    39    40    1
     9    36    37   ar
    10    36    35   ar
    11     2    37    2
    12     2     7    1
    13    37    33   ar
    14     7     8    1
    15     7     6    2
    16    35    38    1
    17    35    34   ar
    18     8     9    2
    19    46     4    1
    20    43    41   ar
    21    33    34   ar
    22    33     1    1
    23     6     1    1
    24     6    10    1
    25    34     5    2
    26     9    10    1
    27     9    11    1
    28    30    27    1
    29    31    28    1
    30    31    32    1
    31    27    28    2
    32    27    26    1
    33     1    25    1
    34     1    17    1
    35    28    29    1
    36     5    29    1
    37     5    47    1
    38    25    26    1
    39    25    29    2
    40    26     4    2
    41    10     3    2
    42     4    21    1
    43    17    21   ar
    44    17    18   ar
    45    40    41    1
    46    21    20   ar
    47    41    42   ar
    48     3    18    1
    49     3    45    1
    50    18    19   ar
    51    20    23    1
    52    20    19   ar
    53    23    24    1
    54    19    22    1
