@<TRIPOS>MOLECULE
1ddi_NAP_A_1.pdb
 27 27 0 0 0
SMALL
GASTEIGER

@<TRIPOS>ATOM
      1  PA        14.5880   64.2350    1.0230 P.3   601  NAP601      0.1515
      2  O1A       12.3850   62.1360    0.8600 O.3   601  NAP601      0.0000
      3  O2A       13.4090   63.1480    0.6160 O.3   601  NAP601      0.0000
      4  O5B       15.5010   63.1000    0.9050 O.3   601  NAP601     -0.3060
      5  C5B       15.9900   61.8000    1.9310 C.3   601  NAP601      0.1108
      6  C4B       16.0790   61.7330    0.4950 C.3   601  NAP601      0.2426
      7  C3B       15.3470   60.4000    0.4990 C.3   601  NAP601      0.1768
      8  O3B       16.5780   60.9110   -0.0010 O.3   601  NAP601     -0.3275
      9  C2B       14.4310   60.0630    1.6680 C.3   601  NAP601      0.2002
     10  O2B       13.3630   59.1350    1.4050 O.3   601  NAP601     -0.2659
     11  C1B       14.8980   61.1650    2.6300 C.3   601  NAP601      0.1971
     12  N9A       15.3160   61.6660    3.9820 N.pl3 601  NAP601     -0.1689
     13  C8A       14.6270   61.2410    5.0770 C.3   601  NAP601      0.3358
     14  N7A       15.4850   61.3170    6.0950 N.2   601  NAP601     -0.2096
     15  C5A       16.4780   62.1040    5.6210 C.2   601  NAP601      0.2525
     16  C6A       17.6640   62.4560    6.3370 C.2   601  NAP601      0.4393
     17  N6A       17.8550   61.9870    7.5820 N.pl3 601  NAP601      0.2180
     18  N1A       18.5120   63.2550    5.6740 N.2   601  NAP601      0.0021
     19  C2A       18.1680   63.6050    4.4350 C.3   601  NAP601      0.5254
     20  N3A       17.1440   63.3620    3.6370 N.2   601  NAP601     -0.0055
     21  C4A       16.2940   62.5450    4.3030 C.2   601  NAP601      0.3500
     22  O3        12.3570   62.0040    0.9060 O.3   601  NAP601     -0.2528
     23  P2B       13.7190   57.7560    1.4530 P.3   601  NAP601      0.5327
     24  O1X       14.1380   56.8070    0.4880 O.3   601  NAP601     -0.1145
     25  O2X       13.0820   57.9570    0.1970 O.3   601  NAP601     -0.1145
     26  O3X       13.6390   57.0640    2.6950 O.2   601  NAP601     -0.2224
     27 HOA2       12.7420   61.8230    0.5710 H     601  NAP601      0.2528
@<TRIPOS>BOND
     1     8     6    1
     2     8     7    1
     3    25    24    1
     4    25    23    1
     5    24    23    1
     6     6     4    1
     7     6     5    1
     8    27    22    1
     9     3     2    1
    10     4     1    1
    11    10    23    1
    12    10     9    1
    13    23    26    2
    14     9    11    1
    15     5    11    1
    16    11    12    1
    17    20    21    2
    18    20    19    1
    19    12    21    1
    20    12    13    1
    21    21    15    1
    22    19    18    1
    23    13    14    1
    24    15    14    2
    25    15    16    1
    26    18    16    2
    27    16    17    1
