@<TRIPOS>MOLECULE
1ddl_NUC_E_1.pdb
 41 44 0 0 0
SMALL
GASTEIGER

@<TRIPOS>ATOM
      1  OP3        7.9110   46.3150  109.0130 O.2     1  RU1        -0.2224
      2  P          8.7900   46.9530  110.2200 P.3     1  RU1         0.5327
      3  OP1        9.2720   45.8150  111.0920 O.3     1  RU1        -0.1145
      4  OP2        9.7790   47.8570  109.5910 O.3     1  RU1        -0.1145
      5  O5'        7.7750   47.9340  111.0040 O.3     1  RU1        -0.2675
      6  C5'        7.9200   49.3710  110.9390 C.3     1  RU1         0.1858
      7  C4'        7.0790   50.1000  112.0000 C.3     1  RU1         0.1773
      8  O4'        6.1350   50.9990  111.3520 O.3     1  RU1        -0.3321
      9  C3'        6.1960   49.3580  113.0020 C.3     1  RU1         0.1857
     10  O3'        6.8950   48.6910  114.0690 O.3     1  RU1        -0.3112
     11  C2'        5.3070   50.4870  113.5230 C.3     1  RU1         0.2291
     12  O2'        5.9070   51.2570  114.5330 O.3     1  RU1        -0.2158
     13  C1'        5.1060   51.3450  112.2710 C.3     1  RU1         0.2399
     14  N1         3.7960   51.0740  111.6600 N.am    1  RU1        -0.1766
     15  C2         2.9260   52.1330  111.4940 C.1     1  RU1         0.2845
     16  O2         3.2120   53.2840  111.8000 O.2     1  RU1        -0.1918
     17  N3         1.7080   51.7940  110.9500 N.2     1  RU1        -0.2452
     18  C4         1.2830   50.5240  110.5630 C.1     1  RU1         0.2182
     19  O4         0.2050   50.3850  109.9900 O.2     1  RU1        -0.2085
     20  C5         2.2420   49.4960  110.7670 C.2     1  RU1         0.1242
     21  C6         3.4350   49.7950  111.2870 C.2     1  RU1         0.0929
     22  P          6.0580   47.9360  115.2480 P.3     2  RU2         0.2141
     23  OP1        6.4330   46.5040  115.3380 O.3     2  RU2        -0.4373
     24  OP2        4.6240   48.2970  115.1040 O.2     2  RU2        -0.5172
     25  O5'        6.5590   48.5970  116.6100 O.3     2  RU2        -0.3114
     26  C5'        6.4440   47.8890  117.8530 C.3     2  RU2         0.1813
     27  C4'        5.4460   48.5910  118.7480 C.3     2  RU2         0.1799
     28  O4'        6.0570   48.9860  119.9940 O.3     2  RU2        -0.3320
     29  C3'        4.8450   49.8900  118.1890 C.3     2  RU2         0.2158
     30  O3'        3.7410   49.7240  117.2150 O.3     2  RU2        -0.2175
     31  C2'        4.4190   50.6660  119.4420 C.3     2  RU2         0.2319
     32  O2'        3.0640   50.4770  119.7640 O.3     2  RU2        -0.2157
     33  C1'        5.2760   50.0330  120.5440 C.3     2  RU2         0.2401
     34  N1         6.1100   50.9160  121.3700 N.am    2  RU2        -0.1766
     35  C2         5.4720   51.6890  122.3310 C.1     2  RU2         0.2845
     36  O2         4.2600   51.7080  122.4770 O.2     2  RU2        -0.1918
     37  N3         6.3070   52.4420  123.1160 N.2     2  RU2        -0.2452
     38  C4         7.6800   52.5080  123.0370 C.1     2  RU2         0.2182
     39  O4         8.3010   53.1800  123.8600 O.2     2  RU2        -0.2085
     40  C5         8.2590   51.7060  122.0020 C.2     2  RU2         0.1242
     41  C6         7.4720   50.9580  121.2230 C.2     2  RU2         0.0929
@<TRIPOS>BOND
     1     1     2    2
     2     4     2    1
     3    19    18    2
     4     2     5    1
     5     2     3    1
     6    18    20    1
     7    18    17    2
     8    20    21    2
     9     6     5    1
    10     6     7    1
    11    17    15    2
    12    21    14    1
    13     8     7    1
    14     8    13    1
    15    15    14   am
    16    15    16    2
    17    14    13    1
    18     7     9    1
    19    13    11    1
    20     9    11    1
    21     9    10    1
    22    11    12    1
    23    10    22    1
    24    24    22    2
    25    22    23    1
    26    22    25    1
    27    25    26    1
    28    30    29    1
    29    26    27    1
    30    29    27    1
    31    29    31    1
    32    27    28    1
    33    31    32    1
    34    31    33    1
    35    28    33    1
    36    33    34    1
    37    41    34    1
    38    41    40    2
    39    34    35   am
    40    40    38    1
    41    35    36    2
    42    35    37    2
    43    38    37    2
    44    38    39    2
