@<TRIPOS>MOLECULE
1ddo_ITR_A_1.pdb
 15 16 0 0 0
SMALL
GASTEIGER

@<TRIPOS>ATOM
      1  N         63.7090    6.3340   47.6680 N.2   349  ITR349     -0.1454
      2  CA        64.8800    6.5350   47.0910 C.2   349  ITR349      0.1639
      3  CB        64.9620    7.4770   45.9300 C.3   349  ITR349      0.0787
      4  CG        64.4630    6.7600   44.7260 C.2   349  ITR349     -0.0096
      5  CD1       65.1800    6.3270   43.6410 C.2   349  ITR349      0.0910
      6  NE1       64.3420    5.6920   42.7600 N.2   349  ITR349     -0.2481
      7  CE2       63.0690    5.7130   43.2640 C.2   349  ITR349      0.0665
      8  CZ2       61.8800    5.2140   42.7330 C.2   349  ITR349      0.0153
      9  CH2       60.7270    5.3740   43.4610 C.2   349  ITR349      0.0009
     10  CZ3       60.7490    5.9910   44.7100 C.2   349  ITR349     -0.0038
     11  CE3       61.9480    6.4680   45.2620 C.2   349  ITR349     -0.0164
     12  CD2       63.1210    6.3390   44.5160 C.3   349  ITR349      0.0822
     13  C         66.0670    5.6770   47.4150 C.2   349  ITR349      0.4031
     14  O         65.8580    4.6530   48.1010 O.co2 349  ITR349     -0.2391
     15  OXT       67.1700    6.0280   46.9520 O.co2 349  ITR349     -0.2391
@<TRIPOS>BOND
     1     8     7    1
     2     8     9    2
     3     6     7    2
     4     6     5    1
     5     7    12    1
     6     9    10    1
     7     5     4    2
     8    12     4    1
     9    12    11    1
    10    10    11    2
    11     4     3    1
    12     3     2    1
    13    15    13   ar
    14     2    13    1
    15     2     1    2
    16    13    14   ar
