@<TRIPOS>MOLECULE
1ddo_DTR_E_1.pdb
 15 16 0 0 0
SMALL
GASTEIGER

@<TRIPOS>ATOM
      1  N         89.2300   56.2220   20.7910 N.3   350  DTR350     -0.1205
      2  CA        89.9240   56.7060   19.5790 C.3   350  DTR350      0.1984
      3  CB        89.0650   56.3790   18.3540 C.3   350  DTR350      0.0549
      4  CG        88.6870   54.9730   18.3830 C.2   350  DTR350     -0.0138
      5  CD1       89.5050   53.9150   18.1540 C.2   350  DTR350      0.0907
      6  NE1       88.8530   52.7430   18.4920 N.2   350  DTR350     -0.2482
      7  CE2       87.5860   53.0460   18.9060 C.2   350  DTR350      0.0665
      8  CZ2       86.5420   52.2190   19.3010 C.2   350  DTR350      0.0153
      9  CH2       85.3980   52.8280   19.7340 C.2   350  DTR350      0.0009
     10  CZ3       85.2760   54.2350   19.7740 C.2   350  DTR350     -0.0038
     11  CE3       86.2920   55.0360   19.3700 C.2   350  DTR350     -0.0164
     12  CD2       87.4830   54.4490   18.9350 C.3   350  DTR350      0.0819
     13  C         91.3290   56.1350   19.3600 C.2   350  DTR350      0.3822
     14  O         92.1400   56.9180   18.7840 O.co2 350  DTR350     -0.2440
     15  OXT       91.5340   54.9540   19.7040 O.co2 350  DTR350     -0.2440
@<TRIPOS>BOND
     1     5     4    2
     2     5     6    1
     3     3     4    1
     4     3     2    1
     5     4    12    1
     6     6     7    2
     7    14    13   ar
     8     7    12    1
     9     7     8    1
    10    12    11    1
    11     8     9    2
    12    13     2    1
    13    13    15   ar
    14    11    10    2
    15     2     1    1
    16     9    10    1
