@<TRIPOS>MOLECULE
1ddr_MTX_A_1.pdb
 33 35 0 0 0
SMALL
GASTEIGER

@<TRIPOS>ATOM
      1  N1        22.8840   58.6840   24.0480 N.2   200  MTX200     -0.2684
      2  C2        23.4880   58.1930   22.9280 C.1   200  MTX200      0.2519
      3  NA2       24.8680   58.0790   22.8270 N.pl3 200  MTX200     -0.0226
      4  N3        22.7370   57.7800   21.8850 N.2   200  MTX200     -0.3033
      5  C4        21.3650   57.7710   21.7550 C.2   200  MTX200      0.2728
      6  NA4       20.6760   57.2600   20.6320 N.pl3 200  MTX200     -0.0887
      7  C4A       20.7300   58.2930   22.9320 C.2   200  MTX200      0.2518
      8  N5        19.3740   58.3480   22.9530 N.2   200  MTX200     -0.3917
      9  C6        18.8320   58.8100   24.0350 C.2   200  MTX200      0.1330
     10  C7        19.6240   59.2220   25.0870 C.3   200  MTX200      0.1930
     11  N8        20.9890   59.2160   25.1680 N.2   200  MTX200     -0.1998
     12  C8A       21.5200   58.7250   24.0240 C.1   200  MTX200      0.1314
     13  C9        17.3240   58.8500   24.1290 C.3   200  MTX200      0.1481
     14  N10       16.8440   59.9720   25.1160 N.pl3 200  MTX200     -0.2999
     15  CM        15.9520   59.0900   25.9920 C.3   200  MTX200      0.1125
     16  C11       17.7950   64.0820   25.3940 C.ar  200  MTX200      0.0551
     17  C12       17.1840   63.3430   26.4120 C.ar  200  MTX200      0.0058
     18  C13       16.9240   62.0060   26.2560 C.ar  200  MTX200      0.0147
     19  C14       17.2650   61.3410   25.0770 C.ar  200  MTX200      0.0482
     20  C15       17.8940   62.0740   24.0630 C.ar  200  MTX200      0.0147
     21  C16       18.1540   63.4110   24.2200 C.ar  200  MTX200      0.0058
     22  C         17.8430   65.5590   25.6900 C.2   200  MTX200      0.2652
     23  O         17.2550   66.0660   26.6600 O.2   200  MTX200     -0.2684
     24  N         18.4300   66.3030   24.7640 N.am  200  MTX200     -0.1918
     25  CA        19.8610   66.2800   24.5140 C.3   200  MTX200      0.1986
     26  CT        20.0500   66.9460   23.1820 C.2   200  MTX200      0.3842
     27  O1        20.3430   66.1900   22.2310 O.co2 200  MTX200     -0.2437
     28  O2        19.7950   68.1680   23.1020 O.co2 200  MTX200     -0.2437
     29  CB        20.6310   67.0240   25.6180 C.3   200  MTX200      0.0451
     30  CG        19.9840   68.3170   26.0850 C.3   200  MTX200      0.1164
     31  CD        20.5800   68.8480   27.3650 C.2   200  MTX200      0.3649
     32  OE1       21.4360   68.1540   27.9610 O.co2 200  MTX200     -0.2457
     33  OE2       20.1960   69.9720   27.7700 O.co2 200  MTX200     -0.2457
@<TRIPOS>BOND
     1     6     5    1
     2     5     4    2
     3     5     7    1
     4     4     2    2
     5    27    26   ar
     6     3     2    1
     7     2     1    2
     8     7     8    2
     9     7    12    1
    10     8     9    2
    11    28    26   ar
    12    26    25    1
    13    12     1    2
    14    12    11    2
    15     9    13    1
    16     9    10    1
    17    20    21   ar
    18    20    19   ar
    19    13    14    1
    20    21    16   ar
    21    25    24    1
    22    25    29    1
    23    24    22   am
    24    19    14    1
    25    19    18   ar
    26    10    11    1
    27    14    15    1
    28    16    22    1
    29    16    17   ar
    30    29    30    1
    31    22    23    2
    32    30    31    1
    33    18    17   ar
    34    31    33   ar
    35    31    32   ar
