@<TRIPOS>MOLECULE
1dds_MTX_A_1.pdb
 33 35 0 0 0
SMALL
GASTEIGER

@<TRIPOS>ATOM
      1  N1        22.6650   58.8210   24.1680 N.2   201  MTX201     -0.2684
      2  C2        23.2670   58.3200   23.0900 C.1   201  MTX201      0.2519
      3  NA2       24.6550   58.2530   23.1590 N.pl3 201  MTX201     -0.0226
      4  N3        22.4790   57.8990   22.0450 N.2   201  MTX201     -0.3033
      5  C4        21.1150   57.8860   21.9020 C.2   201  MTX201      0.2728
      6  NA4       20.4740   57.3130   20.8220 N.pl3 201  MTX201     -0.0887
      7  C4A       20.5020   58.4370   23.0640 C.2   201  MTX201      0.2518
      8  N5        19.1360   58.5150   23.0990 N.2   201  MTX201     -0.3917
      9  C6        18.6600   59.0230   24.2460 C.2   201  MTX201      0.1330
     10  C7        19.4900   59.4320   25.2890 C.3   201  MTX201      0.1930
     11  N8        20.8780   59.3850   25.3050 N.2   201  MTX201     -0.1998
     12  C8A       21.3260   58.8640   24.1390 C.1   201  MTX201      0.1314
     13  C9        17.2180   59.4290   24.2090 C.3   201  MTX201      0.1481
     14  N10       16.9100   60.5010   25.2890 N.pl3 201  MTX201     -0.2999
     15  CM        15.9340   59.6830   26.1180 C.3   201  MTX201      0.1125
     16  C11       17.9770   64.5830   25.5800 C.ar  201  MTX201      0.0551
     17  C12       17.2230   63.8970   26.5440 C.ar  201  MTX201      0.0058
     18  C13       16.9460   62.5520   26.4160 C.ar  201  MTX201      0.0147
     19  C14       17.4020   61.8270   25.3150 C.ar  201  MTX201      0.0482
     20  C15       18.1660   62.4890   24.3610 C.ar  201  MTX201      0.0147
     21  C16       18.4500   63.8470   24.4900 C.ar  201  MTX201      0.0058
     22  C         18.0940   66.0360   25.8130 C.2   201  MTX201      0.2652
     23  O         17.1370   66.3090   26.5320 O.2   201  MTX201     -0.2684
     24  N         18.9030   66.9880   25.3520 N.am  201  MTX201     -0.1918
     25  CA        20.1750   66.7320   24.7270 C.3   201  MTX201      0.1986
     26  CT        20.0840   67.2030   23.2870 C.2   201  MTX201      0.3842
     27  O1        20.1370   66.3130   22.4360 O.co2 201  MTX201     -0.2437
     28  O2        19.9180   68.4150   23.0160 O.co2 201  MTX201     -0.2437
     29  CB        21.2750   67.4990   25.4710 C.3   201  MTX201      0.0451
     30  CG        21.1990   67.4050   26.9790 C.3   201  MTX201      0.1164
     31  CD        20.5440   68.6160   27.6220 C.2   201  MTX201      0.3649
     32  OE1       20.7820   68.8330   28.8240 O.co2 201  MTX201     -0.2457
     33  OE2       19.7940   69.3570   26.9490 O.co2 201  MTX201     -0.2457
@<TRIPOS>BOND
     1     6     5    1
     2     5     4    2
     3     5     7    1
     4     4     2    2
     5    27    26   ar
     6    28    26   ar
     7     7     8    2
     8     7    12    1
     9     2     3    1
    10     2     1    2
    11     8     9    2
    12    26    25    1
    13    12     1    2
    14    12    11    2
    15    13     9    1
    16    13    14    1
    17     9    10    1
    18    20    21   ar
    19    20    19   ar
    20    21    16   ar
    21    25    24    1
    22    25    29    1
    23    14    19    1
    24    14    15    1
    25    10    11    1
    26    19    18   ar
    27    24    22   am
    28    29    30    1
    29    16    22    1
    30    16    17   ar
    31    22    23    2
    32    18    17   ar
    33    33    31   ar
    34    30    31    1
    35    31    32   ar
