@<TRIPOS>MOLECULE
1ddt_APU_A_1.pdb
 43 47 0 0 0
SMALL
GASTEIGER

@<TRIPOS>ATOM
      1  PA        15.9830   31.8630   39.6330 P.3   950  APU950      0.2141
      2  O1A       16.4700   30.5130   39.3470 O.3   950  APU950     -0.4373
      3  O2A       15.1650   32.5380   38.5620 O.2   950  APU950     -0.5172
      4  O5B       17.6570   37.0070   39.8650 O.3   950  APU950     -0.2176
      5  C5B       16.5990   36.2950   39.2430 C.3   950  APU950      0.2142
      6  C4B       17.1490   34.9430   38.7170 C.3   950  APU950      0.1822
      7  O4B       18.3440   35.0270   37.9200 O.3   950  APU950     -0.3135
      8  C3B       17.5320   34.1130   39.9590 C.3   950  APU950      0.1885
      9  O3B       17.3420   32.7180   39.8030 O.3   950  APU950     -0.3111
     10  C2B       19.0480   34.2410   40.0180 C.3   950  APU950      0.2541
     11  O2B       19.7470   33.2070   40.8260 O.3   950  APU950     -0.2131
     12  C1B       19.4130   34.3040   38.5530 C.3   950  APU950      0.3185
     13  N9A       20.6690   35.0160   38.2780 N.pl3 950  APU950     -0.1439
     14  C8A       21.8000   34.4610   37.7610 C.3   950  APU950      0.3377
     15  N7A       22.7400   35.3050   37.4800 N.2   950  APU950     -0.2095
     16  C5A       22.1840   36.5250   37.7780 C.2   950  APU950      0.2526
     17  C6A       22.7640   37.7770   37.7060 C.2   950  APU950      0.4393
     18  N6A       23.9530   37.8400   37.1250 N.pl3 950  APU950      0.2180
     19  N1A       22.0910   38.8250   38.2250 N.2   950  APU950      0.0021
     20  C2A       20.8570   38.5800   38.7050 C.3   950  APU950      0.5254
     21  N3A       20.1580   37.4430   38.7240 N.2   950  APU950     -0.0055
     22  C4A       20.9210   36.4040   38.2600 C.2   950  APU950      0.3518
     23  N1U       15.2930   34.0250   44.7590 N.am  950  APU950     -0.1766
     24  C2U       15.1260   34.5920   45.9810 C.1   950  APU950      0.2845
     25  O2U       13.9890   34.9540   46.3340 O.2   950  APU950     -0.1918
     26  N3U       16.2050   34.7390   46.8160 N.2   950  APU950     -0.2452
     27  C4U       17.4310   34.1160   46.5510 C.1   950  APU950      0.2182
     28  O4U       18.3510   34.1080   47.3480 O.2   950  APU950     -0.2085
     29  C5U       17.4870   33.4410   45.2770 C.2   950  APU950      0.1242
     30  C6U       16.4620   33.4350   44.4230 C.2   950  APU950      0.0929
     31  C1D       14.0850   33.8090   43.9210 C.3   950  APU950      0.2400
     32  C2D       14.2160   34.5290   42.6230 C.3   950  APU950      0.2293
     33  O2D       13.7750   35.9410   42.6360 O.3   950  APU950     -0.2158
     34  C3D       13.4070   33.6790   41.6490 C.3   950  APU950      0.1902
     35  O3D       12.0860   34.1590   41.5190 O.3   950  APU950     -0.2674
     36  C4D       13.3020   32.3040   42.3570 C.3   950  APU950      0.1773
     37  O4D       14.0440   32.4390   43.5440 O.3   950  APU950     -0.3321
     38  O5D       15.2020   31.8530   41.0450 O.3   950  APU950     -0.3114
     39  C5D       13.9730   31.2490   41.4680 C.3   950  APU950      0.1812
     40  PU        11.0250   34.0310   40.3410 P.3   950  APU950      0.5327
     41  O1X       11.2150   32.6030   39.7760 O.3   950  APU950     -0.1145
     42  O2X       11.3650   35.0370   39.2770 O.2   950  APU950     -0.2224
     43  O3X        9.6800   34.0370   40.9490 O.3   950  APU950     -0.1145
@<TRIPOS>BOND
     1    18    17    1
     2    15    14    1
     3    15    16    2
     4    17    16    1
     5    17    19    2
     6    14    13    1
     7    16    22    1
     8     7    12    1
     9     7     6    1
    10    19    20    1
    11    22    13    1
    12    22    21    2
    13    13    12    1
    14    12    10    1
    15     3     1    2
    16    20    21    1
    17     6     5    1
    18     6     8    1
    19     5     4    1
    20    42    40    2
    21     2     1    1
    22     1     9    1
    23     1    38    1
    24    41    40    1
    25     9     8    1
    26     8    10    1
    27    10    11    1
    28    40    43    1
    29    40    35    1
    30    38    39    1
    31    39    36    1
    32    35    34    1
    33    34    36    1
    34    34    32    1
    35    36    37    1
    36    32    33    1
    37    32    31    1
    38    37    31    1
    39    31    23    1
    40    30    23    1
    41    30    29    2
    42    23    24   am
    43    29    27    1
    44    24    25    2
    45    24    26    2
    46    27    26    2
    47    27    28    2
