@<TRIPOS>MOLECULE
1ddu_CB3_A_1.pdb
 35 37 0 0 0
SMALL
GASTEIGER

@<TRIPOS>ATOM
      1  N1        13.0110   18.7230   31.0850 N.2   534  CB3534     -0.3245
      2  C2        12.7350   19.3800   32.2300 C.1   534  CB3534      0.2518
      3  NA2       11.6460   20.1200   32.3400 N.pl3 534  CB3534     -0.0226
      4  N3        13.5500   19.2830   33.2810 N.2   534  CB3534     -0.2501
      5  C4        14.6370   18.5090   33.2460 C.1   534  CB3534      0.2180
      6  O4        15.5960   18.6470   34.2130 O.2   534  CB3534     -0.2085
      7  C4A       14.8220   17.6270   32.1820 C.2   534  CB3534      0.1220
      8  C5        15.7740   16.5890   32.2080 C.2   534  CB3534     -0.0051
      9  C6        15.9510   15.7180   31.1120 C.3   534  CB3534      0.0646
     10  C7        15.1820   15.9610   29.9600 C.2   534  CB3534     -0.0177
     11  C8        14.2140   16.9880   29.9300 C.2   534  CB3534      0.0296
     12  C8A       14.0120   17.8140   31.0450 C.2   534  CB3534      0.1564
     13  C9        16.6450   14.4150   31.2330 C.3   534  CB3534      0.1004
     14  N10       16.9710   13.9580   32.6130 N.pl3 534  CB3534     -0.2959
     15  C11       14.0450   13.2910   35.5470 C.ar  534  CB3534      0.0551
     16  C12       13.8290   12.9000   34.2190 C.ar  534  CB3534      0.0058
     17  C13       14.8240   13.0980   33.2510 C.ar  534  CB3534      0.0147
     18  C14       16.0510   13.6930   33.5790 C.ar  534  CB3534      0.0486
     19  C15       16.2720   14.0390   34.9300 C.ar  534  CB3534      0.0147
     20  C16       15.2810   13.8410   35.9070 C.ar  534  CB3534      0.0058
     21  C         12.9470   13.1740   36.5080 C.2   534  CB3534      0.2652
     22  O         11.7600   12.9710   36.1960 O.2   534  CB3534     -0.2684
     23  N         13.3160   13.2890   37.8290 N.am  534  CB3534     -0.1918
     24  CA        13.1630   12.1600   38.8390 C.3   534  CB3534      0.1986
     25  CB        12.4660   12.7230   40.1000 C.3   534  CB3534      0.0451
     26  CG        13.4790   12.9590   41.2150 C.3   534  CB3534      0.1164
     27  CD        14.7540   13.6300   40.7260 C.2   534  CB3534      0.3649
     28  OE1       15.7500   12.9230   40.5840 O.co2 534  CB3534     -0.2457
     29  OE2       14.7350   14.8270   40.4440 O.co2 534  CB3534     -0.2457
     30  CT        12.4810   10.8650   38.4220 C.2   534  CB3534      0.3842
     31  O1        11.2550   10.7950   38.3730 O.co2 534  CB3534     -0.2437
     32  O2        13.2370    9.9440   38.1180 O.co2 534  CB3534     -0.2437
     33  CP1       18.4050   13.8200   32.9010 C.3   534  CB3534      0.1695
     34  CP2       18.8390   14.9660   33.6750 C.1   534  CB3534     -0.0557
     35  CP3       19.1080   16.0070   34.2070 C.1   534  CB3534     -0.0124
@<TRIPOS>BOND
     1    11    10    2
     2    11    12    1
     3    10     9    1
     4    12     1    2
     5    12     7    1
     6     1     2    2
     7     9    13    1
     8     9     8    1
     9    13    14    1
    10     7     8    2
    11     7     5    1
    12     2     3    1
    13     2     4    2
    14    14    33    1
    15    14    18    1
    16    33    34    1
    17     5     4    2
    18     5     6    2
    19    17    18   ar
    20    17    16   ar
    21    18    19   ar
    22    34    35    3
    23    16    15   ar
    24    19    20   ar
    25    15    20   ar
    26    15    21    1
    27    22    21    2
    28    21    23   am
    29    23    24    1
    30    32    30   ar
    31    31    30   ar
    32    30    24    1
    33    24    25    1
    34    25    26    1
    35    29    27   ar
    36    28    27   ar
    37    27    26    1
