@<TRIPOS>MOLECULE
1ddu_DDU_A_1.pdb
 15 16 0 0 0
SMALL
GASTEIGER

@<TRIPOS>ATOM
      1  N1        17.4540   19.9910   31.6390 N.am  532  DDU532     -0.1790
      2  C2        18.3110   20.0070   32.7320 C.1   532  DDU532      0.2844
      3  N3        19.3700   19.1220   32.6810 N.2   532  DDU532     -0.2452
      4  C4        19.6040   18.2100   31.6640 C.1   532  DDU532      0.2182
      5  C5        18.6330   18.2490   30.5750 C.2   532  DDU532      0.1242
      6  C6        17.5660   19.1480   30.6220 C.2   532  DDU532      0.0928
      7  O2        18.1260   20.7090   33.7180 O.2   532  DDU532     -0.1918
      8  O4        20.6290   17.5340   31.6580 O.2   532  DDU532     -0.2085
      9  C1'       16.3820   21.0100   31.5930 C.3   532  DDU532      0.2089
     10  C2'       16.7580   22.3370   30.9070 C.3   532  DDU532      0.0873
     11  C3'       15.4220   22.9620   30.5260 C.3   532  DDU532      0.1832
     12  C4'       14.7270   21.6980   29.9620 C.3   532  DDU532      0.1475
     13  O3'       14.6950   23.3170   31.7010 O.3   532  DDU532     -0.2204
     14  O4'       15.1350   20.6180   30.9070 O.3   532  DDU532     -0.3365
     15  C5'       15.1950   21.3020   28.5280 C.3   532  DDU532      0.0348
@<TRIPOS>BOND
     1    15    12    1
     2    12    11    1
     3    12    14    1
     4    11    10    1
     5    11    13    1
     6     5     6    2
     7     5     4    1
     8     6     1    1
     9    10     9    1
    10    14     9    1
    11     9     1    1
    12     1     2   am
    13     8     4    2
    14     4     3    2
    15     3     2    2
    16     2     7    2
