@<TRIPOS>MOLECULE
1ddv_III_B_1.pdb
 46 49 0 0 0
SMALL
GASTEIGER

@<TRIPOS>ATOM
      1  N         17.1390   25.1500   -3.2980 N.3   1001  THR1001    -0.1204
      2  CA        15.9640   24.7360   -2.5520 C.3   1001  THR1001     0.1979
      3  C         15.8430   23.2230   -2.5430 C.2   1001  THR1001     0.2460
      4  O         16.0900   22.5280   -3.5340 O.2   1001  THR1001    -0.2732
      5  CB        14.6880   25.3530   -3.1260 C.3   1001  THR1001     0.1783
      6  OG1       14.5020   24.9040   -4.4740 O.3   1001  THR1001    -0.2211
      7  CG2       14.7730   26.8710   -3.0980 C.3   1001  THR1001     0.0376
      8  N         15.4250   22.6360   -1.3830 N.am  1002  PRO1002    -0.2718
      9  CA        15.2550   21.1950   -1.1840 C.3   1002  PRO1002     0.1520
     10  C         14.2580   20.5100   -2.1100 C.2   1002  PRO1002     0.2440
     11  O         13.3860   21.1500   -2.6840 O.2   1002  PRO1002    -0.2731
     12  CB        14.7950   21.0990    0.2700 C.3   1002  PRO1002     0.0310
     13  CG        15.4070   22.2990    0.9060 C.3   1002  PRO1002     0.0237
     14  CD        15.1650   23.3620   -0.1250 C.3   1002  PRO1002     0.0939
     15  N         14.3940   19.1860   -2.2740 N.am  1003  PRO1003    -0.2716
     16  CA        13.4600   18.4520   -3.1330 C.3   1003  PRO1003     0.1536
     17  C         12.1330   18.4300   -2.3670 C.2   1003  PRO1003     0.2599
     18  O         12.1230   18.3670   -1.1360 O.2   1003  PRO1003    -0.2715
     19  CB        14.0670   17.0500   -3.2120 C.3   1003  PRO1003     0.0310
     20  CG        15.5170   17.2530   -2.8660 C.3   1003  PRO1003     0.0237
     21  CD        15.4670   18.3050   -1.7870 C.3   1003  PRO1003     0.0939
     22  N         11.0160   18.4850   -3.0780 N.am  1004  SER1004    -0.1937
     23  CA         9.7290   18.4580   -2.4020 C.3   1004  SER1004     0.2040
     24  C          9.4750   17.0250   -1.9410 C.2   1004  SER1004     0.2485
     25  O          9.9410   16.0800   -2.5620 O.2   1004  SER1004    -0.2729
     26  CB         8.6230   18.9200   -3.3510 C.3   1004  SER1004     0.2129
     27  OG         8.6560   18.1520   -4.5380 O.3   1004  SER1004    -0.2179
     28  N          8.7550   16.8440   -0.8280 N.am  1005  PRO1005    -0.2715
     29  CA         8.1430   17.8530    0.0400 C.3   1005  PRO1005     0.1536
     30  C          9.0020   18.1510    1.2730 C.2   1005  PRO1005     0.2599
     31  O          8.4730   18.5130    2.3250 O.2   1005  PRO1005    -0.2715
     32  CB         6.8330   17.1960    0.4270 C.3   1005  PRO1005     0.0310
     33  CG         7.2680   15.7810    0.6620 C.3   1005  PRO1005     0.0237
     34  CD         8.2520   15.4980   -0.4850 C.3   1005  PRO1005     0.0939
     35  N         10.3170   18.0040    1.1410 N.am  1006  PHE1006    -0.1938
     36  CA        11.2110   18.2280    2.2680 C.3   1006  PHE1006     0.2021
     37  C         11.5330   19.6950    2.5180 C.2   1006  PHE1006     0.3845
     38  O         12.0830   19.9910    3.5990 O.co2 1006  PHE1006    -0.2437
     39  CB        12.5040   17.4350    2.0740 C.3   1006  PHE1006     0.0596
     40  CG        12.2840   15.9640    1.8730 C.ar  1006  PHE1006    -0.0199
     41  CD1       12.4940   15.3790    0.6270 C.ar  1006  PHE1006    -0.0042
     42  CD2       11.8650   15.1610    2.9270 C.ar  1006  PHE1006    -0.0042
     43  CE1       12.2930   14.0200    0.4290 C.ar  1006  PHE1006    -0.0003
     44  CE2       11.6580   13.7830    2.7400 C.ar  1006  PHE1006    -0.0003
     45  CZ        11.8720   13.2160    1.4900 C.ar  1006  PHE1006    -0.0000
     46  OXT       11.2400   20.5280    1.6360 O.co2 1006  PHE1006    -0.2437
@<TRIPOS>BOND
     1    27    26    1
     2     6     5    1
     3     4     3    2
     4    26    23    1
     5     1     2    1
     6    19    16    1
     7    19    20    1
     8    16    17    1
     9    16    15    1
    10     5     7    1
    11     5     2    1
    12    22    23    1
    13    22    17   am
    14    20    21    1
    15    11    10    2
    16    25    24    2
    17     2     3    1
    18     3     8   am
    19    23    24    1
    20    17    18    2
    21    15    10   am
    22    15    21    1
    23    10     9    1
    24    24    28   am
    25     8     9    1
    26     8    14    1
    27     9    12    1
    28    28    34    1
    29    28    29    1
    30    34    33    1
    31    14    13    1
    32    29    32    1
    33    29    30    1
    34    12    13    1
    35    32    33    1
    36    43    41   ar
    37    43    45   ar
    38    41    40   ar
    39    35    30   am
    40    35    36    1
    41    30    31    2
    42    45    44   ar
    43    46    37   ar
    44    40    39    1
    45    40    42   ar
    46    39    36    1
    47    36    37    1
    48    37    38   ar
    49    44    42   ar
