@<TRIPOS>MOLECULE
1ddx_PGX_A_1.pdb
 25 26 0 0 0
SMALL
GASTEIGER

@<TRIPOS>ATOM
      1  C1        25.4740   22.2670   16.8810 C.2   701  PGX701      0.3649
      2  C2        25.0300   23.6810   16.5340 C.3   701  PGX701      0.1144
      3  C3        24.1950   23.8100   15.2390 C.3   701  PGX701      0.0165
      4  C4        24.9320   24.6100   14.1430 C.3   701  PGX701      0.0263
      5  C5        25.8820   23.7710   13.3000 C.2   701  PGX701     -0.0307
      6  C6        26.0610   23.8170   11.9670 C.2   701  PGX701     -0.0306
      7  C7        25.3650   24.7100   10.9370 C.3   701  PGX701      0.0286
      8  C8        26.3340   25.6280   10.1090 C.3   701  PGX701      0.0413
      9  C9        26.2230   25.6160    8.5410 C.3   701  PGX701      0.1552
     10  C10       27.1140   26.7830    8.1170 C.3   701  PGX701      0.0661
     11  C11       26.1310   27.6650    8.8750 C.3   701  PGX701      0.1585
     12  C12       26.2340   27.1620   10.3550 C.3   701  PGX701      0.0550
     13  C13       27.3150   27.9180   11.1100 C.2   701  PGX701     -0.0259
     14  C14       27.6400   27.5930   12.3470 C.2   701  PGX701      0.0016
     15  C15       28.6900   28.2460   13.1810 C.3   701  PGX701      0.1737
     16  C16       30.0870   27.6800   12.8620 C.3   701  PGX701      0.0375
     17  C17       31.0840   28.6360   12.2050 C.3   701  PGX701      0.0030
     18  C18       32.4380   27.9650   11.9380 C.3   701  PGX701      0.0001
     19  C19       33.4190   28.9510   11.2880 C.3   701  PGX701      0.0000
     20  C20       34.7730   28.2980   11.0170 C.3   701  PGX701      0.0000
     21  O1        25.4610   21.9130   18.0770 O.co2 701  PGX701     -0.2457
     22  O2        25.8370   21.5030   15.9700 O.co2 701  PGX701     -0.2457
     23  O3        24.9170   26.0590    8.0800 O.3   701  PGX701     -0.2230
     24  O4        24.8700   27.2870    8.2780 O.3   701  PGX701     -0.2227
     25  O5        28.3880   27.9960   14.5710 O.3   701  PGX701     -0.2183
@<TRIPOS>BOND
     1    23    24    1
     2    23     9    1
     3    10     9    1
     4    10    11    1
     5    24    11    1
     6     9     8    1
     7    11    12    1
     8     8    12    1
     9     8     7    1
    10    12    13    1
    11     7     6    1
    12    20    19    1
    13    13    14    2
    14    19    18    1
    15    18    17    1
    16     6     5    2
    17    17    16    1
    18    14    15    1
    19    16    15    1
    20    15    25    1
    21     5     4    1
    22     4     3    1
    23     3     2    1
    24    22     1   ar
    25     2     1    1
    26     1    21   ar
