@<TRIPOS>MOLECULE
1de5_RNT_A_1.pdb
 11 10 0 0 0
SMALL
GASTEIGER

@<TRIPOS>ATOM
      1  C1        30.7900   25.3080   62.8110 C.3   1460  RNT1460     0.2175
      2  C2        32.1410   25.9180   62.7100 C.3   1460  RNT1460     0.2175
      3  C3        32.9560   25.9920   63.9840 C.3   1460  RNT1460     0.2174
      4  C4        32.3470   25.1140   65.0880 C.3   1460  RNT1460     0.2148
      5  C5        33.2570   25.0520   66.3080 C.3   1460  RNT1460     0.1849
      6  C6        32.6830   24.2580   67.4470 C.3   1460  RNT1460     0.0383
      7  O1        29.9350   26.0490   61.9690 O.3   1460  RNT1460    -0.2175
      8  O2        32.8850   25.2470   61.7210 O.3   1460  RNT1460    -0.2175
      9  O3        34.3250   25.6240   63.7490 O.3   1460  RNT1460    -0.2175
     10  O4        32.2530   23.7570   64.5650 O.3   1460  RNT1460    -0.2176
     11  O5        33.6900   26.3870   66.6850 O.3   1460  RNT1460    -0.2203
@<TRIPOS>BOND
     1     8     2    1
     2     7     1    1
     3     2     1    1
     4     2     3    1
     5     9     3    1
     6     3     4    1
     7    10     4    1
     8     4     5    1
     9     5    11    1
    10     5     6    1
