@<TRIPOS>MOLECULE
1de6_RNS_A_1.pdb
 11 10 0 0 0
SMALL
GASTEIGER

@<TRIPOS>ATOM
      1  C1        31.0650   26.1690   63.5390 C.2   1462  RNS1462     0.2427
      2  C2        32.5660   25.9360   63.2100 C.3   1462  RNS1462     0.2486
      3  C3        33.2320   25.8180   64.5560 C.3   1462  RNS1462     0.2224
      4  C4        32.3870   24.9850   65.5060 C.3   1462  RNS1462     0.2152
      5  C5        33.0820   24.6710   66.8020 C.3   1462  RNS1462     0.1849
      6  C6        32.1330   24.2850   67.9180 C.3   1462  RNS1462     0.0383
      7  O1        30.1150   25.8230   62.8510 O.2   1462  RNS1462    -0.2854
      8  O2        32.6800   24.7540   62.4430 O.3   1462  RNS1462    -0.2118
      9  O3        34.6400   25.5010   64.5240 O.3   1462  RNS1462    -0.2171
     10  O4        31.8900   23.8330   64.8340 O.3   1462  RNS1462    -0.2176
     11  O5        33.9850   25.7980   67.1320 O.3   1462  RNS1462    -0.2203
@<TRIPOS>BOND
     1     8     2    1
     2     7     1    2
     3     2     1    1
     4     2     3    1
     5     9     3    1
     6     3     4    1
     7    10     4    1
     8     4     5    1
     9     5    11    1
    10     5     6    1
