@<TRIPOS>MOLECULE
1deh_NAD_A_1.pdb
 44 48 0 0 0
SMALL
GASTEIGER

@<TRIPOS>ATOM
      1  PA        -8.6730   13.1730  -27.6980 P.3   377  NAD377      0.2189
      2  O1A       -9.6340   12.2220  -27.2050 O.2   377  NAD377     -0.5170
      3  O2A       -8.6280   14.3170  -26.7900 O.3   377  NAD377     -0.4371
      4  O5B       -9.2730   13.6540  -29.1350 O.3   377  NAD377     -0.3112
      5  C5B       -9.7850   12.7600  -30.1270 C.3   377  NAD377      0.1813
      6  C4B      -10.6270   13.7460  -30.9300 C.3   377  NAD377      0.1821
      7  O4B      -11.1520   13.0430  -32.0470 O.3   377  NAD377     -0.3135
      8  C3B      -11.8060   14.2860  -30.0750 C.3   377  NAD377      0.2184
      9  O3B      -11.9360   15.6990  -30.2550 O.3   377  NAD377     -0.2174
     10  C2B      -13.0250   13.6170  -30.6870 C.3   377  NAD377      0.2570
     11  O2B      -14.1180   14.5570  -30.6820 O.3   377  NAD377     -0.2130
     12  C1B      -12.5290   13.3970  -32.1250 C.3   377  NAD377      0.3186
     13  N9A      -13.2480   12.3040  -32.7320 N.pl3 377  NAD377     -0.1439
     14  C8A      -13.5870   11.0790  -32.1660 C.3   377  NAD377      0.3377
     15  N7A      -14.2780   10.2680  -33.0600 N.2   377  NAD377     -0.2095
     16  C5A      -14.3430   11.0470  -34.1900 C.2   377  NAD377      0.2526
     17  C6A      -14.9140   10.7190  -35.3950 C.2   377  NAD377      0.4393
     18  N6A      -15.5090    9.5240  -35.5820 N.pl3 377  NAD377      0.2180
     19  N1A      -14.8420   11.6580  -36.3830 N.2   377  NAD377      0.0021
     20  C2A      -14.2260   12.8790  -36.1760 C.3   377  NAD377      0.5254
     21  N3A      -13.6480   13.2220  -34.9650 N.2   377  NAD377     -0.0055
     22  C4A      -13.7470   12.2470  -34.0090 C.2   377  NAD377      0.3518
     23  O3        -7.3290   12.4150  -27.8710 O.3   377  NAD377     -0.2703
     24  PN        -5.7800   12.7600  -28.0260 P.3   377  NAD377      0.2189
     25  O1N       -5.1180   12.7230  -26.6750 O.3   377  NAD377     -0.4371
     26  O2N       -5.5090   14.0440  -28.7050 O.2   377  NAD377     -0.5170
     27  O5D       -5.1250   11.6350  -28.8730 O.3   377  NAD377     -0.3112
     28  C5D       -5.7210   11.2640  -30.1480 C.3   377  NAD377      0.1813
     29  C4D       -5.1250    9.9390  -30.6190 C.3   377  NAD377      0.1799
     30  O4D       -3.7290   10.0510  -30.6930 O.3   377  NAD377     -0.3327
     31  C3D       -5.3640    8.8210  -29.5920 C.3   377  NAD377      0.2158
     32  O3D       -5.7400    7.6270  -30.2820 O.3   377  NAD377     -0.2175
     33  C2D       -3.9480    8.6360  -29.0130 C.3   377  NAD377      0.2309
     34  O2D       -3.7940    7.2770  -28.5920 O.3   377  NAD377     -0.2158
     35  C1D       -3.0340    8.8960  -30.2220 C.3   377  NAD377      0.2263
     36  N1N       -1.6710    9.2750  -29.8070 N.pl3 377  NAD377     -0.2787
     37  C2N       -0.6850    8.8440  -30.4980 C.3   377  NAD377      0.1244
     38  C3N        0.5830    9.0860  -30.1070 C.2   377  NAD377      0.0544
     39  C7N        1.6500    8.6320  -30.8560 C.2   377  NAD377      0.2818
     40  O7N        2.8210    8.8960  -30.4910 O.2   377  NAD377     -0.2670
     41  N7N        1.4960    8.1370  -32.0730 N.am  377  NAD377     -0.0839
     42  C4N        0.8480    9.7920  -28.9580 C.2   377  NAD377      0.0033
     43  C5N       -0.1480   10.2600  -28.2130 C.2   377  NAD377      0.0157
     44  C6N       -1.4320    9.9900  -28.6680 C.2   377  NAD377      0.0633
@<TRIPOS>BOND
     1    19    20    1
     2    19    17    2
     3    20    21    1
     4    18    17    1
     5    17    16    1
     6    21    22    2
     7    16    22    1
     8    16    15    2
     9    22    13    1
    10    15    14    1
    11    13    14    1
    12    13    12    1
    13    12     7    1
    14    12    10    1
    15    41    39   am
    16     7     6    1
    17     6     5    1
    18     6     8    1
    19    39    40    2
    20    39    38    1
    21    30    29    1
    22    30    35    1
    23    10    11    1
    24    10     8    1
    25    29    28    1
    26    29    31    1
    27    37    38    1
    28    37    36    1
    29    32    31    1
    30     9     8    1
    31    35    36    1
    32    35    33    1
    33    28    27    1
    34     5     4    1
    35    38    42    2
    36    36    44    1
    37    31    33    1
    38     4     1    1
    39    33    34    1
    40    42    43    1
    41    27    24    1
    42    26    24    2
    43    44    43    2
    44    24    23    1
    45    24    25    1
    46    23     1    1
    47     1     2    2
    48     1     3    1
