@<TRIPOS>MOLECULE
1dej_ATP_A_1.pdb
 31 33 0 0 0
SMALL
GASTEIGER

@<TRIPOS>ATOM
      1  PG        22.6250    2.6900   72.1020 P.3   1376  ATP1376     0.5373
      2  O1G       23.7490    2.7050   73.0690 O.3   1376  ATP1376    -0.1143
      3  O2G       23.0520    2.8560   70.7050 O.2   1376  ATP1376    -0.2221
      4  O3G       21.7950    1.4950   72.2740 O.3   1376  ATP1376    -0.1143
      5  PB        20.6990    4.7970   71.5760 P.3   1376  ATP1376     0.2277
      6  O1B       20.5180    4.3000   70.2160 O.2   1376  ATP1376    -0.5168
      7  O2B       19.4510    5.1010   72.3000 O.3   1376  ATP1376    -0.4368
      8  O3B       21.6700    3.9380   72.4950 O.3   1376  ATP1376    -0.2258
      9  PA        21.4680    7.3390   70.4520 P.3   1376  ATP1376     0.2189
     10  O1A       22.4050    7.3510   69.2820 O.2   1376  ATP1376    -0.5170
     11  O2A       20.0860    7.5680   69.9280 O.3   1376  ATP1376    -0.4371
     12  O3A       21.5930    6.1340   71.4450 O.3   1376  ATP1376    -0.2700
     13  O5'       21.9630    8.5590   71.3500 O.3   1376  ATP1376    -0.3112
     14  C5'       21.4550    8.8110   72.6480 C.3   1376  ATP1376     0.1813
     15  C4'       22.5670    9.4440   73.4770 C.3   1376  ATP1376     0.1821
     16  O4'       23.2170   10.4760   72.7090 O.3   1376  ATP1376    -0.3135
     17  C3'       22.1460    9.9870   74.8280 C.3   1376  ATP1376     0.2184
     18  O3'       23.1440    9.5790   75.8160 O.3   1376  ATP1376    -0.2174
     19  C2'       22.1400   11.5210   74.4850 C.3   1376  ATP1376     0.2570
     20  O2'       22.4280   12.3040   75.6710 O.3   1376  ATP1376    -0.2130
     21  C1'       23.3640   11.5960   73.5330 C.3   1376  ATP1376     0.3186
     22  N9        23.5310   12.8110   72.7900 N.pl3 1376  ATP1376    -0.1439
     23  C8        22.5610   13.4140   72.0330 C.3   1376  ATP1376     0.3377
     24  N7        22.8320   14.5560   71.5070 N.2   1376  ATP1376    -0.2095
     25  C5        24.0640   14.8000   71.9350 C.2   1376  ATP1376     0.2526
     26  C6        24.8410   15.9070   71.7410 C.2   1376  ATP1376     0.4393
     27  N6        24.5040   16.9660   70.9760 N.pl3 1376  ATP1376     0.2180
     28  N1        26.0780   15.9290   72.3050 N.2   1376  ATP1376     0.0021
     29  C2        26.4640   14.8350   73.0520 C.3   1376  ATP1376     0.5254
     30  N3        25.7300   13.7820   73.3410 N.2   1376  ATP1376    -0.0055
     31  C4        24.5320   13.7900   72.7570 C.2   1376  ATP1376     0.3518
@<TRIPOS>BOND
     1    10     9    2
     2    11     9    1
     3     6     5    2
     4     9    13    1
     5     9    12    1
     6     3     1    2
     7    27    26    1
     8    13    14    1
     9    12     5    1
    10    24    25    2
    11    24    23    1
    12     5     7    1
    13     5     8    1
    14    26    25    1
    15    26    28    2
    16    25    31    1
    17    23    22    1
    18     1     4    1
    19     1     8    1
    20     1     2    1
    21    28    29    1
    22    14    15    1
    23    16    15    1
    24    16    21    1
    25    31    22    1
    26    31    30    2
    27    22    21    1
    28    29    30    1
    29    15    17    1
    30    21    19    1
    31    19    17    1
    32    19    20    1
    33    17    18    1
