@<TRIPOS>MOLECULE
1dek_DGP_A_1.pdb
 23 25 0 0 0
SMALL
GASTEIGER

@<TRIPOS>ATOM
      1  P         47.7120    3.2770    6.0130 P.3   301  DGP301      0.5327
      2  OP1       48.5680    2.7140    7.1460 O.3   301  DGP301     -0.1145
      3  OP2       46.6750    2.3180    5.6370 O.2   301  DGP301     -0.2224
      4  OP3       47.1450    4.7060    6.4100 O.3   301  DGP301     -0.1145
      5  O5'       48.6940    3.6290    4.8650 O.3   301  DGP301     -0.2675
      6  C5'       50.0130    4.1150    4.9800 C.3   301  DGP301      0.1858
      7  C4'       50.7200    3.6180    3.7390 C.3   301  DGP301      0.1774
      8  O4'       51.9730    4.2200    3.5320 O.3   301  DGP301     -0.3347
      9  C3'       50.7500    2.2130    3.3010 C.3   301  DGP301      0.1857
     10  O3'       50.0230    1.9720    2.0800 O.3   301  DGP301     -0.2203
     11  C2'       52.2320    1.9350    3.1010 C.3   301  DGP301      0.0865
     12  C1'       52.7870    3.3650    2.7950 C.3   301  DGP301      0.1981
     13  N9        54.2390    3.5100    2.9870 N.pl3 301  DGP301     -0.2374
     14  C8        55.1170    3.9250    1.9940 C.3   301  DGP301      0.2245
     15  N7        56.3590    3.8670    2.3300 N.2   301  DGP301     -0.2322
     16  C5        56.3370    3.2980    3.6020 C.2   301  DGP301      0.2182
     17  C6        57.4290    3.0150    4.4850 C.1   301  DGP301      0.2372
     18  O6        58.6240    3.1190    4.2610 O.2   301  DGP301     -0.2069
     19  N1        56.9610    2.5230    5.6970 N.2   301  DGP301     -0.2485
     20  C2        55.6310    2.3280    6.0200 C.1   301  DGP301      0.2531
     21  N2        55.4160    1.8060    7.2110 N.pl3 301  DGP301     -0.0226
     22  N3        54.6110    2.6050    5.2210 N.2   301  DGP301     -0.3074
     23  C4        55.0440    3.0890    4.0110 C.2   301  DGP301      0.2299
@<TRIPOS>BOND
     1    14    15    1
     2    14    13    1
     3    10     9    1
     4    15    16    2
     5    12    13    1
     6    12    11    1
     7    12     8    1
     8    13    23    1
     9    11     9    1
    10     9     7    1
    11     8     7    1
    12    16    23    1
    13    16    17    1
    14     7     6    1
    15    23    22    2
    16    18    17    2
    17    17    19    2
    18     5     6    1
    19     5     1    1
    20    22    20    2
    21     3     1    2
    22    19    20    2
    23     1     4    1
    24     1     2    1
    25    20    21    1
