@<TRIPOS>MOLECULE
1del_AMP_B_1.pdb
 23 25 0 0 0
SMALL
GASTEIGER

@<TRIPOS>ATOM
      1  P         91.5530   10.0030   30.5620 P.3   302  AMP302      0.5327
      2  O1P       91.4280    9.1090   29.3760 O.2   302  AMP302     -0.2224
      3  O2P       91.7570   11.3890   30.1020 O.3   302  AMP302     -0.1145
      4  O3P       90.2620    9.8430   31.5120 O.3   302  AMP302     -0.1145
      5  O5'       92.6850    9.5020   31.5620 O.3   302  AMP302     -0.2675
      6  C5'       93.9360   10.1520   31.7360 C.3   302  AMP302      0.1860
      7  C4'       95.1880    9.3250   31.7100 C.3   302  AMP302      0.1823
      8  O4'       95.2380    8.3640   32.7700 O.3   302  AMP302     -0.3135
      9  C3'       95.6530    8.6180   30.4760 C.3   302  AMP302      0.2184
     10  O3'       96.1090    9.4070   29.3890 O.3   302  AMP302     -0.2174
     11  C2'       96.5350    7.4960   30.9810 C.3   302  AMP302      0.2570
     12  O2'       97.9240    7.5620   30.7210 O.3   302  AMP302     -0.2130
     13  C1'       96.1950    7.3880   32.4750 C.3   302  AMP302      0.3186
     14  N9        95.6370    6.0730   32.7450 N.pl3 302  AMP302     -0.1439
     15  C8        94.3210    5.7650   32.7210 C.3   302  AMP302      0.3377
     16  N7        93.9790    4.6500   33.2460 N.2   302  AMP302     -0.2095
     17  C5        95.1270    4.1490   33.6450 C.2   302  AMP302      0.2526
     18  C6        95.3430    2.9570   34.2810 C.2   302  AMP302      0.4393
     19  N6        94.3910    2.0880   34.6020 N.pl3 302  AMP302      0.2180
     20  N1        96.6270    2.6780   34.5840 N.2   302  AMP302      0.0021
     21  C2        97.6350    3.5730   34.2610 C.3   302  AMP302      0.5254
     22  N3        97.5030    4.7380   33.6510 N.2   302  AMP302     -0.0055
     23  C4        96.2050    4.9680   33.3660 C.2   302  AMP302      0.3518
@<TRIPOS>BOND
     1     2     1    2
     2    10     9    1
     3     3     1    1
     4     9    11    1
     5     9     7    1
     6     1     4    1
     7     1     5    1
     8    12    11    1
     9    11    13    1
    10     5     6    1
    11     7     6    1
    12     7     8    1
    13    13    14    1
    14    13     8    1
    15    15    14    1
    16    15    16    1
    17    14    23    1
    18    16    17    2
    19    23    17    1
    20    23    22    2
    21    17    18    1
    22    22    21    1
    23    21    20    1
    24    18    20    2
    25    18    19    1
