@<TRIPOS>MOLECULE
1del_DGP_A_1.pdb
 23 25 0 0 0
SMALL
GASTEIGER

@<TRIPOS>ATOM
      1  P         47.8890    3.3210    5.9000 P.3   301  DGP301      0.5327
      2  OP1       48.6180    2.8960    7.1350 O.3   301  DGP301     -0.1145
      3  OP2       47.0250    2.2740    5.3220 O.2   301  DGP301     -0.2224
      4  OP3       47.0450    4.6300    6.2020 O.3   301  DGP301     -0.1145
      5  O5'       48.9830    3.8110    4.8330 O.3   301  DGP301     -0.2675
      6  C5'       50.1070    2.9550    4.5650 C.3   301  DGP301      0.1858
      7  C4'       50.6900    3.1800    3.1690 C.3   301  DGP301      0.1774
      8  O4'       51.9860    3.8460    3.3470 O.3   301  DGP301     -0.3347
      9  C3'       50.9950    1.9510    2.3500 C.3   301  DGP301      0.1857
     10  O3'       49.9050    1.5050    1.5510 O.3   301  DGP301     -0.2203
     11  C2'       52.2580    2.2540    1.6020 C.3   301  DGP301      0.0865
     12  C1'       52.8360    3.5230    2.2810 C.3   301  DGP301      0.1981
     13  N9        54.2610    3.4370    2.6720 N.pl3 301  DGP301     -0.2374
     14  C8        55.2650    3.7950    1.7430 C.3   301  DGP301      0.2245
     15  N7        56.4650    3.6630    2.2120 N.2   301  DGP301     -0.2322
     16  C5        56.3150    3.1900    3.5190 C.2   301  DGP301      0.2182
     17  C6        57.3160    2.8640    4.4770 C.1   301  DGP301      0.2372
     18  O6        58.5310    2.9040    4.3800 O.2   301  DGP301     -0.2069
     19  N1        56.7920    2.3970    5.6570 N.2   301  DGP301     -0.2485
     20  C2        55.4260    2.3350    5.8820 C.1   301  DGP301      0.2531
     21  N2        55.1400    1.8770    7.0900 N.pl3 301  DGP301     -0.0226
     22  N3        54.4810    2.6280    5.0050 N.2   301  DGP301     -0.3074
     23  C4        54.9510    3.0550    3.7930 C.2   301  DGP301      0.2299
@<TRIPOS>BOND
     1    10     9    1
     2    11    12    1
     3    11     9    1
     4    14    15    1
     5    14    13    1
     6    15    16    2
     7    12    13    1
     8    12     8    1
     9     9     7    1
    10    13    23    1
    11     7     8    1
    12     7     6    1
    13    16    23    1
    14    16    17    1
    15    23    22    2
    16    18    17    2
    17    17    19    2
    18     6     5    1
    19     5     1    1
    20    22    20    2
    21     3     1    2
    22    19    20    2
    23    20    21    1
    24     1     4    1
    25     1     2    1
