@<TRIPOS>MOLECULE
1det_2GP_A_1.pdb
 24 26 0 0 0
SMALL
GASTEIGER

@<TRIPOS>ATOM
      1  P         22.7350  -47.6960   -0.0090 P.3   105  2GP105      0.5327
      2  O1P       23.9020  -47.3570   -0.7320 O.3   105  2GP105     -0.1145
      3  O2P       21.5810  -47.3360   -0.7480 O.2   105  2GP105     -0.2224
      4  O3P       22.7660  -49.1440   -0.1880 O.3   105  2GP105     -0.1145
      5  O5'       19.6270  -47.8520    3.9310 O.3   105  2GP105     -0.2176
      6  C5'       19.5520  -46.4330    4.1580 C.3   105  2GP105      0.2142
      7  C4'       20.8460  -45.7400    3.7100 C.3   105  2GP105      0.1827
      8  O4'       21.8990  -46.4050    4.4610 O.3   105  2GP105     -0.3326
      9  C3'       21.2500  -45.8080    2.2670 C.3   105  2GP105      0.2132
     10  O3'       21.5680  -44.5100    1.7080 O.3   105  2GP105     -0.2176
     11  C2'       22.6520  -46.4380    2.2270 C.3   105  2GP105      0.2054
     12  O2'       22.6900  -47.5800    1.4800 O.3   105  2GP105     -0.2657
     13  C1'       23.0550  -46.5180    3.6710 C.3   105  2GP105      0.2266
     14  N9        23.8290  -47.7260    4.1120 N.pl3 105  2GP105     -0.2354
     15  C8        23.4390  -48.9790    4.5070 C.3   105  2GP105      0.2246
     16  N7        24.4330  -49.7590    4.7810 N.2   105  2GP105     -0.2322
     17  C5        25.5670  -48.9470    4.5580 C.2   105  2GP105      0.2182
     18  C6        26.9630  -49.2380    4.6790 C.1   105  2GP105      0.2372
     19  O6        27.4420  -50.3000    5.0250 O.2   105  2GP105     -0.2069
     20  N1        27.7440  -48.1120    4.4130 N.2   105  2GP105     -0.2485
     21  C2        27.2890  -46.8680    4.0140 C.1   105  2GP105      0.2531
     22  N2        28.2310  -45.9750    3.7670 N.pl3 105  2GP105     -0.0226
     23  N3        25.9910  -46.6070    3.8680 N.2   105  2GP105     -0.3074
     24  C4        25.2100  -47.6780    4.1580 C.2   105  2GP105      0.2300
@<TRIPOS>BOND
     1     3     1    2
     2     2     1    1
     3     4     1    1
     4     1    12    1
     5    12    11    1
     6    10     9    1
     7    11     9    1
     8    11    13    1
     9     9     7    1
    10    13    14    1
    11    13     8    1
    12     7     6    1
    13     7     8    1
    14    22    21    1
    15    23    21    2
    16    23    24    2
    17     5     6    1
    18    21    20    2
    19    14    24    1
    20    14    15    1
    21    24    17    1
    22    20    18    2
    23    15    16    1
    24    17    18    1
    25    17    16    2
    26    18    19    2
