@<TRIPOS>MOLECULE
1df1_HEM_A_1.pdb
 43 50 0 0 0
SMALL
GASTEIGER

@<TRIPOS>ATOM
      1  CHA      122.3170  111.2640   29.9930 C.2   901  HEM901      0.0000
      2  CHB      123.3270  115.0680   27.1650 C.2   901  HEM901      0.0000
      3  CHC      127.6290  113.0940   26.3390 C.2   901  HEM901      0.0000
      4  CHD      126.2720  109.0420   28.6220 C.2   901  HEM901      0.0000
      5  C1A      122.2630  112.5010   29.3960 C.ar  901  HEM901      0.0000
      6  C2A      121.1860  113.5050   29.6530 C.ar  901  HEM901      0.0000
      7  C3A      121.4410  114.5450   28.7720 C.ar  901  HEM901      0.0000
      8  C4A      122.6590  114.2110   28.0170 C.ar  901  HEM901      0.0000
      9  CMA      120.6330  115.8070   28.5840 C.3   901  HEM901      0.0000
     10  CAA      120.1000  113.4350   30.7020 C.3   901  HEM901      0.0000
     11  CBA      120.6120  113.8700   32.0620 C.3   901  HEM901      0.0000
     12  CGA      119.6070  113.6290   33.1560 C.2   901  HEM901      0.0000
     13  O1A      120.0000  113.1200   34.2310 O.co2 901  HEM901      0.0000
     14  O2A      118.4160  113.9460   32.9410 O.co2 901  HEM901      0.0000
     15  C1B      124.5550  114.8340   26.6220 C.2   901  HEM901      0.0000
     16  C2B      125.2550  115.8120   25.8640 C.2   901  HEM901      0.0000
     17  C3B      126.4960  115.2700   25.6250 C.2   901  HEM901      0.0000
     18  C4B      126.5350  113.9360   26.2390 C.2   901  HEM901      0.0000
     19  CMB      124.7120  117.1730   25.4140 C.3   901  HEM901      0.0000
     20  CAB      127.5130  116.0040   25.0590 C.2   901  HEM901      0.0000
     21  CBB      128.5160  115.5830   24.2440 C.2   901  HEM901      0.0000
     22  C1C      127.6600  111.8880   26.9810 C.ar  901  HEM901      0.0000
     23  C2C      128.8160  111.0730   27.1120 C.ar  901  HEM901      0.0000
     24  C3C      128.4390  109.8430   27.7240 C.ar  901  HEM901      0.0000
     25  C4C      127.0370  110.0140   27.9710 C.ar  901  HEM901      0.0000
     26  CMC      130.1860  111.5920   26.6560 C.3   901  HEM901      0.0000
     27  CAC      129.2040  108.6770   27.9980 C.3   901  HEM901      0.0000
     28  CBC      130.4730  108.4270   27.4610 C.3   901  HEM901      0.0000
     29  C1D      124.9580  109.1920   29.0820 C.2   901  HEM901      0.0000
     30  C2D      124.2640  108.2420   29.9480 C.2   901  HEM901      0.0000
     31  C3D      123.1850  108.9010   30.3910 C.2   901  HEM901      0.0000
     32  C4D      123.2150  110.2650   29.7810 C.2   901  HEM901      0.0000
     33  CMD      124.6330  106.8090   30.3520 C.3   901  HEM901      0.0000
     34  CAD      122.1730  108.3170   31.3430 C.3   901  HEM901      0.0000
     35  CBD      122.4350  108.8330   32.7380 C.3   901  HEM901      0.0000
     36  CGD      121.4450  108.2840   33.7320 C.2   901  HEM901      0.0000
     37  O1D      121.3040  108.8550   34.8350 O.co2 901  HEM901      0.0000
     38  O2D      120.7990  107.2650   33.4130 O.co2 901  HEM901      0.0000
     39  NA       123.1660  112.9360   28.4030 N.ar  901  HEM901      0.0000
     40  NB       125.3220  113.6730   26.8460 N.2   901  HEM901      0.0000
     41  NC       126.5810  111.2800   27.5410 N.ar  901  HEM901      0.0000
     42  ND       124.2810  110.4250   28.9510 N.2   901  HEM901      0.0000
     43 FE        124.6350  111.9940   27.5710 Fe    901  HEM901      0.0000
@<TRIPOS>BOND
     1    21    20    2
     2    20    17    1
     3    19    16    1
     4    17    16    2
     5    17    18    1
     6    16    15    1
     7    18     3    2
     8    18    40    1
     9     3    22    1
    10    15    40    2
    11    15     2    1
    12    26    23    1
    13    40    43    1
    14    22    23   ar
    15    22    41   ar
    16    23    24   ar
    17     2     8    2
    18    28    27    1
    19    41    43    1
    20    41    25   ar
    21    43    39    1
    22    43    42    1
    23    24    25   ar
    24    24    27    1
    25    25     4    1
    26     8    39   ar
    27     8     7   ar
    28    39     5   ar
    29     9     7    1
    30     4    29    2
    31     7     6   ar
    32    42    29    1
    33    42    32    2
    34    29    30    1
    35     5     6   ar
    36     5     1    2
    37     6    10    1
    38    32     1    1
    39    32    31    1
    40    30    33    1
    41    30    31    2
    42    31    34    1
    43    10    11    1
    44    34    35    1
    45    11    12    1
    46    35    36    1
    47    14    12   ar
    48    12    13   ar
    49    38    36   ar
    50    36    37   ar
