@<TRIPOS>MOLECULE
1df1_H4B_A_1.pdb
 17 18 0 0 0
SMALL
GASTEIGER

@<TRIPOS>ATOM
      1  N1       114.1730  112.4910   31.7060 N.2   902  H4B902     -0.2672
      2  C2       115.4470  112.8490   31.9460 C.1   902  H4B902      0.2609
      3  N2       116.2330  113.1700   30.9190 N.pl3 902  H4B902     -0.0220
      4  N3       115.9550  112.8440   33.1850 N.2   902  H4B902     -0.2466
      5  C4       115.2000  112.4730   34.2210 C.1   902  H4B902      0.2569
      6  O4       115.5990  112.5510   35.3830 O.2   902  H4B902     -0.2052
      7  C4A      113.9040  111.9600   34.0030 C.2   902  H4B902      0.2989
      8  C8A      113.4020  112.0090   32.6790 C.1   902  H4B902      0.1401
      9  N5       113.1800  111.4560   35.0010 N.2   902  H4B902     -0.3830
     10  N8       112.1640  111.5770   32.4040 N.2   902  H4B902     -0.1992
     11  C6       111.8390  110.9520   34.7260 C.2   902  H4B902      0.1466
     12  C7       111.2710  111.1950   33.4030 C.3   902  H4B902      0.1940
     13  C9       111.0670  110.5630   35.9880 C.3   902  H4B902      0.2313
     14  O9       110.5360  111.7300   36.5940 O.3   902  H4B902     -0.2130
     15  C10      109.9410  109.5550   35.7310 C.3   902  H4B902      0.1888
     16  C11      109.2450  109.1840   37.0200 C.3   902  H4B902      0.0387
     17  O10      110.5020  108.3820   35.1310 O.3   902  H4B902     -0.2200
@<TRIPOS>BOND
     1     3     2    1
     2     1     2    2
     3     1     8    2
     4     2     4    2
     5    10     8    2
     6    10    12    1
     7     8     7    1
     8     4     5    2
     9    12    11    1
    10     7     5    1
    11     7     9    2
    12     5     6    2
    13    11     9    2
    14    11    13    1
    15    17    15    1
    16    15    13    1
    17    15    16    1
    18    13    14    1
