@<TRIPOS>MOLECULE
1df7_NDP_A_1.pdb
 48 52 0 0 0
SMALL
GASTEIGER

@<TRIPOS>ATOM
      1  PA        11.6660   16.6880   17.2630 P.3   500  NDP500      0.2189
      2  O1A       11.9130   15.9330   16.0150 O.2   500  NDP500     -0.5170
      3  O2A       10.5730   17.6930   17.1610 O.3   500  NDP500     -0.4371
      4  O5B       11.2390   15.7280   18.4550 O.3   500  NDP500     -0.3112
      5  C5B       12.1860   14.6780   18.8240 C.3   500  NDP500      0.1813
      6  C4B       11.4050   13.8710   19.8730 C.3   500  NDP500      0.1820
      7  O4B       10.5000   13.0260   19.1410 O.3   500  NDP500     -0.3136
      8  C3B       12.3040   12.9040   20.6720 C.3   500  NDP500      0.2157
      9  O3B       12.9080   13.6720   21.6990 O.3   500  NDP500     -0.2175
     10  C2B       11.1930   11.8700   21.0770 C.3   500  NDP500      0.2314
     11  O2B       10.3000   12.2900   22.0830 O.3   500  NDP500     -0.2630
     12  C1B       10.4620   11.7290   19.7820 C.3   500  NDP500      0.3158
     13  N9A       11.0470   10.7220   18.9250 N.pl3 500  NDP500     -0.1439
     14  C8A       12.1050   10.8160   18.0480 C.3   500  NDP500      0.3377
     15  N7A       12.3490    9.6890   17.4000 N.2   500  NDP500     -0.2095
     16  C5A       11.3870    8.8340   17.8890 C.2   500  NDP500      0.2526
     17  C6A       11.0980    7.4320   17.6020 C.2   500  NDP500      0.4393
     18  N6A       11.8490    6.7280   16.6980 N.pl3 500  NDP500      0.2180
     19  N1A       10.0490    6.8750   18.2840 N.2   500  NDP500      0.0021
     20  C2A        9.3560    7.6470   19.1840 C.3   500  NDP500      0.5254
     21  N3A        9.5490    8.9070   19.5130 N.2   500  NDP500     -0.0055
     22  C4A       10.5780    9.4480   18.8120 C.2   500  NDP500      0.3518
     23  O3        12.9310   17.3810   17.7460 O.3   500  NDP500     -0.2703
     24  PN        14.2180   18.1430   17.2220 P.3   500  NDP500      0.2189
     25  O1N       15.0680   18.6030   18.3420 O.3   500  NDP500     -0.4371
     26  O2N       14.9590   17.3290   16.2500 O.2   500  NDP500     -0.5170
     27  O5D       13.5480   19.4070   16.4160 O.3   500  NDP500     -0.3112
     28  C5D       12.9480   20.4700   17.2270 C.3   500  NDP500      0.1813
     29  C4D       13.4860   21.7640   16.5890 C.3   500  NDP500      0.1799
     30  O4D       12.9410   21.8220   15.2450 O.3   500  NDP500     -0.3327
     31  C3D       13.0250   23.0700   17.2940 C.3   500  NDP500      0.2158
     32  O3D       14.1050   23.9380   17.3280 O.3   500  NDP500     -0.2175
     33  C2D       11.8860   23.5360   16.3740 C.3   500  NDP500      0.2309
     34  O2D       11.7460   24.9480   16.5060 O.3   500  NDP500     -0.2158
     35  C1D       12.3780   23.1170   15.0020 C.3   500  NDP500      0.2263
     36  N1N       11.2860   22.9880   13.9680 N.pl3 500  NDP500     -0.2787
     37  C2N       11.4770   23.7710   12.8030 C.3   500  NDP500      0.1244
     38  C3N       10.5120   23.6800   11.8230 C.2   500  NDP500      0.0544
     39  C7N       10.7320   24.5550   10.5340 C.2   500  NDP500      0.2818
     40  O7N       10.0160   24.3260    9.6060 O.2   500  NDP500     -0.2670
     41  N7N       11.7150   25.5150   10.5380 N.am  500  NDP500     -0.0839
     42  C4N        9.3340   22.8510   11.8990 C.2   500  NDP500      0.0033
     43  C5N        9.2720   22.1250   13.1390 C.2   500  NDP500      0.0157
     44  C6N       10.1760   22.1620   14.1420 C.2   500  NDP500      0.0633
     45  P2B       10.6660   12.0250   23.7100 P.3   500  NDP500      0.5328
     46  O1X       11.8670   12.7660   23.9660 O.3   500  NDP500     -0.1145
     47  O2X        9.3900   12.6210   24.2600 O.3   500  NDP500     -0.1145
     48  O3X       10.7880   10.5530   23.7430 O.2   500  NDP500     -0.2224
@<TRIPOS>BOND
     1    40    39    2
     2    39    41   am
     3    39    38    1
     4    38    42    2
     5    38    37    1
     6    42    43    1
     7    37    36    1
     8    43    44    2
     9    36    44    1
    10    36    35    1
    11    35    30    1
    12    35    33    1
    13    30    29    1
    14     2     1    2
    15    26    24    2
    16    33    34    1
    17    33    31    1
    18    27    24    1
    19    27    28    1
    20    29    28    1
    21    29    31    1
    22    18    17    1
    23     3     1    1
    24    24    23    1
    25    24    25    1
    26     1    23    1
    27     1     4    1
    28    31    32    1
    29    15    16    2
    30    15    14    1
    31    17    16    1
    32    17    19    2
    33    16    22    1
    34    14    13    1
    35    19    20    1
    36     4     5    1
    37    22    13    1
    38    22    21    2
    39     5     6    1
    40    13    12    1
    41     7    12    1
    42     7     6    1
    43    20    21    1
    44    12    10    1
    45     6     8    1
    46     8    10    1
    47     8     9    1
    48    10    11    1
    49    11    45    1
    50    45    48    2
    51    45    46    1
    52    45    47    1
