@<TRIPOS>MOLECULE
1df7_MTX_A_1.pdb
 33 35 0 0 0
SMALL
GASTEIGER

@<TRIPOS>ATOM
      1  N1         6.7120   26.3510    8.4440 N.2   501  MTX501     -0.2684
      2  C2         6.8250   25.2990    7.5330 C.1   501  MTX501      0.2519
      3  NA2        6.9500   25.6560    6.2270 N.pl3 501  MTX501     -0.0226
      4  N3         6.8130   24.0250    7.9440 N.2   501  MTX501     -0.3033
      5  C4         6.6750   23.5710    9.2040 C.2   501  MTX501      0.2728
      6  NA4        6.6440   22.3190    9.5450 N.pl3 501  MTX501     -0.0887
      7  C4A        6.5200   24.6630   10.1800 C.2   501  MTX501      0.2518
      8  N5         6.2860   24.3910   11.4880 N.2   501  MTX501     -0.3917
      9  C6         6.1870   25.4220   12.3220 C.2   501  MTX501      0.1330
     10  C7         6.3700   26.6980   11.7940 C.3   501  MTX501      0.1930
     11  N8         6.4820   27.0630   10.6270 N.2   501  MTX501     -0.1998
     12  C8A        6.5980   26.0120    9.7520 C.1   501  MTX501      0.1314
     13  C9         6.0570   25.0280   13.7990 C.3   501  MTX501      0.1481
     14  N10        5.4740   26.0960   14.5250 N.pl3 501  MTX501     -0.2999
     15  CM         6.3290   26.5470   15.6890 C.3   501  MTX501      0.1125
     16  C11        1.7930   27.9150   13.8000 C.ar  501  MTX501      0.0551
     17  C12        2.6870   28.4490   14.7550 C.ar  501  MTX501      0.0058
     18  C13        3.8880   28.0120   15.1870 C.ar  501  MTX501      0.0147
     19  C14        4.2720   26.7200   14.4370 C.ar  501  MTX501      0.0482
     20  C15        3.3170   26.1960   13.4180 C.ar  501  MTX501      0.0147
     21  C16        2.2110   26.7710   13.0640 C.ar  501  MTX501      0.0058
     22  C          0.6730   28.6080   13.5920 C.2   501  MTX501      0.2652
     23  O          0.0900   29.5830   14.1060 O.2   501  MTX501     -0.2684
     24  N         -0.1670   28.4160   12.6270 N.am  501  MTX501     -0.1918
     25  CA        -1.4060   28.6610   12.1940 C.3   501  MTX501      0.1986
     26  CT        -1.9290   27.4210   11.4820 C.2   501  MTX501      0.3842
     27  O1        -1.3990   26.5370   10.8400 O.co2 501  MTX501     -0.2437
     28  O2        -3.2960   27.3520   11.6440 O.co2 501  MTX501     -0.2437
     29  CB        -1.7240   29.7290   11.0740 C.3   501  MTX501      0.0451
     30  CG        -1.1970   31.1180   11.1710 C.3   501  MTX501      0.1164
     31  CD        -0.8190   32.3040   10.0600 C.2   501  MTX501      0.3649
     32  OE1        0.1360   33.2680   10.2230 O.co2 501  MTX501     -0.2457
     33  OE2       -1.7500   31.7850    9.2870 O.co2 501  MTX501     -0.2457
@<TRIPOS>BOND
     1     3     2    1
     2     2     4    2
     3     2     1    2
     4     4     5    2
     5     1    12    2
     6     5     6    1
     7     5     7    1
     8    33    31   ar
     9    12     7    1
    10    12    11    2
    11    31    32   ar
    12    31    30    1
    13     7     8    2
    14    11    10    1
    15    27    26   ar
    16    29    30    1
    17    29    25    1
    18    26    28   ar
    19    26    25    1
    20     8     9    2
    21    10     9    1
    22    25    24    1
    23     9    13    1
    24    24    22   am
    25    21    20   ar
    26    21    16   ar
    27    20    19   ar
    28    22    16    1
    29    22    23    2
    30    13    14    1
    31    16    17   ar
    32    19    14    1
    33    19    18   ar
    34    14    15    1
    35    17    18   ar
