@<TRIPOS>MOLECULE
1df8_BTN_A_1.pdb
 16 17 0 0 0
SMALL
GASTEIGER

@<TRIPOS>ATOM
      1  C11       32.5640   18.1390   14.0710 C.2   201  BTN201      0.3649
      2  O11       33.4260   17.4630   13.4730 O.co2 201  BTN201     -0.2457
      3  O12       32.5320   19.3920   13.9660 O.co2 201  BTN201     -0.2457
      4  C10       31.5990   17.4500   14.9620 C.3   201  BTN201      0.1141
      5  C9        31.2260   16.0460   14.5600 C.3   201  BTN201      0.0118
      6  C8        30.5160   16.0360   13.2000 C.3   201  BTN201      0.0015
      7  C7        30.0160   14.6260   12.8220 C.3   201  BTN201      0.0129
      8  C2        29.2080   14.5510   11.5450 C.3   201  BTN201      0.0729
      9  S1        27.5110   15.2280   11.7030 S.3   201  BTN201     -0.1369
     10  C6        27.1670   14.6500   10.0230 C.3   201  BTN201      0.0848
     11  C5        27.7360   13.2480    9.9740 C.3   201  BTN201      0.1509
     12  N1        26.8850   12.1810   10.4970 N.2   201  BTN201     -0.1859
     13  C3        27.4580   11.5460   11.5290 C.1   201  BTN201      0.2386
     14  O3        26.9770   10.6020   12.2050 O.2   201  BTN201     -0.2023
     15  N2        28.6480   12.1210   11.8210 N.2   201  BTN201     -0.1860
     16  C4        28.9670   13.2060   10.9010 C.3   201  BTN201      0.1500
@<TRIPOS>BOND
     1    11    10    1
     2    11    12    1
     3    11    16    1
     4    10     9    1
     5    12    13    2
     6    16     8    1
     7    16    15    1
     8    13    15    2
     9    13    14    2
    10     8     9    1
    11     8     7    1
    12     7     6    1
    13     6     5    1
    14     2     1   ar
    15     3     1   ar
    16     1     4    1
    17     5     4    1
