@<TRIPOS>MOLECULE
1dfg_NAD_A_1.pdb
 44 48 0 0 0
SMALL
GASTEIGER

@<TRIPOS>ATOM
      1  PA         6.2450   16.7110  135.7160 P.3   501  NAD501      0.2189
      2  O1A        4.9110   15.9540  135.7050 O.3   501  NAD501     -0.4371
      3  O2A        7.5060   16.0580  135.1580 O.2   501  NAD501     -0.5170
      4  O5B        6.5910   17.2270  137.2040 O.3   501  NAD501     -0.3112
      5  C5B        5.5370   17.5180  138.1910 C.3   501  NAD501      0.1813
      6  C4B        5.8650   16.8180  139.3850 C.3   501  NAD501      0.1821
      7  O4B        4.9060   17.1180  140.5190 O.3   501  NAD501     -0.3135
      8  C3B        5.9330   15.2490  139.3260 C.3   501  NAD501      0.2184
      9  O3B        7.3780   14.9070  139.6030 O.3   501  NAD501     -0.2174
     10  C2B        5.0000   14.7210  140.4310 C.3   501  NAD501      0.2570
     11  O2B        5.3730   13.5630  141.0380 O.3   501  NAD501     -0.2130
     12  C1B        4.9880   16.0280  141.3450 C.3   501  NAD501      0.3186
     13  N9A        3.9290   16.1140  142.3350 N.pl3 501  NAD501     -0.1439
     14  C8A        2.5560   16.1650  142.2030 C.3   501  NAD501      0.3377
     15  N7A        1.8600   16.0280  143.3290 N.2   501  NAD501     -0.2095
     16  C5A        2.7520   15.8470  144.2990 C.2   501  NAD501      0.2526
     17  C6A        2.5680   15.5980  145.7510 C.2   501  NAD501      0.4393
     18  N6A        1.4550   15.5180  146.3690 N.pl3 501  NAD501      0.2180
     19  N1A        3.7310   15.4390  146.4170 N.2   501  NAD501      0.0021
     20  C2A        4.9200   15.4470  145.8710 C.3   501  NAD501      0.5254
     21  N3A        5.1600   15.6370  144.4930 N.2   501  NAD501     -0.0055
     22  C4A        4.0470   15.8850  143.7300 C.2   501  NAD501      0.3518
     23  O3         6.0250   18.0850  135.0360 O.3   501  NAD501     -0.2703
     24  PN         7.0070   19.2620  134.5050 P.3   501  NAD501      0.2189
     25  O1N        6.6320   19.5330  133.1340 O.2   501  NAD501     -0.5170
     26  O2N        8.4170   18.9650  134.9600 O.3   501  NAD501     -0.4371
     27  O5D        6.4810   20.4150  135.4250 O.3   501  NAD501     -0.3112
     28  C5D        7.3020   20.9850  136.4550 C.3   501  NAD501      0.1813
     29  C4D        6.6690   22.1970  136.9070 C.3   501  NAD501      0.1799
     30  O4D        6.9140   23.1960  135.8140 O.3   501  NAD501     -0.3327
     31  C3D        5.0840   22.2220  136.9270 C.3   501  NAD501      0.2158
     32  O3D        4.8170   23.0710  137.9190 O.3   501  NAD501     -0.2175
     33  C2D        4.5940   22.8300  135.6090 C.3   501  NAD501      0.2309
     34  O2D        3.3830   23.5080  135.7910 O.3   501  NAD501     -0.2158
     35  C1D        5.7320   23.8050  135.4470 C.3   501  NAD501      0.2263
     36  N1N        5.9230   24.2550  134.0390 N.pl3 501  NAD501     -0.2787
     37  C2N        5.9760   23.3420  133.0210 C.3   501  NAD501      0.1244
     38  C3N        6.1470   23.9670  131.8080 C.2   501  NAD501      0.0544
     39  C7N        6.2010   22.9630  130.6260 C.2   501  NAD501      0.2818
     40  O7N        6.3250   23.4690  129.5300 O.2   501  NAD501     -0.2670
     41  N7N        6.1370   21.6140  130.8780 N.am  501  NAD501     -0.0839
     42  C4N        6.2540   25.3220  131.5460 C.2   501  NAD501      0.0033
     43  C5N        6.1440   26.1110  132.7000 C.2   501  NAD501      0.0157
     44  C6N        5.9870   25.5710  133.9220 C.2   501  NAD501      0.0633
@<TRIPOS>BOND
     1    40    39    2
     2    39    41   am
     3    39    38    1
     4    42    38    2
     5    42    43    1
     6    38    37    1
     7    43    44    2
     8    37    36    1
     9    25    24    2
    10    44    36    1
    11    36    35    1
    12    24    26    1
    13    24    23    1
    14    24    27    1
    15    23     1    1
    16     3     1    2
    17    27    28    1
    18    35    33    1
    19    35    30    1
    20    33    34    1
    21    33    31    1
    22     2     1    1
    23     1     4    1
    24    30    29    1
    25    28    29    1
    26    29    31    1
    27    31    32    1
    28     4     5    1
    29     5     6    1
    30     8     6    1
    31     8     9    1
    32     8    10    1
    33     6     7    1
    34    10    11    1
    35    10    12    1
    36     7    12    1
    37    12    13    1
    38    14    13    1
    39    14    15    1
    40    13    22    1
    41    15    16    2
    42    22    16    1
    43    22    21    2
    44    16    17    1
    45    21    20    1
    46    17    18    1
    47    17    19    2
    48    20    19    1
