@<TRIPOS>MOLECULE
1dfg_NDT_A_1.pdb
 21 23 0 0 0
SMALL
GASTEIGER

@<TRIPOS>ATOM
      1  C1         2.7980   22.3190  132.6590 C.ar    0  NDT0        0.0000
      2  C4         2.5920   23.3260  133.6090 C.ar    0  NDT0        0.0000
      3  C5         2.6010   24.6390  133.1660 C.ar    0  NDT0        0.0000
      4  C6         2.8140   24.9640  131.8290 C.ar    0  NDT0        0.0000
      5  C7         3.0200   23.9490  130.8930 C.ar    0  NDT0        0.0000
      6  C8         3.0120   22.6290  131.3190 C.ar    0  NDT0        0.0000
      7  C2         2.7640   20.9700  133.0590 C.ar    0  NDT0        0.0000
      8  N1         2.5220   20.6210  134.3230 N.ar    0  NDT0        0.0000
      9  N2         2.3530   21.5470  135.3030 N.ar    0  NDT0        0.0000
     10  B1         2.3290   22.9660  135.0960 B       0  NDT0        0.0000
     11  O1         1.0950   23.7780  135.6270 O.3     0  NDT0        0.0000
     12  S1         1.7070   20.8470  136.7420 S.O2    0  NDT0        0.0000
     13  O2         2.7880   20.1790  137.4600 O.2     0  NDT0        0.0000
     14  O3         1.2560   21.9060  137.6230 O.2     0  NDT0        0.0000
     15  C15        0.1950   20.1740  136.6480 C.ar    0  NDT0        0.0000
     16  C16       -0.1180   18.9120  137.1000 C.ar    0  NDT0        0.0000
     17  C17       -1.3050   18.3020  136.7430 C.ar    0  NDT0        0.0000
     18  C18       -2.1640   18.9730  135.9000 C.ar    0  NDT0        0.0000
     19  C19       -1.8550   20.2450  135.4340 C.ar    0  NDT0        0.0000
     20  C20       -0.6730   20.8480  135.8200 C.ar    0  NDT0        0.0000
     21  C21       -3.2690   18.1540  135.1930 C.3     0  NDT0        0.0000
@<TRIPOS>BOND
     1     5     6   ar
     2     5     4   ar
     3     6     1   ar
     4     4     3   ar
     5     1     7   ar
     6     1     2   ar
     7     7     8   ar
     8     3     2   ar
     9     2    10   ar
    10     8     9   ar
    11    10     9   ar
    12    10    11    1
    13    21    18    1
    14     9    12    1
    15    19    20   ar
    16    19    18   ar
    17    20    15   ar
    18    18    17   ar
    19    15    12    1
    20    15    16   ar
    21    12    13    2
    22    12    14    2
    23    17    16   ar
