@<TRIPOS>MOLECULE
1dfh_TDB_A_1.pdb
 17 18 0 0 0
SMALL
GASTEIGER

@<TRIPOS>ATOM
      1  S1         3.5490   22.1640  133.1070 S.2     0  TDB0        0.0000
      2  C7         3.3780   23.7710  133.2270 C.ar    0  TDB0        0.0000
      3  C8         3.4330   24.6060  132.1170 C.3     0  TDB0        0.0000
      4  C12        3.1890   24.2290  134.5680 C.ar    0  TDB0        0.0000
      5  C13        3.2480   23.0060  135.3520 C.ar    0  TDB0        0.0000
      6  C14        3.4190   21.8160  134.6680 C.ar    0  TDB0        0.0000
      7  C2         3.4300   20.5560  135.2510 C.ar    0  TDB0        0.0000
      8  N2         3.2360   20.4170  136.5460 N.ar    0  TDB0        0.0000
      9  N1         3.0760   21.4880  137.3050 N.ar    0  TDB0        0.0000
     10  B1         3.1330   22.8250  136.8100 B       0  TDB0        0.0000
     11  O1         1.9980   23.8030  137.2250 O.3     0  TDB0        0.0000
     12  S15        2.4540   21.0160  138.8080 S.O2    0  TDB0        0.0000
     13  O15        3.3200   19.8000  139.1590 O.2     0  TDB0        0.0000
     14  O16        1.7680   22.2680  139.3220 O.2     0  TDB0        0.0000
     15  C15        0.9260   20.1230  138.4580 C.3     0  TDB0        0.0000
     16  C16       -0.2150   20.4600  137.7550 C.2     0  TDB0        0.0000
     17  C17       -0.1050   21.1540  136.5720 C.2     0  TDB0        0.0000
@<TRIPOS>BOND
     1     3     2    1
     2     1     2   ar
     3     1     6   ar
     4     2     4   ar
     5     4     5   ar
     6     6     7   ar
     7     6     5   ar
     8     7     8   ar
     9     5    10   ar
    10     8     9   ar
    11    17    16    2
    12    10    11    1
    13    10     9   ar
    14     9    12    1
    15    16    15    1
    16    15    12    1
    17    12    13    2
    18    12    14    2
