@<TRIPOS>MOLECULE
1dfh_NAD_A_1.pdb
 44 48 0 0 0
SMALL
GASTEIGER

@<TRIPOS>ATOM
      1  PA         7.0500   16.4250  137.3100 P.3   501  NAD501      0.2189
      2  O1A        5.7730   15.6880  137.2200 O.3   501  NAD501     -0.4371
      3  O2A        8.3540   15.8460  136.7570 O.2   501  NAD501     -0.5170
      4  O5B        7.2880   16.8690  138.8320 O.3   501  NAD501     -0.3112
      5  C5B        6.1900   17.1380  139.8020 C.3   501  NAD501      0.1813
      6  C4B        6.6530   16.5390  141.0660 C.3   501  NAD501      0.1821
      7  O4B        5.7330   16.8330  142.1840 O.3   501  NAD501     -0.3135
      8  C3B        6.7910   14.9810  141.1320 C.3   501  NAD501      0.2184
      9  O3B        8.2460   14.6530  141.3160 O.3   501  NAD501     -0.2174
     10  C2B        5.9300   14.5020  142.3140 C.3   501  NAD501      0.2570
     11  O2B        6.3330   13.4000  143.0000 O.3   501  NAD501     -0.2130
     12  C1B        5.9610   15.8070  143.1070 C.3   501  NAD501      0.3186
     13  N9A        4.8920   15.8920  144.0360 N.pl3 501  NAD501     -0.1439
     14  C8A        3.5380   15.9580  143.7890 C.3   501  NAD501      0.3377
     15  N7A        2.7950   15.8780  144.8350 N.2   501  NAD501     -0.2095
     16  C5A        3.6150   15.7340  145.8540 C.2   501  NAD501      0.2526
     17  C6A        3.3230   15.5850  147.2280 C.2   501  NAD501      0.4393
     18  N6A        2.1370   15.5420  147.7500 N.pl3 501  NAD501      0.2180
     19  N1A        4.4320   15.5040  147.9810 N.2   501  NAD501      0.0021
     20  C2A        5.6540   15.5150  147.5650 C.3   501  NAD501      0.5254
     21  N3A        5.9780   15.6250  146.2480 N.2   501  NAD501     -0.0055
     22  C4A        4.9300   15.7740  145.4050 C.2   501  NAD501      0.3518
     23  O3         6.8230   17.8190  136.5740 O.3   501  NAD501     -0.2703
     24  PN         7.7570   19.1200  136.2470 P.3   501  NAD501      0.2189
     25  O1N        7.3250   19.6240  135.0000 O.2   501  NAD501     -0.5170
     26  O2N        9.2150   18.8930  136.5770 O.3   501  NAD501     -0.4371
     27  O5D        7.2080   20.0400  137.4250 O.3   501  NAD501     -0.3112
     28  C5D        8.1080   20.7160  138.3290 C.3   501  NAD501      0.1813
     29  C4D        7.5120   21.9710  138.7370 C.3   501  NAD501      0.1799
     30  O4D        7.8160   22.9440  137.6140 O.3   501  NAD501     -0.3327
     31  C3D        5.9360   22.0670  138.7790 C.3   501  NAD501      0.2158
     32  O3D        5.7430   22.9670  139.7960 O.3   501  NAD501     -0.2175
     33  C2D        5.4790   22.6490  137.4050 C.3   501  NAD501      0.2309
     34  O2D        4.3270   23.4040  137.5680 O.3   501  NAD501     -0.2158
     35  C1D        6.6600   23.5810  137.1820 C.3   501  NAD501      0.2263
     36  N1N        6.8900   24.0450  135.7540 N.pl3 501  NAD501     -0.2787
     37  C2N        6.8870   23.1260  134.7350 C.3   501  NAD501      0.1244
     38  C3N        6.8400   23.7090  133.5110 C.2   501  NAD501      0.0544
     39  C7N        6.8510   22.6130  132.3760 C.2   501  NAD501      0.2818
     40  O7N        6.7450   22.9640  131.2290 O.2   501  NAD501     -0.2670
     41  N7N        6.9990   21.3470  132.7440 N.am  501  NAD501     -0.0839
     42  C4N        6.7810   25.0480  133.2090 C.2   501  NAD501      0.0033
     43  C5N        6.7970   25.8690  134.3460 C.2   501  NAD501      0.0157
     44  C6N        6.8200   25.3690  135.6070 C.2   501  NAD501      0.0633
@<TRIPOS>BOND
     1    40    39    2
     2    39    41   am
     3    39    38    1
     4    42    38    2
     5    42    43    1
     6    38    37    1
     7    43    44    2
     8    37    36    1
     9    25    24    2
    10    44    36    1
    11    36    35    1
    12    24    23    1
    13    24    26    1
    14    24    27    1
    15    23     1    1
    16     3     1    2
    17    35    33    1
    18    35    30    1
    19     2     1    1
    20     1     4    1
    21    33    34    1
    22    33    31    1
    23    27    28    1
    24    30    29    1
    25    28    29    1
    26    29    31    1
    27    31    32    1
    28     4     5    1
    29     5     6    1
    30     6     8    1
    31     6     7    1
    32     8     9    1
    33     8    10    1
    34     7    12    1
    35    10    11    1
    36    10    12    1
    37    12    13    1
    38    14    13    1
    39    14    15    1
    40    13    22    1
    41    15    16    2
    42    22    16    1
    43    22    21    2
    44    16    17    1
    45    21    20    1
    46    17    18    1
    47    17    19    2
    48    20    19    1
