@<TRIPOS>MOLECULE
1dfi_NAD_A_1.pdb
 44 48 0 0 0
SMALL
GASTEIGER

@<TRIPOS>ATOM
      1  PA         4.4210  -12.6080   40.1180 P.3   501  NAD501      0.2189
      2  O1A        3.3780  -13.5840   39.5620 O.2   501  NAD501     -0.5170
      3  O2A        4.7090  -12.8630   41.6200 O.3   501  NAD501     -0.4371
      4  O5B        4.0650  -11.0690   39.7870 O.3   501  NAD501     -0.3112
      5  C5B        2.6700  -10.5680   39.7100 C.3   501  NAD501      0.1813
      6  C4B        2.2570   -9.7960   40.9060 C.3   501  NAD501      0.1821
      7  O4B        1.1340   -8.9050   40.4500 O.3   501  NAD501     -0.3135
      8  C3B        1.6040  -10.5450   42.1890 C.3   501  NAD501      0.2184
      9  O3B        2.3230  -10.1500   43.4610 O.3   501  NAD501     -0.2174
     10  C2B        0.1130  -10.1810   42.1960 C.3   501  NAD501      0.2570
     11  O2B       -0.5740  -10.1310   43.3520 O.3   501  NAD501     -0.2130
     12  C1B        0.2050   -8.8240   41.4750 C.3   501  NAD501      0.3186
     13  N9A       -1.0700   -8.4650   40.8720 N.pl3 501  NAD501     -0.1439
     14  C8A       -1.7580   -8.9890   39.7830 C.3   501  NAD501      0.3377
     15  N7A       -2.9410   -8.4050   39.5090 N.2   501  NAD501     -0.2095
     16  C5A       -3.0930   -7.4690   40.4400 C.2   501  NAD501      0.2526
     17  C6A       -4.1950   -6.5220   40.6530 C.2   501  NAD501      0.4393
     18  N6A       -5.2650   -6.4350   39.9330 N.pl3 501  NAD501      0.2180
     19  N1A       -3.9890   -5.6820   41.7600 N.2   501  NAD501      0.0021
     20  C2A       -2.9260   -5.7170   42.5500 C.3   501  NAD501      0.5254
     21  N3A       -1.8520   -6.6100   42.4190 N.2   501  NAD501     -0.0055
     22  C4A       -1.9600   -7.4750   41.3260 C.2   501  NAD501      0.3518
     23  O3         5.7470  -12.7620   39.2960 O.3   501  NAD501     -0.2703
     24  PN         6.9990  -11.7930   38.8480 P.3   501  NAD501      0.2189
     25  O1N        7.1120  -11.9120   37.4220 O.2   501  NAD501     -0.5170
     26  O2N        8.1040  -12.0940   39.7840 O.3   501  NAD501     -0.4371
     27  O5D        6.5990  -10.2700   39.2120 O.3   501  NAD501     -0.3112
     28  C5D        5.6630   -9.5430   38.4180 C.3   501  NAD501      0.1813
     29  C4D        6.2080   -8.4140   37.6680 C.3   501  NAD501      0.1799
     30  O4D        7.6620   -8.7210   37.1530 O.3   501  NAD501     -0.3327
     31  C3D        5.4590   -8.2010   36.2910 C.3   501  NAD501      0.2158
     32  O3D        5.5100   -6.8550   36.0650 O.3   501  NAD501     -0.2175
     33  C2D        6.1970   -9.1210   35.2510 C.3   501  NAD501      0.2309
     34  O2D        5.9490   -8.7940   33.9460 O.3   501  NAD501     -0.2158
     35  C1D        7.6860   -8.8330   35.6980 C.3   501  NAD501      0.2263
     36  N1N        8.8550   -9.7920   35.1700 N.pl3 501  NAD501     -0.2787
     37  C2N        8.8990  -11.1840   35.4920 C.3   501  NAD501      0.1244
     38  C3N        9.9270  -11.9020   34.8310 C.2   501  NAD501      0.0544
     39  C7N        9.9450  -13.4730   35.2320 C.2   501  NAD501      0.2818
     40  O7N       10.8270  -14.1920   34.6910 O.2   501  NAD501     -0.2670
     41  N7N        9.0270  -13.9150   36.1100 N.am  501  NAD501     -0.0839
     42  C4N       10.8640  -11.3810   33.9330 C.2   501  NAD501      0.0033
     43  C5N       10.7080   -9.9620   33.6750 C.2   501  NAD501      0.0157
     44  C6N        9.7260   -9.1880   34.2670 C.2   501  NAD501      0.0633
@<TRIPOS>BOND
     1    43    42    1
     2    43    44    2
     3    42    38    2
     4    34    33    1
     5    44    36    1
     6    40    39    2
     7    38    39    1
     8    38    37    1
     9    36    37    1
    10    36    35    1
    11    39    41   am
    12    33    35    1
    13    33    31    1
    14    35    30    1
    15    32    31    1
    16    31    29    1
    17    30    29    1
    18    25    24    2
    19    29    28    1
    20    28    27    1
    21    24    27    1
    22    24    23    1
    23    24    26    1
    24    23     1    1
    25    15    14    1
    26    15    16    2
    27     2     1    2
    28     5     4    1
    29     5     6    1
    30    14    13    1
    31     4     1    1
    32    18    17    1
    33     1     3    1
    34    16    17    1
    35    16    22    1
    36     7     6    1
    37     7    12    1
    38    17    19    2
    39    13    22    1
    40    13    12    1
    41     6     8    1
    42    22    21    2
    43    12    10    1
    44    19    20    1
    45     8    10    1
    46     8     9    1
    47    10    11    1
    48    21    20    1
