@<TRIPOS>MOLECULE
1dfl_ADP_A_1.pdb
 27 29 0 0 0
SMALL
GASTEIGER

@<TRIPOS>ATOM
      1  PB         0.1850    2.5620   57.7730 P.3   1999  ADP1999     0.5373
      2  O1B        0.0330    2.3810   59.2340 O.3   1999  ADP1999    -0.1143
      3  O2B        0.9500    1.4410   57.1450 O.2   1999  ADP1999    -0.2221
      4  O3B        0.6330    3.8940   57.3180 O.3   1999  ADP1999    -0.1143
      5  PA        -2.7170    2.1710   57.9170 P.3   1999  ADP1999     0.2231
      6  O1A       -2.6560    0.9290   58.6760 O.2   1999  ADP1999    -0.5169
      7  O2A       -3.1220    3.3430   58.7800 O.3   1999  ADP1999    -0.4370
      8  O3A       -1.3310    2.4630   57.1760 O.3   1999  ADP1999    -0.2261
      9  O5'       -3.7750    2.0310   56.7110 O.3   1999  ADP1999    -0.3111
     10  C5'       -4.1150    3.1940   55.9520 C.3   1999  ADP1999     0.1813
     11  C4'       -5.5970    3.0400   55.6200 C.3   1999  ADP1999     0.1821
     12  O4'       -5.7450    1.8540   54.7560 O.3   1999  ADP1999    -0.3135
     13  C3'       -6.4320    2.7330   56.8650 C.3   1999  ADP1999     0.2184
     14  O3'       -6.8030    3.9380   57.5550 O.3   1999  ADP1999    -0.2174
     15  C2'       -7.6170    2.0340   56.1770 C.3   1999  ADP1999     0.2570
     16  O2'       -8.4440    3.0340   55.5220 O.3   1999  ADP1999    -0.2130
     17  C1'       -6.9250    1.2090   55.1010 C.3   1999  ADP1999     0.3186
     18  N9        -6.6130   -0.1280   55.5430 N.pl3 1999  ADP1999    -0.1439
     19  C8        -5.4040   -0.7040   55.7610 C.3   1999  ADP1999     0.3377
     20  N7        -5.4640   -2.0140   56.0130 N.2   1999  ADP1999    -0.2095
     21  C5        -6.8300   -2.2540   55.9720 C.2   1999  ADP1999     0.2526
     22  C6        -7.5680   -3.4430   56.1480 C.2   1999  ADP1999     0.4393
     23  N6        -7.0410   -4.6340   56.4280 N.pl3 1999  ADP1999     0.2180
     24  N1        -8.9240   -3.3130   56.1050 N.2   1999  ADP1999     0.0021
     25  C2        -9.5070   -2.1060   55.8210 C.3   1999  ADP1999     0.5254
     26  N3        -8.9100   -0.9660   55.6010 N.2   1999  ADP1999    -0.0055
     27  C4        -7.5580   -1.1000   55.7430 C.2   1999  ADP1999     0.3518
@<TRIPOS>BOND
     1    12    17    1
     2    12    11    1
     3    17    18    1
     4    17    15    1
     5    16    15    1
     6    18    27    1
     7    18    19    1
     8    26    27    2
     9    26    25    1
    10    11    10    1
    11    11    13    1
    12    27    21    1
    13    19    20    1
    14    25    24    1
    15    10     9    1
    16    21    20    2
    17    21    22    1
    18    24    22    2
    19    22    23    1
    20    15    13    1
    21     9     5    1
    22    13    14    1
    23     3     1    2
    24     8     1    1
    25     8     5    1
    26     4     1    1
    27     1     2    1
    28     5     6    2
    29     5     7    1
