@<TRIPOS>MOLECULE
1dfo_FFO_A_1.pdb
 34 36 0 0 0
SMALL
GASTEIGER

@<TRIPOS>ATOM
      1  N1         9.5010   83.8170   43.4520 N.2   1002  FFO1002    -0.2723
      2  C2         8.3060   83.4100   43.9140 C.1   1002  FFO1002     0.2603
      3  NA2        7.3000   82.8090   43.3200 N.pl3 1002  FFO1002    -0.0221
      4  N3         8.0880   83.6730   45.2750 N.2   1002  FFO1002    -0.2512
      5  C4         8.9540   84.2940   46.1600 C.1   1002  FFO1002     0.2256
      6  O4         8.6490   84.4850   47.3810 O.2   1002  FFO1002    -0.2106
      7  C4A       10.2470   84.7290   45.5840 C.3   1002  FFO1002     0.2939
      8  N5        11.2940   85.3970   46.3670 N.am  1002  FFO1002    -0.2448
      9  C6        12.6140   85.0350   45.9110 C.3   1002  FFO1002     0.1243
     10  C7        12.6350   85.2700   44.4380 C.3   1002  FFO1002     0.1586
     11  N8        11.7270   84.6200   43.6490 N.2   1002  FFO1002    -0.2090
     12  C8A       10.4630   84.4490   44.2330 C.1   1002  FFO1002     0.1088
     13  C9        12.9370   83.5390   46.0790 C.3   1002  FFO1002     0.1340
     14  N10       12.9570   83.2050   47.5500 N.pl3 1002  FFO1002    -0.2358
     15  C11       12.6670   79.5260   49.3690 C.ar  1002  FFO1002     0.0551
     16  C12       13.5260   80.5350   49.9220 C.ar  1002  FFO1002     0.0059
     17  C13       13.6150   81.7630   49.3010 C.ar  1002  FFO1002     0.0162
     18  C14       12.8100   81.9330   48.1090 C.ar  1002  FFO1002     0.0654
     19  C15       11.9780   81.0220   47.5400 C.ar  1002  FFO1002     0.0162
     20  C16       11.9310   79.7820   48.2210 C.ar  1002  FFO1002     0.0059
     21  C         12.5360   78.2000   49.9740 C.2   1002  FFO1002     0.2655
     22  O         11.4590   77.6160   49.8510 O.2   1002  FFO1002    -0.2683
     23  N         13.5380   77.6370   50.6340 N.am  1002  FFO1002    -0.1872
     24  CA        13.3870   76.3810   51.4180 C.3   1002  FFO1002     0.2202
     25  CB        13.9720   75.2030   50.5700 C.2   1002  FFO1002     0.0133
     26  CG        15.3390   75.5610   49.7150 C.2   1002  FFO1002     0.0838
     27  CD        16.0930   74.5430   48.8030 C.2   1002  FFO1002     0.3877
     28  OE1       15.6430   74.4500   47.6620 O.co2 1002  FFO1002    -0.2406
     29  OE2       17.1210   73.8550   49.2880 O.co2 1002  FFO1002    -0.2406
     30  CT        14.2050   76.4830   52.6590 C.2   1002  FFO1002     0.3884
     31  O1        14.9530   77.4440   52.8430 O.co2 1002  FFO1002    -0.2434
     32  O2        14.1180   75.5750   53.5160 O.co2 1002  FFO1002    -0.2434
     33  C5A       10.9360   86.3940   47.1910 C.2   1002  FFO1002     0.3045
     34  O5B       11.8340   86.9460   47.8690 O.2   1002  FFO1002    -0.2649
@<TRIPOS>BOND
     1     3     2    1
     2     1     2    2
     3     1    12    2
     4    11    12    2
     5    11    10    1
     6     2     4    2
     7    12     7    1
     8    10     9    1
     9     4     5    2
    10     7     5    1
    11     7     8    1
    12     9    13    1
    13     9     8    1
    14    13    14    1
    15     5     6    2
    16     8    33   am
    17    33    34    2
    18    19    18   ar
    19    19    20   ar
    20    14    18    1
    21    28    27   ar
    22    18    17   ar
    23    20    15   ar
    24    27    29   ar
    25    27    26    1
    26    17    16   ar
    27    15    16   ar
    28    15    21    1
    29    26    25    2
    30    22    21    2
    31    21    23   am
    32    25    24    1
    33    23    24    1
    34    24    30    1
    35    30    31   ar
    36    30    32   ar
