@<TRIPOS>MOLECULE
1dfo_PLG_A_1.pdb
 20 20 0 0 0
SMALL
GASTEIGER

@<TRIPOS>ATOM
      1  N1         5.5360   90.6470   49.0860 N.ar  1001  PLG1001    -0.2452
      2  C2         5.8090   90.3690   47.7960 C.ar  1001  PLG1001     0.0981
      3  C2A        4.6420   90.1640   46.9040 C.3   1001  PLG1001     0.0555
      4  C3         7.1990   90.3040   47.4320 C.ar  1001  PLG1001     0.2103
      5  O3         7.5160   90.0280   46.1790 O.3   1001  PLG1001    -0.2853
      6  C4         8.1960   90.5300   48.4510 C.ar  1001  PLG1001     0.0587
      7  C4A        9.5930   90.4500   48.0640 C.2   1001  PLG1001     0.0968
      8  C5         7.8450   90.8070   49.7820 C.ar  1001  PLG1001     0.0316
      9  C6         6.4600   90.8680   50.0790 C.ar  1001  PLG1001     0.0968
     10  C5A        8.7110   91.0350   50.9660 C.3   1001  PLG1001     0.1819
     11  OP4        9.6090   92.1260   50.9330 O.3   1001  PLG1001    -0.2653
     12  P         10.9270   92.3100   51.7150 P.3   1001  PLG1001     0.5329
     13  OP1       10.6210   91.6870   53.0460 O.3   1001  PLG1001    -0.1145
     14  OP2       12.0030   91.5610   50.8740 O.2   1001  PLG1001    -0.2224
     15  OP3       11.3500   93.7400   51.8260 O.3   1001  PLG1001    -0.1145
     16  C         11.3600   89.1440   45.0580 C.2   1001  PLG1001     0.3892
     17  O         10.2750   88.9250   44.4860 O.co2 1001  PLG1001    -0.2434
     18  OXT       12.4620   88.8820   44.5420 O.co2 1001  PLG1001    -0.2434
     19  CA        11.3260   89.7630   46.4400 C.3   1001  PLG1001     0.2389
     20  N          9.9770   89.7460   46.9730 N.2   1001  PLG1001    -0.2568
@<TRIPOS>BOND
     1    17    16   ar
     2    18    16   ar
     3    16    19    1
     4     5     4    1
     5    19    20    1
     6     3     2    1
     7    20     7    2
     8     4     2   ar
     9     4     6   ar
    10     2     1   ar
    11     7     6    1
    12     6     8   ar
    13     1     9   ar
    14     8     9   ar
    15     8    10    1
    16    14    12    2
    17    11    10    1
    18    11    12    1
    19    12    15    1
    20    12    13    1
