@<TRIPOS>MOLECULE
1dfp_DFP_A_1.pdb
 10 9 0 0 0
SMALL
GASTEIGER

@<TRIPOS>ATOM
      1  C1        -0.7370   25.0400    5.9520 C.3   500  DFP500      0.1236
      2  C2        -0.6530   26.3340    5.1060 C.3   500  DFP500      0.0325
      3  C3         0.4850   24.8040    6.9240 C.3   500  DFP500      0.0325
      4  C1'       -3.6880   23.5270    3.7380 C.3   500  DFP500      0.1236
      5  C2'       -4.7080   24.6100    4.1650 C.3   500  DFP500      0.0325
      6  C3'       -4.3400   22.4830    2.8380 C.3   500  DFP500      0.0325
      7  P         -1.7420   22.6720    5.4680 P.3   500  DFP500      0.3659
      8  O1P       -0.8970   23.9450    5.0400 O.3   500  DFP500     -0.2993
      9  O2P       -3.2500   22.8700    4.9310 O.3   500  DFP500     -0.2993
     10  O3P       -1.7020   22.4620    6.9710 O.3   500  DFP500     -0.1446
@<TRIPOS>BOND
     1     6     4    1
     2     4     5    1
     3     4     9    1
     4     9     7    1
     5     8     7    1
     6     8     1    1
     7     2     1    1
     8     7    10    1
     9     1     3    1
