@<TRIPOS>MOLECULE
1dfq_SLB_A_1.pdb
 21 21 0 0 0
SMALL
GASTEIGER

@<TRIPOS>ATOM
      1  C1         9.3000    1.9580   85.5580 C.2   1400  SLB1400     0.4179
      2  C2         9.9720    0.6020   85.3080 C.3   1400  SLB1400     0.3155
      3  C3        10.9440    0.4980   84.1640 C.3   1400  SLB1400     0.1056
      4  C4        11.0670   -0.8760   83.5250 C.3   1400  SLB1400     0.1798
      5  C5         9.8350   -1.7840   83.6400 C.3   1400  SLB1400     0.1554
      6  C6         9.0760   -1.5390   84.9580 C.3   1400  SLB1400     0.1734
      7  C7         7.7670   -2.2500   85.2910 C.3   1400  SLB1400     0.2135
      8  C8         7.0470   -1.5440   86.4590 C.3   1400  SLB1400     0.2173
      9  C9         5.7640   -2.1860   86.9200 C.3   1400  SLB1400     0.2175
     10  C10       11.1280   -3.8310   84.2900 C.2   1400  SLB1400     0.2420
     11  C11       11.3430   -5.3000   83.9960 C.3   1400  SLB1400     0.0964
     12  N5        10.2870   -3.1700   83.4960 N.am  1400  SLB1400    -0.2020
     13  O1A        9.8930    2.9150   84.8960 O.co2 1400  SLB1400    -0.2401
     14  O1B        8.3290    2.0270   86.2510 O.co2 1400  SLB1400    -0.2401
     15  O2        10.5650    0.1050   86.4630 O.3   1400  SLB1400    -0.1830
     16  O4        11.2980   -0.6800   82.1210 O.3   1400  SLB1400    -0.2210
     17  O6         8.7820   -0.1120   84.9570 O.3   1400  SLB1400    -0.3220
     18  O7         6.8640   -2.3870   84.1990 O.3   1400  SLB1400    -0.2176
     19  O8         7.9740   -1.4980   87.5460 O.3   1400  SLB1400    -0.2175
     20  O9         5.2250   -1.5080   88.0640 O.3   1400  SLB1400    -0.2175
     21  O10       11.7530   -3.3240   85.2630 O.2   1400  SLB1400    -0.2733
@<TRIPOS>BOND
     1    16     4    1
     2    12     5    1
     3    12    10   am
     4     4     5    1
     5     4     3    1
     6     5     6    1
     7    11    10    1
     8     3     2    1
     9    18     7    1
    10    10    21    2
    11    13     1   ar
    12    17     6    1
    13    17     2    1
    14     6     7    1
    15     7     8    1
    16     2     1    1
    17     2    15    1
    18     1    14   ar
    19     8     9    1
    20     8    19    1
    21     9    20    1
