@<TRIPOS>MOLECULE
1dg1_GDP_G_1.pdb
 28 30 0 0 0
SMALL
GASTEIGER

@<TRIPOS>ATOM
      1  PB       -14.2600   47.9550   -5.0490 P.3   999  GDP999      0.5373
      2  O1B      -15.0790   48.5390   -3.9170 O.3   999  GDP999     -0.1143
      3  O2B      -12.9780   47.3340   -4.4450 O.3   999  GDP999     -0.1143
      4  O3B      -14.0270   49.0520   -6.0340 O.2   999  GDP999     -0.2221
      5  O3A      -14.8960   46.8950   -5.7730 O.3   999  GDP999     -0.2261
      6  PA       -14.5780   45.3610   -5.9170 P.3   999  GDP999      0.2231
      7  O1A      -13.4290   45.1020   -6.7400 O.2   999  GDP999     -0.5169
      8  O2A      -14.6580   44.6510   -4.6210 O.3   999  GDP999     -0.4370
      9  O5'      -15.8010   44.8120   -6.8110 O.3   999  GDP999     -0.3111
     10  C5'      -17.0380   45.1070   -6.3240 C.3   999  GDP999      0.1813
     11  C4'      -18.0140   44.2270   -6.9660 C.3   999  GDP999      0.1799
     12  O4'      -18.2060   44.5490   -8.3520 O.3   999  GDP999     -0.3326
     13  C3'      -17.5610   42.7820   -6.8420 C.3   999  GDP999      0.2158
     14  O3'      -18.7090   41.9530   -6.6530 O.3   999  GDP999     -0.2175
     15  C2'      -16.9940   42.5310   -8.2030 C.3   999  GDP999      0.2310
     16  O2'      -17.0730   41.1420   -8.5070 O.3   999  GDP999     -0.2158
     17  C1'      -17.9060   43.3490   -9.0850 C.3   999  GDP999      0.2293
     18  N9       -17.1840   43.6900  -10.3180 N.pl3 999  GDP999     -0.2354
     19  C8       -15.9130   44.1590  -10.4670 C.3   999  GDP999      0.2246
     20  N7       -15.5670   44.2700  -11.7040 N.2   999  GDP999     -0.2322
     21  C5       -16.6700   43.8580  -12.4200 C.2   999  GDP999      0.2182
     22  C6       -16.8800   43.7700  -13.8170 C.1   999  GDP999      0.2372
     23  O6       -16.0810   43.9020  -14.7530 O.2   999  GDP999     -0.2069
     24  N1       -18.1690   43.3370  -14.1010 N.2   999  GDP999     -0.2485
     25  C2       -19.1130   43.0170  -13.1970 C.1   999  GDP999      0.2531
     26  N2       -20.2800   42.7210  -13.7090 N.pl3 999  GDP999     -0.0226
     27  N3       -18.9200   43.0640  -11.8920 N.2   999  GDP999     -0.3074
     28  C4       -17.6780   43.5020  -11.5800 C.2   999  GDP999      0.2300
@<TRIPOS>BOND
     1    23    22    2
     2    24    22    2
     3    24    25    2
     4    22    21    1
     5    26    25    1
     6    25    27    2
     7    21    20    2
     8    21    28    1
     9    27    28    2
    10    20    19    1
    11    28    18    1
    12    19    18    1
    13    18    17    1
    14    17    12    1
    15    17    15    1
    16    16    15    1
    17    12    11    1
    18    15    13    1
    19    11    13    1
    20    11    10    1
    21    13    14    1
    22     9    10    1
    23     9     6    1
    24     7     6    2
    25     4     1    2
    26     6     5    1
    27     6     8    1
    28     5     1    1
    29     1     3    1
    30     1     2    1
