@<TRIPOS>MOLECULE
1dg5_NDP_A_1.pdb
 48 52 0 0 0
SMALL
GASTEIGER

@<TRIPOS>ATOM
      1  PA        11.6830   16.6720   17.2570 P.3   200  NDP200      0.2189
      2  O1A       11.9680   15.8810   16.0540 O.2   200  NDP200     -0.5170
      3  O2A       10.5610   17.6080   17.0560 O.3   200  NDP200     -0.4371
      4  O5B       11.3200   15.7210   18.4880 O.3   200  NDP200     -0.3112
      5  C5B       12.3200   14.7340   18.8990 C.3   200  NDP200      0.1813
      6  C4B       11.5330   13.8710   19.9020 C.3   200  NDP200      0.1820
      7  O4B       10.6840   12.9950   19.1350 O.3   200  NDP200     -0.3136
      8  C3B       12.3990   12.9220   20.7500 C.3   200  NDP200      0.2157
      9  O3B       12.9840   13.6720   21.7910 O.3   200  NDP200     -0.2175
     10  C2B       11.2810   11.9000   21.1340 C.3   200  NDP200      0.2314
     11  O2B       10.3840   12.3250   22.1160 O.3   200  NDP200     -0.2630
     12  C1B       10.6100   11.7360   19.8140 C.3   200  NDP200      0.3158
     13  N9A       11.2120   10.7360   18.9890 N.pl3 200  NDP200     -0.1439
     14  C8A       12.2550   10.8740   18.1220 C.3   200  NDP200      0.3377
     15  N7A       12.5300    9.7500   17.4780 N.2   200  NDP200     -0.2095
     16  C5A       11.6070    8.8560   17.9600 C.2   200  NDP200      0.2526
     17  C6A       11.3970    7.4830   17.6570 C.2   200  NDP200      0.4393
     18  N6A       12.1800    6.8680   16.7570 N.pl3 200  NDP200      0.2180
     19  N1A       10.3910    6.8520   18.3180 N.2   200  NDP200      0.0021
     20  C2A        9.6530    7.5700   19.2280 C.3   200  NDP200      0.5254
     21  N3A        9.7820    8.8250   19.5650 N.2   200  NDP200     -0.0055
     22  C4A       10.7850    9.4190   18.8760 C.2   200  NDP200      0.3518
     23  O3        12.9260   17.4250   17.7490 O.3   200  NDP200     -0.2703
     24  PN        14.1830   18.2370   17.2660 P.3   200  NDP200      0.2189
     25  O1N       14.9890   18.6910   18.4080 O.3   200  NDP200     -0.4371
     26  O2N       14.9590   17.4640   16.2930 O.2   200  NDP200     -0.5170
     27  O5D       13.5280   19.5080   16.4560 O.3   200  NDP200     -0.3112
     28  C5D       12.9040   20.5520   17.2550 C.3   200  NDP200      0.1813
     29  C4D       13.3590   21.8920   16.6240 C.3   200  NDP200      0.1799
     30  O4D       12.8350   21.9930   15.2640 O.3   200  NDP200     -0.3327
     31  C3D       12.8150   23.1240   17.3800 C.3   200  NDP200      0.2158
     32  O3D       13.8790   24.0690   17.4980 O.3   200  NDP200     -0.2175
     33  C2D       11.6590   23.5630   16.4560 C.3   200  NDP200      0.2309
     34  O2D       11.3540   24.9410   16.6780 O.3   200  NDP200     -0.2158
     35  C1D       12.2200   23.2800   15.0760 C.3   200  NDP200      0.2263
     36  N1N       11.1410   23.1840   14.0280 N.pl3 200  NDP200     -0.2787
     37  C2N       11.3570   23.9420   12.8480 C.3   200  NDP200      0.1244
     38  C3N       10.3770   23.8570   11.8580 C.2   200  NDP200      0.0544
     39  C7N       10.6250   24.6900   10.5540 C.2   200  NDP200      0.2818
     40  O7N        9.8980   24.4830    9.6080 O.2   200  NDP200     -0.2670
     41  N7N       11.6440   25.5880   10.5760 N.am  200  NDP200     -0.0839
     42  C4N        9.1760   23.0720   11.9420 C.2   200  NDP200      0.0033
     43  C5N        9.0910   22.3640   13.1970 C.2   200  NDP200      0.0157
     44  C6N       10.0020   22.3890   14.2110 C.2   200  NDP200      0.0633
     45  P2B       10.7300   11.9130   23.7120 P.3   200  NDP200      0.5328
     46  O1X       12.0200   12.5020   23.9950 O.3   200  NDP200     -0.1145
     47  O2X        9.5190   12.5700   24.3120 O.3   200  NDP200     -0.1145
     48  O3X       10.7060   10.4400   23.6390 O.2   200  NDP200     -0.2224
@<TRIPOS>BOND
     1    40    39    2
     2    39    41   am
     3    39    38    1
     4    38    42    2
     5    38    37    1
     6    42    43    1
     7    37    36    1
     8    43    44    2
     9    36    44    1
    10    36    35    1
    11    35    30    1
    12    35    33    1
    13    30    29    1
    14     2     1    2
    15    26    24    2
    16    27    28    1
    17    27    24    1
    18    33    34    1
    19    33    31    1
    20    29    28    1
    21    29    31    1
    22    18    17    1
    23     3     1    1
    24     1    23    1
    25     1     4    1
    26    24    23    1
    27    24    25    1
    28    31    32    1
    29    15    16    2
    30    15    14    1
    31    17    16    1
    32    17    19    2
    33    16    22    1
    34    14    13    1
    35    19    20    1
    36     4     5    1
    37    22    13    1
    38    22    21    2
    39     5     6    1
    40    13    12    1
    41     7    12    1
    42     7     6    1
    43    20    21    1
    44    12    10    1
    45     6     8    1
    46     8    10    1
    47     8     9    1
    48    10    11    1
    49    11    45    1
    50    48    45    2
    51    45    46    1
    52    45    47    1
