@<TRIPOS>MOLECULE
1dg5_TOP_A_1.pdb
 21 22 0 0 0
SMALL
GASTEIGER

@<TRIPOS>ATOM
      1  C1         5.9830   25.7930   10.1880 C.2   201  TOP201      0.1118
      2  N2         6.2400   26.2760    8.9520 N.2   201  TOP201     -0.1675
      3  C3         6.5570   25.4290    7.9930 C.1   201  TOP201      0.1877
      4  N4         6.8030   25.9090    6.7380 N.pl3 201  TOP201     -0.0345
      5  N5         6.6800   24.0740    8.0500 N.2   201  TOP201     -0.3170
      6  C6         6.4370   23.5410    9.2500 C.2   201  TOP201      0.2297
      7  N7         6.5300   22.2160    9.4330 N.pl3 201  TOP201     -0.0924
      8  C8         6.0550   24.4400   10.4130 C.2   201  TOP201      0.0500
      9  C9         5.7660   23.8470   11.7890 C.3   201  TOP201      0.0585
     10  C10        5.4170   24.8530   12.8490 C.ar  201  TOP201     -0.0114
     11  C11        6.3880   25.0710   13.8240 C.ar  201  TOP201      0.0363
     12  C12        6.1740   26.0090   14.8470 C.ar  201  TOP201      0.1751
     13  O13        7.1040   26.2590   15.8270 O.3   201  TOP201     -0.4683
     14  C14        8.2680   25.4640   15.8470 C.3   201  TOP201      0.2526
     15  C15        4.9590   26.7200   14.8540 C.ar  201  TOP201      0.2060
     16  O16        4.7110   27.6750   15.8490 O.3   201  TOP201     -0.4654
     17  C17        5.2380   28.8840   15.3710 C.3   201  TOP201      0.2528
     18  C18        3.9730   26.5030   13.8830 C.ar  201  TOP201      0.1751
     19  O19        2.8140   27.2690   14.0130 O.3   201  TOP201     -0.4683
     20  C20        2.0460   27.2620   12.7990 C.3   201  TOP201      0.2526
     21  C21        4.1840   25.5560   12.8500 C.ar  201  TOP201      0.0363
@<TRIPOS>BOND
     1     4     3    1
     2     3     5    2
     3     3     2    2
     4     5     6    2
     5     2     1    1
     6     6     7    1
     7     6     8    1
     8     1     8    2
     9     8     9    1
    10     9    10    1
    11    20    19    1
    12    10    21   ar
    13    10    11   ar
    14    21    18   ar
    15    11    12   ar
    16    18    19    1
    17    18    15   ar
    18    12    15   ar
    19    12    13    1
    20    15    16    1
    21    17    16    1
    22    13    14    1
