@<TRIPOS>MOLECULE
1dg7_WRB_A_1.pdb
 22 23 0 0 0
SMALL
GASTEIGER

@<TRIPOS>ATOM
      1  C1         6.4370   25.9750    9.8050 C.3   200  WRB200      0.1882
      2  N2         6.2470   26.3100    8.4280 N.2   200  WRB200     -0.1755
      3  C3         6.6030   25.3520    7.5240 C.1   200  WRB200      0.1863
      4  N4         6.6310   24.0460    7.8860 N.2   200  WRB200     -0.2967
      5  C5         6.6470   23.7130    9.1760 C.2   200  WRB200      0.3223
      6  N6         6.1040   24.5840   10.0590 N.4   200  WRB200     -0.1779
      7  O7         6.4250   24.2280   11.4210 O.3   200  WRB200     -0.2523
      8  C8         5.2960   23.5680   12.0440 C.3   200  WRB200      0.1779
      9  C9         5.5130   23.5200   13.5600 C.3   200  WRB200      0.0822
     10  C10        5.4080   24.9090   14.1830 C.3   200  WRB200      0.2081
     11  O11        4.3380   25.5970   13.4830 O.3   200  WRB200     -0.4754
     12  C12        3.6980   26.6610   14.2420 C.ar  200  WRB200      0.1386
     13  C13        4.4770   27.4920   15.0970 C.ar  200  WRB200      0.0374
     14  C14        3.8610   28.6990   15.5850 C.ar  200  WRB200      0.0098
     15  C15        2.3660   26.9550   13.8620 C.ar  200  WRB200      0.0374
     16  C16        1.7640   28.1470   14.3410 C.ar  200  WRB200      0.0098
     17  C17        2.4930   29.0370   15.2070 C.ar  200  WRB200      0.0348
     18  CM1        5.5390   26.8300   10.6210 C.3   200  WRB200      0.0510
     19  CM2        7.8420   26.2790   10.2060 C.3   200  WRB200      0.0510
     20  NH1        6.5580   25.6480    6.2120 N.pl3 200  WRB200     -0.0347
     21  NH2        6.7470   22.4030    9.4950 N.pl3 200  WRB200     -0.0732
     22 BR          1.6050   30.6320   15.9060 Br    200  WRB200     -0.0490
@<TRIPOS>BOND
     1    20     3    1
     2     3     4    2
     3     3     2    2
     4     4     5    2
     5     2     1    1
     6     5    21    1
     7     5     6    1
     8     1     6    1
     9     1    19    1
    10     1    18    1
    11     6     7    1
    12     7     8    1
    13     8     9    1
    14    11    10    1
    15    11    12    1
    16     9    10    1
    17    15    12   ar
    18    15    16   ar
    19    12    13   ar
    20    16    17   ar
    21    13    14   ar
    22    17    14   ar
    23    17    22    1
