@<TRIPOS>MOLECULE
1dg7_NDP_A_1.pdb
 48 52 0 0 0
SMALL
GASTEIGER

@<TRIPOS>ATOM
      1  PA        11.6550   16.7330   17.2430 P.3   201  NDP201      0.2189
      2  O1A       11.9710   15.9570   16.0130 O.2   201  NDP201     -0.5170
      3  O2A       10.5360   17.6980   17.0330 O.3   201  NDP201     -0.4371
      4  O5B       11.2600   15.7610   18.4720 O.3   201  NDP201     -0.3112
      5  C5B       12.2400   14.7480   18.9040 C.3   201  NDP201      0.1813
      6  C4B       11.4270   13.8730   19.9040 C.3   201  NDP201      0.1820
      7  O4B       10.5620   12.9930   19.1160 O.3   201  NDP201     -0.3136
      8  C3B       12.2340   13.0060   20.6770 C.3   201  NDP201      0.2157
      9  O3B       12.8380   13.7520   21.7280 O.3   201  NDP201     -0.2175
     10  C2B       11.1610   11.9210   21.0940 C.3   201  NDP201      0.2314
     11  O2B       10.2460   12.2910   22.0920 O.3   201  NDP201     -0.2630
     12  C1B       10.4910   11.7250   19.7930 C.3   201  NDP201      0.3158
     13  N9A       11.1010   10.6910   18.9820 N.pl3 201  NDP201     -0.1439
     14  C8A       12.1420   10.7830   18.1070 C.3   201  NDP201      0.3377
     15  N7A       12.4090    9.6430   17.4960 N.2   201  NDP201     -0.2095
     16  C5A       11.4770    8.7860   18.0080 C.2   201  NDP201      0.2526
     17  C6A       11.2330    7.3820   17.7520 C.2   201  NDP201      0.4393
     18  N6A       11.9990    6.7070   16.8690 N.pl3 201  NDP201      0.2180
     19  N1A       10.2110    6.7970   18.4520 N.2   201  NDP201      0.0021
     20  C2A        9.4930    7.5730   19.3380 C.3   201  NDP201      0.5254
     21  N3A        9.6450    8.8430   19.6310 N.2   201  NDP201     -0.0055
     22  C4A       10.6620    9.3970   18.9120 C.2   201  NDP201      0.3518
     23  O3        12.8920   17.4480   17.7540 O.3   201  NDP201     -0.2703
     24  PN        14.1330   18.2720   17.2770 P.3   201  NDP201      0.2189
     25  O1N       14.9670   18.6620   18.4370 O.3   201  NDP201     -0.4371
     26  O2N       14.8990   17.5330   16.2360 O.2   201  NDP201     -0.5170
     27  O5D       13.4630   19.5750   16.5380 O.3   201  NDP201     -0.3112
     28  C5D       12.8530   20.5980   17.3760 C.3   201  NDP201      0.1813
     29  C4D       13.3580   21.9210   16.7750 C.3   201  NDP201      0.1799
     30  O4D       12.8950   22.0290   15.4210 O.3   201  NDP201     -0.3327
     31  C3D       12.8370   23.1870   17.5020 C.3   201  NDP201      0.2158
     32  O3D       13.9080   24.1120   17.5260 O.3   201  NDP201     -0.2175
     33  C2D       11.6710   23.6190   16.5880 C.3   201  NDP201      0.2309
     34  O2D       11.3970   25.0130   16.7910 O.3   201  NDP201     -0.2158
     35  C1D       12.2390   23.3040   15.2160 C.3   201  NDP201      0.2263
     36  N1N       11.2130   23.1120   14.1380 N.pl3 201  NDP201     -0.2787
     37  C2N       11.4410   23.8420   12.9500 C.3   201  NDP201      0.1244
     38  C3N       10.5350   23.6450   11.9290 C.2   201  NDP201      0.0544
     39  C7N       10.7930   24.4250   10.6190 C.2   201  NDP201      0.2818
     40  O7N       10.1330   24.0950    9.6600 O.2   201  NDP201     -0.2670
     41  N7N       11.7370   25.4120   10.6380 N.am  201  NDP201     -0.0839
     42  C4N        9.3920   22.7790   11.9780 C.2   201  NDP201      0.0033
     43  C5N        9.2860   22.1160   13.2500 C.2   201  NDP201      0.0157
     44  C6N       10.1330   22.2420   14.3010 C.2   201  NDP201      0.0633
     45  P2B       10.6580   12.0060   23.7130 P.3   201  NDP201      0.5328
     46  O1X       11.8730   12.7670   23.9670 O.3   201  NDP201     -0.1145
     47  O2X        9.3790   12.5550   24.3180 O.3   201  NDP201     -0.1145
     48  O3X       10.8000   10.5270   23.7210 O.2   201  NDP201     -0.2224
@<TRIPOS>BOND
     1    40    39    2
     2    39    41   am
     3    39    38    1
     4    38    42    2
     5    38    37    1
     6    42    43    1
     7    37    36    1
     8    43    44    2
     9    36    44    1
    10    36    35    1
    11    35    30    1
    12    35    33    1
    13    30    29    1
    14     2     1    2
    15    26    24    2
    16    27    24    1
    17    27    28    1
    18    33    34    1
    19    33    31    1
    20    29    28    1
    21    29    31    1
    22    18    17    1
    23     3     1    1
    24     1    23    1
    25     1     4    1
    26    24    23    1
    27    24    25    1
    28    15    16    2
    29    15    14    1
    30    31    32    1
    31    17    16    1
    32    17    19    2
    33    16    22    1
    34    14    13    1
    35    19    20    1
    36     4     5    1
    37     5     6    1
    38    22    13    1
    39    22    21    2
    40    13    12    1
    41     7    12    1
    42     7     6    1
    43    20    21    1
    44    12    10    1
    45     6     8    1
    46     8    10    1
    47     8     9    1
    48    10    11    1
    49    11    45    1
    50    45    48    2
    51    45    46    1
    52    45    47    1
