@<TRIPOS>MOLECULE
1dg8_NDP_A_1.pdb
 48 52 0 0 0
SMALL
GASTEIGER

@<TRIPOS>ATOM
      1  PA        11.6620   16.7620   17.2800 P.3   160  NDP160      0.2189
      2  O1A       11.9230   15.9820   16.0370 O.2   160  NDP160     -0.5170
      3  O2A       10.5190   17.7100   17.1310 O.3   160  NDP160     -0.4371
      4  O5B       11.3300   15.8080   18.4960 O.3   160  NDP160     -0.3112
      5  C5B       12.3040   14.8090   18.8960 C.3   160  NDP160      0.1813
      6  C4B       11.4760   14.0200   19.9470 C.3   160  NDP160      0.1820
      7  O4B       10.5730   13.1590   19.2140 O.3   160  NDP160     -0.3136
      8  C3B       12.3170   13.0710   20.8270 C.3   160  NDP160      0.2157
      9  O3B       12.8710   13.8530   21.8640 O.3   160  NDP160     -0.2175
     10  C2B       11.1860   12.0440   21.2000 C.3   160  NDP160      0.2314
     11  O2B       10.2830   12.4560   22.1870 O.3   160  NDP160     -0.2630
     12  C1B       10.5000   11.9020   19.9000 C.3   160  NDP160      0.3158
     13  N9A       11.0720   10.9180   19.0420 N.pl3 160  NDP160     -0.1439
     14  C8A       12.0580   11.0780   18.1080 C.3   160  NDP160      0.3377
     15  N7A       12.3160    9.9730   17.4420 N.2   160  NDP160     -0.2095
     16  C5A       11.4380    9.0630   17.9770 C.2   160  NDP160      0.2526
     17  C6A       11.2190    7.6870   17.6740 C.2   160  NDP160      0.4393
     18  N6A       11.9440    7.0860   16.7040 N.pl3 160  NDP160      0.2180
     19  N1A       10.2610    7.0350   18.4040 N.2   160  NDP160      0.0021
     20  C2A        9.5780    7.7400   19.3790 C.3   160  NDP160      0.5254
     21  N3A        9.7140    8.9930   19.7220 N.2   160  NDP160     -0.0055
     22  C4A       10.6670    9.6080   18.9570 C.2   160  NDP160      0.3518
     23  O3        12.8940   17.5000   17.7410 O.3   160  NDP160     -0.2703
     24  PN        14.1100   18.3440   17.2210 P.3   160  NDP160      0.2189
     25  O1N       14.9490   18.7710   18.3610 O.3   160  NDP160     -0.4371
     26  O2N       14.8800   17.6120   16.1800 O.2   160  NDP160     -0.5170
     27  O5D       13.3860   19.6030   16.4830 O.3   160  NDP160     -0.3112
     28  C5D       12.7780   20.6020   17.3210 C.3   160  NDP160      0.1813
     29  C4D       13.2330   21.9150   16.6840 C.3   160  NDP160      0.1799
     30  O4D       12.7030   21.9960   15.3260 O.3   160  NDP160     -0.3327
     31  C3D       12.7180   23.1450   17.4390 C.3   160  NDP160      0.2158
     32  O3D       13.8360   24.0190   17.5580 O.3   160  NDP160     -0.2175
     33  C2D       11.5660   23.6080   16.4920 C.3   160  NDP160      0.2309
     34  O2D       11.2580   24.9960   16.6830 O.3   160  NDP160     -0.2158
     35  C1D       12.1370   23.2820   15.1090 C.3   160  NDP160      0.2263
     36  N1N       11.0940   23.1620   14.0350 N.pl3 160  NDP160     -0.2787
     37  C2N       11.3420   23.9210   12.8680 C.3   160  NDP160      0.1244
     38  C3N       10.4160   23.8240   11.8540 C.2   160  NDP160      0.0544
     39  C7N       10.7130   24.6710   10.5560 C.2   160  NDP160      0.2818
     40  O7N       10.0200   24.4550    9.5760 O.2   160  NDP160     -0.2670
     41  N7N       11.7380   25.5910   10.6260 N.am  160  NDP160     -0.0839
     42  C4N        9.2300   23.0260   11.8990 C.2   160  NDP160      0.0033
     43  C5N        9.1130   22.3150   13.1440 C.2   160  NDP160      0.0157
     44  C6N        9.9780   22.3540   14.1820 C.2   160  NDP160      0.0633
     45  P2B       10.7080   12.1450   23.7990 P.3   160  NDP160      0.5328
     46  O1X       11.9490   12.8580   24.0150 O.3   160  NDP160     -0.1145
     47  O2X        9.4610   12.7530   24.3990 O.3   160  NDP160     -0.1145
     48  O3X       10.7920   10.6550   23.8170 O.2   160  NDP160     -0.2224
@<TRIPOS>BOND
     1    40    39    2
     2    39    41   am
     3    39    38    1
     4    38    42    2
     5    38    37    1
     6    42    43    1
     7    37    36    1
     8    43    44    2
     9    36    44    1
    10    36    35    1
    11    35    30    1
    12    35    33    1
    13    30    29    1
    14     2     1    2
    15    26    24    2
    16    27    24    1
    17    27    28    1
    18    33    34    1
    19    33    31    1
    20    29    28    1
    21    29    31    1
    22    18    17    1
    23     3     1    1
    24    24    23    1
    25    24    25    1
    26     1    23    1
    27     1     4    1
    28    31    32    1
    29    15    16    2
    30    15    14    1
    31    17    16    1
    32    17    19    2
    33    16    22    1
    34    14    13    1
    35    19    20    1
    36     4     5    1
    37     5     6    1
    38    22    13    1
    39    22    21    2
    40    13    12    1
    41     7    12    1
    42     7     6    1
    43    20    21    1
    44    12    10    1
    45     6     8    1
    46     8    10    1
    47     8     9    1
    48    10    11    1
    49    11    45    1
    50    45    48    2
    51    45    46    1
    52    45    47    1
