@<TRIPOS>MOLECULE
1dg9_EPE_A_1.pdb
 15 15 0 0 0
SMALL
GASTEIGER

@<TRIPOS>ATOM
      1  N1         8.0230   42.5550   27.0260 N.3   201  EPE201     -0.2689
      2  C2         6.5510   42.5080   26.9560 C.3   201  EPE201      0.0897
      3  C3         5.7540   43.7960   27.0300 C.3   201  EPE201      0.0897
      4  N4         6.2020   44.6540   25.8930 N.3   201  EPE201     -0.2681
      5  C5         7.6890   44.8360   26.0050 C.3   201  EPE201      0.0897
      6  C6         8.4490   43.5100   25.9790 C.3   201  EPE201      0.0897
      7  C7         5.3320   45.8700   25.6410 C.3   201  EPE201      0.1081
      8  C8         3.9310   45.7400   26.2350 C.3   201  EPE201      0.1993
      9  O8         2.8360   45.7740   25.3050 O.3   201  EPE201     -0.2189
     10  C9         8.6030   41.3260   27.6150 C.3   201  EPE201      0.0939
     11  C10        9.2410   40.3430   26.6070 C.3   201  EPE201      0.1225
     12  S         10.3530   39.2790   27.5250 S.3   201  EPE201     -0.1946
     13  O1S       11.3640   40.0880   28.1720 O.3   201  EPE201     -0.3074
     14  O2S        9.5170   38.6240   28.4960 O.3   201  EPE201     -0.3074
     15  O3S       10.8860   38.3810   26.5140 O.3   201  EPE201     -0.3074
@<TRIPOS>BOND
     1     9     8    1
     2     7     4    1
     3     7     8    1
     4     4     5    1
     5     4     3    1
     6     6     5    1
     7     6     1    1
     8    15    12    1
     9    11    12    1
    10    11    10    1
    11     2     1    1
    12     2     3    1
    13     1    10    1
    14    12    13    1
    15    12    14    1
