@<TRIPOS>MOLECULE
1dgb_HEM_A_1.pdb
 43 50 0 0 0
SMALL
GASTEIGER

@<TRIPOS>ATOM
      1 FE         26.2890   39.0590   60.0590 Fe    1200  HEM1200     0.0000
      2  CHA       23.8840   37.0110   59.2870 C.2   1200  HEM1200     0.0000
      3  CHB       28.1170   37.9160   57.5300 C.2   1200  HEM1200     0.0000
      4  CHC       28.8580   40.8800   61.1330 C.2   1200  HEM1200     0.0000
      5  CHD       24.4140   40.3480   62.5040 C.2   1200  HEM1200     0.0000
      6  NA        26.0680   37.7220   58.7810 N.ar  1200  HEM1200     0.0000
      7  C1A       24.9680   36.9640   58.5490 C.ar  1200  HEM1200     0.0000
      8  C2A       25.1110   36.1320   57.4140 C.ar  1200  HEM1200     0.0000
      9  C3A       26.3130   36.3910   56.9220 C.ar  1200  HEM1200     0.0000
     10  C4A       26.9120   37.3720   57.7560 C.ar  1200  HEM1200     0.0000
     11  CMA       26.9810   35.8960   55.6620 C.3   1200  HEM1200     0.0000
     12  CAA       24.0550   35.1770   56.9090 C.3   1200  HEM1200     0.0000
     13  CBA       23.1660   35.9110   55.9390 C.3   1200  HEM1200     0.0000
     14  CGA       22.0050   35.0660   55.4650 C.2   1200  HEM1200     0.0000
     15  O1A       20.8730   35.5890   55.4030 O.co2 1200  HEM1200     0.0000
     16  O2A       22.2170   33.8780   55.1490 O.co2 1200  HEM1200     0.0000
     17  NB        28.0800   39.2660   59.5260 N.2   1200  HEM1200     0.0000
     18  C1B       28.6460   38.8270   58.3540 C.2   1200  HEM1200     0.0000
     19  C2B       29.9190   39.3920   58.1490 C.2   1200  HEM1200     0.0000
     20  C3B       30.1810   40.1620   59.2000 C.2   1200  HEM1200     0.0000
     21  C4B       29.0290   40.0980   60.0480 C.2   1200  HEM1200     0.0000
     22  CMB       30.7750   39.1480   56.9140 C.3   1200  HEM1200     0.0000
     23  CAB       31.4320   40.9490   59.4960 C.2   1200  HEM1200     0.0000
     24  CBB       32.0620   41.8070   58.7170 C.2   1200  HEM1200     0.0000
     25  NC        26.5590   40.3160   61.5060 N.ar  1200  HEM1200     0.0000
     26  C1C       27.6980   41.0080   61.8050 C.ar  1200  HEM1200     0.0000
     27  C2C       27.4580   42.0400   62.7950 C.ar  1200  HEM1200     0.0000
     28  C3C       26.1520   41.9760   63.0870 C.ar  1200  HEM1200     0.0000
     29  C4C       25.6150   40.8870   62.3160 C.ar  1200  HEM1200     0.0000
     30  CMC       28.5400   42.9670   63.3310 C.3   1200  HEM1200     0.0000
     31  CAC       25.3260   42.8420   63.9720 C.2   1200  HEM1200     0.0000
     32  CBC       25.4630   44.1120   64.1000 C.2   1200  HEM1200     0.0000
     33  ND        24.6810   38.6330   60.8620 N.2   1200  HEM1200     0.0000
     34  C1D       24.0100   39.2560   61.8520 C.2   1200  HEM1200     0.0000
     35  C2D       22.6900   38.7690   61.9480 C.2   1200  HEM1200     0.0000
     36  C3D       22.4910   37.8600   61.0350 C.2   1200  HEM1200     0.0000
     37  C4D       23.7370   37.7950   60.3440 C.2   1200  HEM1200     0.0000
     38  CMD       21.6530   39.3180   62.8940 C.3   1200  HEM1200     0.0000
     39  CAD       21.2100   37.0200   60.8210 C.3   1200  HEM1200     0.0000
     40  CBD       20.1780   37.6500   59.8980 C.3   1200  HEM1200     0.0000
     41  CGD       18.8690   36.8850   59.8870 C.2   1200  HEM1200     0.0000
     42  O1D       18.2780   36.7130   60.9760 O.co2 1200  HEM1200     0.0000
     43  O2D       18.4310   36.4520   58.7970 O.co2 1200  HEM1200     0.0000
@<TRIPOS>BOND
     1    16    14   ar
     2    15    14   ar
     3    14    13    1
     4    11     9    1
     5    13    12    1
     6    12     8    1
     7    22    19    1
     8     9     8   ar
     9     9    10   ar
    10     8     7   ar
    11     3    10    2
    12     3    18    1
    13    10     6   ar
    14    19    18    1
    15    19    20    2
    16    18    17    2
    17     7     6   ar
    18     7     2    2
    19    24    23    2
    20     6     1    1
    21    43    41   ar
    22    20    23    1
    23    20    21    1
    24     2    37    1
    25    17    21    1
    26    17     1    1
    27    41    40    1
    28    41    42   ar
    29    40    39    1
    30    21     4    2
    31     1    33    1
    32     1    25    1
    33    37    33    2
    34    37    36    1
    35    39    36    1
    36    33    34    1
    37    36    35    2
    38     4    26    1
    39    25    26   ar
    40    25    29   ar
    41    26    27   ar
    42    34    35    1
    43    34     5    2
    44    35    38    1
    45    29     5    1
    46    29    28   ar
    47    27    28   ar
    48    27    30    1
    49    28    31    1
    50    31    32    2
