@<TRIPOS>MOLECULE
1dgb_NDP_A_1.pdb
 48 52 0 0 0
SMALL
GASTEIGER

@<TRIPOS>ATOM
      1  PA        26.8260   53.2270   81.6660 P.3   1300  NDP1300     0.2189
      2  O1A       26.7740   52.6500   83.0210 O.3   1300  NDP1300    -0.4371
      3  O2A       26.3330   54.5900   81.3920 O.2   1300  NDP1300    -0.5170
      4  O5B       26.1660   52.1860   80.6670 O.3   1300  NDP1300    -0.3112
      5  C5B       26.4960   50.8080   80.8910 C.3   1300  NDP1300     0.1813
      6  C4B       25.7280   49.8810   79.9580 C.3   1300  NDP1300     0.1820
      7  O4B       26.1890   48.5410   80.1710 O.3   1300  NDP1300    -0.3136
      8  C3B       24.2150   49.8600   80.2000 C.3   1300  NDP1300     0.2157
      9  O3B       23.4920   50.4060   79.0790 O.3   1300  NDP1300    -0.2175
     10  C2B       23.8400   48.3910   80.3810 C.3   1300  NDP1300     0.2314
     11  O2B       22.6930   48.0620   79.5820 O.3   1300  NDP1300    -0.2630
     12  C1B       25.0800   47.6790   79.8780 C.3   1300  NDP1300     0.3158
     13  N9A       25.2990   46.3600   80.5080 N.pl3 1300  NDP1300    -0.1439
     14  C8A       24.9540   45.9420   81.7400 C.3   1300  NDP1300     0.3377
     15  N7A       25.3390   44.6700   81.9430 N.2   1300  NDP1300    -0.2095
     16  C5A       25.9330   44.3320   80.8060 C.2   1300  NDP1300     0.2526
     17  C6A       26.2680   43.0340   80.4310 C.2   1300  NDP1300     0.4393
     18  N6A       26.3090   42.0060   81.2640 N.pl3 1300  NDP1300     0.2180
     19  N1A       26.5680   42.8420   79.1340 N.2   1300  NDP1300     0.0021
     20  C2A       26.5480   43.8540   78.2640 C.3   1300  NDP1300     0.5254
     21  N3A       26.2230   45.1000   78.6080 N.2   1300  NDP1300    -0.0055
     22  C4A       25.9010   45.3590   79.8870 C.2   1300  NDP1300     0.3518
     23  O3        28.3200   53.1500   81.1400 O.3   1300  NDP1300    -0.2703
     24  PN        29.0880   53.9080   79.9590 P.3   1300  NDP1300     0.2189
     25  O1N       28.1070   54.3950   78.9640 O.2   1300  NDP1300    -0.5170
     26  O2N       29.9810   54.8670   80.6380 O.3   1300  NDP1300    -0.4371
     27  O5D       29.8720   52.6550   79.3420 O.3   1300  NDP1300    -0.3112
     28  C5D       30.7550   51.9620   80.2200 C.3   1300  NDP1300     0.1813
     29  C4D       30.8790   50.5480   79.7260 C.3   1300  NDP1300     0.1799
     30  O4D       29.5500   50.0320   79.6990 O.3   1300  NDP1300    -0.3327
     31  C3D       31.3900   50.4600   78.3070 C.3   1300  NDP1300     0.2158
     32  O3D       32.8110   50.4020   78.2220 O.3   1300  NDP1300    -0.2175
     33  C2D       30.8390   49.1100   77.9000 C.3   1300  NDP1300     0.2309
     34  O2D       31.7200   48.0180   78.2120 O.3   1300  NDP1300    -0.2158
     35  C1D       29.5450   49.0160   78.6840 C.3   1300  NDP1300     0.2263
     36  N1N       28.4210   49.3210   77.7900 N.pl3 1300  NDP1300    -0.2787
     37  C2N       28.2670   50.6400   77.3300 C.3   1300  NDP1300     0.1244
     38  C3N       27.2630   50.9510   76.4210 C.2   1300  NDP1300     0.0544
     39  C7N       27.3240   52.3160   75.7020 C.2   1300  NDP1300     0.2818
     40  O7N       26.7560   52.4830   74.6250 O.2   1300  NDP1300    -0.2670
     41  N7N       28.0820   53.2550   76.2780 N.am  1300  NDP1300    -0.0839
     42  C4N       26.3670   49.9290   76.0430 C.2   1300  NDP1300     0.0033
     43  C5N       26.4970   48.6120   76.5200 C.2   1300  NDP1300     0.0157
     44  C6N       27.5460   48.2960   77.3810 C.2   1300  NDP1300     0.0633
     45  P2B       21.2010   48.3760   80.0920 P.3   1300  NDP1300     0.5328
     46  O1X       20.3230   47.6530   79.1460 O.2   1300  NDP1300    -0.2224
     47  O2X       21.0300   49.8450   79.9940 O.3   1300  NDP1300    -0.1145
     48  O3X       21.2600   47.8170   81.4670 O.3   1300  NDP1300    -0.1145
@<TRIPOS>BOND
     1    40    39    2
     2    39    41   am
     3    39    38    1
     4    42    38    2
     5    42    43    1
     6    38    37    1
     7    43    44    2
     8    37    36    1
     9    44    36    1
    10    36    35    1
    11    33    34    1
    12    33    31    1
    13    33    35    1
    14    32    31    1
    15    20    21    1
    16    20    19    1
    17    31    29    1
    18    21    22    2
    19    35    30    1
    20    25    24    2
    21     9     8    1
    22    19    17    2
    23    46    45    2
    24    27    24    1
    25    27    28    1
    26    11    45    1
    27    11    10    1
    28    30    29    1
    29    29    28    1
    30    12     7    1
    31    12    10    1
    32    12    13    1
    33    22    13    1
    34    22    16    1
    35     6     7    1
    36     6     8    1
    37     6     5    1
    38    24    26    1
    39    24    23    1
    40    47    45    1
    41    45    48    1
    42     8    10    1
    43    17    16    1
    44    17    18    1
    45    13    14    1
    46     4     5    1
    47     4     1    1
    48    16    15    2
    49    23     1    1
    50     3     1    2
    51     1     2    1
    52    14    15    1
