@<TRIPOS>MOLECULE
1dgd_PLP_A_1.pdb
 15 15 0 0 0
SMALL
GASTEIGER

@<TRIPOS>ATOM
      1  N1        17.8780   53.5230   13.6690 N.ar  437  PLP437     -0.2452
      2  C2        16.6480   53.5500   14.2550 C.ar  437  PLP437      0.0978
      3  C2A       15.6640   54.5960   13.8040 C.3   437  PLP437      0.0555
      4  C3        16.4520   52.6010   15.2500 C.ar  437  PLP437      0.2049
      5  O3        15.2310   52.6390   15.8160 O.3   437  PLP437     -0.2857
      6  C4        17.4100   51.6940   15.5770 C.ar  437  PLP437      0.0182
      7  C4A       17.1240   50.7010   16.5750 C.3   437  PLP437      0.0342
      8  C5        18.6480   51.7320   14.8870 C.ar  437  PLP437      0.0261
      9  C6        18.8760   52.6740   13.9330 C.ar  437  PLP437      0.0965
     10  C5A       19.7890   50.7600   15.2260 C.3   437  PLP437      0.1815
     11  O4P       19.5030   49.3840   15.2940 O.3   437  PLP437     -0.2653
     12  P         20.3960   48.4300   16.2240 P.3   437  PLP437      0.5329
     13  O1P       20.0280   47.0090   16.0180 O.3   437  PLP437     -0.1145
     14  O2P       20.1130   48.8860   17.5860 O.3   437  PLP437     -0.1145
     15  O3P       21.9050   48.6590   15.8950 O.2   437  PLP437     -0.2224
@<TRIPOS>BOND
     1     1     9   ar
     2     1     2   ar
     3     3     2    1
     4     9     8   ar
     5     2     4   ar
     6     8    10    1
     7     8     6   ar
     8    10    11    1
     9     4     6   ar
    10     4     5    1
    11    11    12    1
    12     6     7    1
    13    15    12    2
    14    13    12    1
    15    12    14    1
