@<TRIPOS>MOLECULE
1dge_PLP_A_1.pdb
 15 15 0 0 0
SMALL
GASTEIGER

@<TRIPOS>ATOM
      1  N1        17.8030   53.6490   14.1150 N.ar  437  PLP437     -0.2452
      2  C2        16.5510   53.7670   14.6060 C.ar  437  PLP437      0.0978
      3  C2A       15.7420   54.9280   14.0910 C.3   437  PLP437      0.0555
      4  C3        16.1760   52.7890   15.5540 C.ar  437  PLP437      0.2049
      5  O3        14.9130   52.9270   16.0210 O.3   437  PLP437     -0.2857
      6  C4        17.0450   51.7850   15.9440 C.ar  437  PLP437      0.0182
      7  C4A       16.6190   50.7640   16.8790 C.3   437  PLP437      0.0342
      8  C5        18.3470   51.7800   15.3300 C.ar  437  PLP437      0.0261
      9  C6        18.7030   52.7310   14.4430 C.ar  437  PLP437      0.0965
     10  C5A       19.4570   50.7960   15.6500 C.3   437  PLP437      0.1815
     11  O4P       19.1950   49.4440   15.6290 O.3   437  PLP437     -0.2653
     12  P         20.1740   48.5230   16.4470 P.3   437  PLP437      0.5329
     13  O1P       19.8690   47.1240   16.1050 O.3   437  PLP437     -0.1145
     14  O2P       19.9650   48.7970   17.8580 O.3   437  PLP437     -0.1145
     15  O3P       21.6550   48.8600   16.0950 O.2   437  PLP437     -0.2224
@<TRIPOS>BOND
     1     3     2    1
     2     1     9   ar
     3     1     2   ar
     4     9     8   ar
     5     2     4   ar
     6     8    10    1
     7     8     6   ar
     8     4     6   ar
     9     4     5    1
    10    11    10    1
    11    11    12    1
    12     6     7    1
    13    15    12    2
    14    13    12    1
    15    12    14    1
