@<TRIPOS>MOLECULE
1dgf_HEM_A_1.pdb
 43 50 0 0 0
SMALL
GASTEIGER

@<TRIPOS>ATOM
      1 FE         26.0690   59.7680   55.4190 Fe    3000  HEM3000     0.0000
      2  CHA       23.6220   57.4140   55.5290 C.2   3000  HEM3000     0.0000
      3  CHB       27.7620   57.9210   53.1210 C.2   3000  HEM3000     0.0000
      4  CHC       28.7070   61.9140   55.6670 C.2   3000  HEM3000     0.0000
      5  CHD       24.2480   61.8090   57.4430 C.2   3000  HEM3000     0.0000
      6  NA        25.7820   58.0060   54.5470 N.ar  3000  HEM3000     0.0000
      7  C1A       24.7080   57.1460   54.6970 C.ar  3000  HEM3000     0.0000
      8  C2A       24.8030   56.0030   53.7870 C.ar  3000  HEM3000     0.0000
      9  C3A       25.9720   56.1790   53.0940 C.ar  3000  HEM3000     0.0000
     10  C4A       26.5730   57.3960   53.5920 C.ar  3000  HEM3000     0.0000
     11  CMA       26.5060   55.3990   51.8940 C.3   3000  HEM3000     0.0000
     12  CAA       23.7050   54.9470   53.5860 C.3   3000  HEM3000     0.0000
     13  CBA       22.5400   55.5450   52.7990 C.3   3000  HEM3000     0.0000
     14  CGA       21.4090   54.5600   52.5520 C.2   3000  HEM3000     0.0000
     15  O1A       20.2410   54.9950   52.5220 O.co2 3000  HEM3000     0.0000
     16  O2A       21.6770   53.3570   52.3740 O.co2 3000  HEM3000     0.0000
     17  NB        27.8680   59.8760   54.6110 N.2   3000  HEM3000     0.0000
     18  C1B       28.3720   59.0850   53.5930 C.2   3000  HEM3000     0.0000
     19  C2B       29.6340   59.6020   53.0980 C.2   3000  HEM3000     0.0000
     20  C3B       29.9480   60.6830   53.8870 C.2   3000  HEM3000     0.0000
     21  C4B       28.8450   60.8310   54.8140 C.2   3000  HEM3000     0.0000
     22  CMB       30.4080   59.0080   51.9200 C.3   3000  HEM3000     0.0000
     23  CAB       31.1160   61.4590   53.9110 C.3   3000  HEM3000     0.0000
     24  CBB       31.9000   61.8770   52.7950 C.3   3000  HEM3000     0.0000
     25  NC        26.4120   61.4720   56.3870 N.ar  3000  HEM3000     0.0000
     26  C1C       27.5580   62.2410   56.3860 C.ar  3000  HEM3000     0.0000
     27  C2C       27.3500   63.5240   57.0270 C.ar  3000  HEM3000     0.0000
     28  C3C       26.0470   63.5500   57.4280 C.ar  3000  HEM3000     0.0000
     29  C4C       25.5110   62.2450   57.0900 C.ar  3000  HEM3000     0.0000
     30  CMC       28.4400   64.5760   57.2100 C.3   3000  HEM3000     0.0000
     31  CAC       25.2850   64.5980   57.9800 C.3   3000  HEM3000     0.0000
     32  CBC       25.4310   65.9910   57.6650 C.3   3000  HEM3000     0.0000
     33  ND        24.3490   59.6110   56.3550 N.2   3000  HEM3000     0.0000
     34  C1D       23.7020   60.5840   57.1060 C.2   3000  HEM3000     0.0000
     35  C2D       22.3530   60.1980   57.4400 C.2   3000  HEM3000     0.0000
     36  C3D       22.1840   58.9570   56.9130 C.2   3000  HEM3000     0.0000
     37  C4D       23.4280   58.5850   56.2590 C.2   3000  HEM3000     0.0000
     38  CMD       21.3230   61.0670   58.1510 C.3   3000  HEM3000     0.0000
     39  CAD       20.9270   58.1160   56.9870 C.3   3000  HEM3000     0.0000
     40  CBD       19.8120   58.5220   56.0440 C.3   3000  HEM3000     0.0000
     41  CGD       18.5380   57.7560   56.3260 C.2   3000  HEM3000     0.0000
     42  O1D       17.9690   57.9510   57.4170 O.co2 3000  HEM3000     0.0000
     43  O2D       18.1100   56.9520   55.4710 O.co2 3000  HEM3000     0.0000
@<TRIPOS>BOND
     1    11     9    1
     2    22    19    1
     3    16    14   ar
     4    15    14   ar
     5    14    13    1
     6    24    23    1
     7    13    12    1
     8     9    10   ar
     9     9     8   ar
    10    19    18    1
    11    19    20    2
    12     3    10    2
    13     3    18    1
    14    12     8    1
    15    10     6   ar
    16    18    17    2
    17     8     7   ar
    18    20    23    1
    19    20    21    1
    20     6     7   ar
    21     6     1    1
    22    17    21    1
    23    17     1    1
    24     7     2    2
    25    21     4    2
    26     1    33    1
    27     1    25    1
    28    43    41   ar
    29     2    37    1
    30     4    26    1
    31    40    41    1
    32    40    39    1
    33    37    33    2
    34    37    36    1
    35    41    42   ar
    36    33    34    1
    37    26    25   ar
    38    26    27   ar
    39    25    29   ar
    40    36    39    1
    41    36    35    2
    42    27    30    1
    43    27    28   ar
    44    29    28   ar
    45    29     5    1
    46    34    35    1
    47    34     5    2
    48    28    31    1
    49    35    38    1
    50    32    31    1
