@<TRIPOS>MOLECULE
1dgf_NDP_A_1.pdb
 48 52 0 0 0
SMALL
GASTEIGER

@<TRIPOS>ATOM
      1  PA        27.7710   80.1350   70.9970 P.3   4000  NDP4000     0.2189
      2  O1A       27.8760   80.1710   72.4770 O.3   4000  NDP4000    -0.4371
      3  O2A       27.0420   81.2060   70.2730 O.2   4000  NDP4000    -0.5170
      4  O5B       27.1560   78.7120   70.5570 O.3   4000  NDP4000    -0.3112
      5  C5B       27.4990   77.5260   71.2820 C.3   4000  NDP4000     0.1813
      6  C4B       26.6330   76.4160   70.7170 C.3   4000  NDP4000     0.1820
      7  O4B       27.0740   75.1490   71.2100 O.3   4000  NDP4000    -0.3136
      8  C3B       25.1810   76.5860   71.1170 C.3   4000  NDP4000     0.2157
      9  O3B       24.4750   77.1240   69.9980 O.3   4000  NDP4000    -0.2175
     10  C2B       24.6730   75.1950   71.5100 C.3   4000  NDP4000     0.2314
     11  O2B       23.4730   74.7510   70.8050 O.3   4000  NDP4000    -0.2630
     12  C1B       25.9060   74.3140   71.2580 C.3   4000  NDP4000     0.3158
     13  N9A       26.1970   73.3260   72.3230 N.pl3 4000  NDP4000    -0.1439
     14  C8A       26.0490   73.4580   73.6590 C.3   4000  NDP4000     0.3377
     15  N7A       26.4410   72.3400   74.2950 N.2   4000  NDP4000    -0.2095
     16  C5A       26.8350   71.5260   73.3150 C.2   4000  NDP4000     0.2526
     17  C6A       27.2110   70.1810   73.4540 C.2   4000  NDP4000     0.4393
     18  N6A       27.2890   69.5430   74.6250 N.pl3 4000  NDP4000     0.2180
     19  N1A       27.4480   69.5150   72.2970 N.2   4000  NDP4000     0.0021
     20  C2A       27.3370   70.1070   71.1000 C.3   4000  NDP4000     0.5254
     21  N3A       26.9760   71.3900   70.9710 N.2   4000  NDP4000    -0.0055
     22  C4A       26.7020   72.1210   72.0740 C.2   4000  NDP4000     0.3518
     23  O3        29.2550   80.0440   70.3900 O.3   4000  NDP4000    -0.2703
     24  PN        29.9230   80.2020   68.9330 P.3   4000  NDP4000     0.2189
     25  O1N       28.8920   80.2090   67.8720 O.2   4000  NDP4000    -0.5170
     26  O2N       30.8700   81.3290   69.0340 O.3   4000  NDP4000    -0.4371
     27  O5D       30.7620   78.8300   68.8350 O.3   4000  NDP4000    -0.3112
     28  C5D       31.7010   78.4540   69.8660 C.3   4000  NDP4000     0.1813
     29  C4D       31.7860   76.9350   69.8880 C.3   4000  NDP4000     0.1799
     30  O4D       30.4640   76.3700   70.0970 O.3   4000  NDP4000    -0.3327
     31  C3D       32.2620   76.3840   68.5500 C.3   4000  NDP4000     0.2158
     32  O3D       33.6900   76.4160   68.4190 O.3   4000  NDP4000    -0.2175
     33  C2D       31.6550   74.9810   68.5430 C.3   4000  NDP4000     0.2309
     34  O2D       32.5420   74.0370   69.1480 O.3   4000  NDP4000    -0.2158
     35  C1D       30.3610   75.1210   69.3610 C.3   4000  NDP4000     0.2263
     36  N1N       29.1240   75.1030   68.5340 N.pl3 4000  NDP4000    -0.2787
     37  C2N       28.8450   76.1800   67.6610 C.3   4000  NDP4000     0.1244
     38  C3N       27.7670   76.1130   66.7740 C.2   4000  NDP4000     0.0544
     39  C7N       27.6900   77.1080   65.6090 C.2   4000  NDP4000     0.2818
     40  O7N       27.0310   76.8300   64.6100 O.2   4000  NDP4000    -0.2670
     41  N7N       28.4280   78.2150   65.7280 N.am  4000  NDP4000    -0.0839
     42  C4N       26.9180   74.9950   66.8090 C.2   4000  NDP4000     0.0033
     43  C5N       27.1740   73.9370   67.6900 C.2   4000  NDP4000     0.0157
     44  C6N       28.2790   73.9730   68.5420 C.2   4000  NDP4000     0.0633
     45  P2B       21.9500   75.1810   71.2440 P.3   4000  NDP4000     0.5328
     46  O1X       21.0590   74.2630   70.5130 O.2   4000  NDP4000    -0.2224
     47  O2X       21.8430   76.5880   70.7910 O.3   4000  NDP4000    -0.1145
     48  O3X       21.8880   74.9940   72.7180 O.3   4000  NDP4000    -0.1145
@<TRIPOS>BOND
     1    40    39    2
     2    39    41   am
     3    39    38    1
     4    38    42    2
     5    38    37    1
     6    42    43    1
     7    37    36    1
     8    43    44    2
     9    25    24    2
    10    32    31    1
    11    36    44    1
    12    36    35    1
    13    33    31    1
    14    33    34    1
    15    33    35    1
    16    31    29    1
    17    27    24    1
    18    27    28    1
    19    24    26    1
    20    24    23    1
    21    35    30    1
    22    28    29    1
    23    29    30    1
    24     9     8    1
    25     3     1    2
    26    23     1    1
    27    46    45    2
    28     4     1    1
    29     4     5    1
    30     6     8    1
    31     6     7    1
    32     6     5    1
    33    47    45    1
    34    11    45    1
    35    11    10    1
    36    21    20    1
    37    21    22    2
    38     1     2    1
    39    20    19    1
    40     8    10    1
    41     7    12    1
    42    45    48    1
    43    12    10    1
    44    12    13    1
    45    22    13    1
    46    22    16    1
    47    19    17    2
    48    13    14    1
    49    16    17    1
    50    16    15    2
    51    17    18    1
    52    14    15    1
