@<TRIPOS>MOLECULE
1dgg_NDP_A_1.pdb
 48 52 0 0 0
SMALL
GASTEIGER

@<TRIPOS>ATOM
      1  PA        27.1880   55.1000   81.7600 P.3   3000  NDP3000     0.2189
      2  O1A       27.2090   54.5880   83.1560 O.3   3000  NDP3000    -0.4371
      3  O2A       26.4330   56.3370   81.4220 O.2   3000  NDP3000    -0.5170
      4  O5B       26.6420   53.9110   80.8060 O.3   3000  NDP3000    -0.3112
      5  C5B       26.6930   52.5370   81.2250 C.3   3000  NDP3000     0.1813
      6  C4B       25.9550   51.6550   80.2300 C.3   3000  NDP3000     0.1820
      7  O4B       26.3430   50.2810   80.4010 O.3   3000  NDP3000    -0.3136
      8  C3B       24.4440   51.7060   80.3910 C.3   3000  NDP3000     0.2157
      9  O3B       23.8500   52.4390   79.3050 O.3   3000  NDP3000    -0.2175
     10  C2B       23.9900   50.2390   80.4740 C.3   3000  NDP3000     0.2314
     11  O2B       22.8270   49.9810   79.6520 O.3   3000  NDP3000    -0.2630
     12  C1B       25.2310   49.4390   80.0530 C.3   3000  NDP3000     0.3158
     13  N9A       25.4820   48.1420   80.7450 N.pl3 3000  NDP3000    -0.1439
     14  C8A       25.3330   47.8770   82.0570 C.3   3000  NDP3000     0.3377
     15  N7A       25.7230   46.6320   82.3570 N.2   3000  NDP3000    -0.2095
     16  C5A       26.1060   46.1360   81.1930 C.2   3000  NDP3000     0.2526
     17  C6A       26.5510   44.8280   80.9920 C.2   3000  NDP3000     0.4393
     18  N6A       26.5730   43.9160   81.9650 N.pl3 3000  NDP3000     0.2180
     19  N1A       26.8930   44.5270   79.7140 N.2   3000  NDP3000     0.0021
     20  C2A       26.8070   45.4350   78.7260 C.3   3000  NDP3000     0.5254
     21  N3A       26.3690   46.6850   78.9240 N.2   3000  NDP3000    -0.0055
     22  C4A       25.9950   47.0580   80.1660 C.2   3000  NDP3000     0.3518
     23  O3        28.7200   55.3020   81.2930 O.3   3000  NDP3000    -0.2703
     24  PN        29.4840   55.8590   79.9980 P.3   3000  NDP3000     0.2189
     25  O1N       28.4520   56.2730   79.0170 O.2   3000  NDP3000    -0.5170
     26  O2N       30.5440   56.8030   80.4230 O.3   3000  NDP3000    -0.4371
     27  O5D       30.2410   54.5370   79.4900 O.3   3000  NDP3000    -0.3112
     28  C5D       31.2670   53.9520   80.2940 C.3   3000  NDP3000     0.1813
     29  C4D       31.3240   52.4780   79.9470 C.3   3000  NDP3000     0.1799
     30  O4D       29.9940   51.9200   79.9070 O.3   3000  NDP3000    -0.3327
     31  C3D       31.9340   52.2350   78.5890 C.3   3000  NDP3000     0.2158
     32  O3D       33.3590   52.1280   78.6850 O.3   3000  NDP3000    -0.2175
     33  C2D       31.2540   50.9430   78.1440 C.3   3000  NDP3000     0.2309
     34  O2D       32.0430   49.7920   78.4220 O.3   3000  NDP3000    -0.2158
     35  C1D       29.9480   50.8650   78.9260 C.3   3000  NDP3000     0.2263
     36  N1N       28.7380   51.0340   78.0860 N.pl3 3000  NDP3000    -0.2787
     37  C2N       28.4910   52.2830   77.4820 C.3   3000  NDP3000     0.1244
     38  C3N       27.4860   52.4400   76.5330 C.2   3000  NDP3000     0.0544
     39  C7N       27.4060   53.7350   75.6930 C.2   3000  NDP3000     0.2818
     40  O7N       26.7320   53.7940   74.6650 O.2   3000  NDP3000    -0.2670
     41  N7N       28.1580   54.7520   76.1120 N.am  3000  NDP3000    -0.0839
     42  C4N       26.6810   51.3300   76.2520 C.2   3000  NDP3000     0.0033
     43  C5N       26.8850   50.0900   76.8740 C.2   3000  NDP3000     0.0157
     44  C6N       27.9260   49.9270   77.7850 C.2   3000  NDP3000     0.0633
     45  P2B       21.3190   50.4030   80.0870 P.3   3000  NDP3000     0.5328
     46  O1X       20.4930   49.8110   79.0170 O.2   3000  NDP3000    -0.2224
     47  O2X       21.3040   51.8860   80.0720 O.3   3000  NDP3000    -0.1145
     48  O3X       21.1210   49.8180   81.4340 O.3   3000  NDP3000    -0.1145
@<TRIPOS>BOND
     1    40    39    2
     2    39    41   am
     3    39    38    1
     4    42    38    2
     5    42    43    1
     6    38    37    1
     7    43    44    2
     8    37    36    1
     9    44    36    1
    10    36    35    1
    11    33    34    1
    12    33    31    1
    13    33    35    1
    14    31    32    1
    15    31    29    1
    16    20    21    1
    17    20    19    1
    18    21    22    2
    19    35    30    1
    20    25    24    2
    21    46    45    2
    22     9     8    1
    23    27    24    1
    24    27    28    1
    25    11    45    1
    26    11    10    1
    27    19    17    2
    28    30    29    1
    29    29    28    1
    30    24    26    1
    31    24    23    1
    32    12     7    1
    33    12    10    1
    34    12    13    1
    35    47    45    1
    36    45    48    1
    37    22    13    1
    38    22    16    1
    39     6     8    1
    40     6     7    1
    41     6     5    1
    42     8    10    1
    43    13    14    1
    44     4     5    1
    45     4     1    1
    46    17    16    1
    47    17    18    1
    48    16    15    2
    49    23     1    1
    50     3     1    2
    51     1     2    1
    52    14    15    1
