@<TRIPOS>MOLECULE
1dgg_HEM_A_1.pdb
 43 50 0 0 0
SMALL
GASTEIGER

@<TRIPOS>ATOM
      1 FE         26.6150   40.7510   60.5140 Fe    2000  HEM2000     0.0000
      2  CHA       24.0380   38.5700   59.7470 C.2   2000  HEM2000     0.0000
      3  CHB       28.3550   39.5980   57.9920 C.2   2000  HEM2000     0.0000
      4  CHC       29.2140   42.4900   61.7760 C.2   2000  HEM2000     0.0000
      5  CHD       24.5890   42.0830   63.0510 C.2   2000  HEM2000     0.0000
      6  NA        26.3050   39.2620   59.2040 N.ar  2000  HEM2000     0.0000
      7  C1A       25.1740   38.5040   58.9650 C.ar  2000  HEM2000     0.0000
      8  C2A       25.3290   37.7400   57.7390 C.ar  2000  HEM2000     0.0000
      9  C3A       26.5380   38.0420   57.2330 C.ar  2000  HEM2000     0.0000
     10  C4A       27.1430   38.9950   58.1500 C.ar  2000  HEM2000     0.0000
     11  CMA       27.1840   37.5660   55.9340 C.3   2000  HEM2000     0.0000
     12  CAA       24.2870   36.7540   57.1590 C.3   2000  HEM2000     0.0000
     13  CBA       23.1950   37.4510   56.3610 C.3   2000  HEM2000     0.0000
     14  CGA       22.1060   36.5080   55.8780 C.2   2000  HEM2000     0.0000
     15  O1A       20.9250   36.9100   55.9140 O.co2 2000  HEM2000     0.0000
     16  O2A       22.4230   35.3760   55.4540 O.co2 2000  HEM2000     0.0000
     17  NB        28.3610   40.9380   60.0540 N.2   2000  HEM2000     0.0000
     18  C1B       28.9100   40.4870   58.8670 C.2   2000  HEM2000     0.0000
     19  C2B       30.2430   41.0070   58.6960 C.2   2000  HEM2000     0.0000
     20  C3B       30.5520   41.7450   59.7860 C.2   2000  HEM2000     0.0000
     21  C4B       29.3730   41.7060   60.6490 C.2   2000  HEM2000     0.0000
     22  CMB       31.0660   40.7050   57.4560 C.3   2000  HEM2000     0.0000
     23  CAB       31.8310   42.4520   60.0960 C.2   2000  HEM2000     0.0000
     24  CBB       32.3720   43.3600   59.3700 C.2   2000  HEM2000     0.0000
     25  NC        26.8500   42.0260   62.1290 N.ar  2000  HEM2000     0.0000
     26  C1C       28.0200   42.6950   62.4380 C.ar  2000  HEM2000     0.0000
     27  C2C       27.7520   43.7410   63.4310 C.ar  2000  HEM2000     0.0000
     28  C3C       26.4580   43.6670   63.7410 C.ar  2000  HEM2000     0.0000
     29  C4C       25.8860   42.5670   62.9720 C.ar  2000  HEM2000     0.0000
     30  CMC       28.7640   44.7680   63.9220 C.3   2000  HEM2000     0.0000
     31  CAC       25.6720   44.5820   64.6230 C.2   2000  HEM2000     0.0000
     32  CBC       25.6430   45.8730   64.6040 C.2   2000  HEM2000     0.0000
     33  ND        24.7630   40.3320   61.2930 N.2   2000  HEM2000     0.0000
     34  C1D       24.0740   41.0380   62.3000 C.2   2000  HEM2000     0.0000
     35  C2D       22.7280   40.5320   62.4120 C.2   2000  HEM2000     0.0000
     36  C3D       22.5970   39.5470   61.5310 C.2   2000  HEM2000     0.0000
     37  C4D       23.8430   39.4130   60.8160 C.2   2000  HEM2000     0.0000
     38  CMD       21.6540   41.0980   63.3010 C.3   2000  HEM2000     0.0000
     39  CAD       21.3440   38.6960   61.3520 C.3   2000  HEM2000     0.0000
     40  CBD       20.3400   39.3440   60.4290 C.3   2000  HEM2000     0.0000
     41  CGD       19.0260   38.5950   60.3840 C.2   2000  HEM2000     0.0000
     42  O1D       18.3490   38.5380   61.4310 O.co2 2000  HEM2000     0.0000
     43  O2D       18.6660   38.0690   59.3070 O.co2 2000  HEM2000     0.0000
@<TRIPOS>BOND
     1    16    14   ar
     2    14    15   ar
     3    14    13    1
     4    11     9    1
     5    13    12    1
     6    12     8    1
     7     9     8   ar
     8     9    10   ar
     9    22    19    1
    10     8     7   ar
    11     3    10    2
    12     3    18    1
    13    10     6   ar
    14    19    18    1
    15    19    20    2
    16    18    17    2
    17     7     6   ar
    18     7     2    2
    19     6     1    1
    20    43    41   ar
    21    24    23    2
    22     2    37    1
    23    20    23    1
    24    20    21    1
    25    17     1    1
    26    17    21    1
    27    41    40    1
    28    41    42   ar
    29    40    39    1
    30     1    33    1
    31     1    25    1
    32    21     4    2
    33    37    33    2
    34    37    36    1
    35    33    34    1
    36    39    36    1
    37    36    35    2
    38     4    26    1
    39    25    26   ar
    40    25    29   ar
    41    34    35    1
    42    34     5    2
    43    35    38    1
    44    26    27   ar
    45    29     5    1
    46    29    28   ar
    47    27    28   ar
    48    27    30    1
    49    28    31    1
    50    32    31    2
