@<TRIPOS>MOLECULE
1dgh_HEM_A_1.pdb
 43 50 0 0 0
SMALL
GASTEIGER

@<TRIPOS>ATOM
      1 FE         26.5710   40.4760   60.5420 Fe    2000  HEM2000     0.0000
      2  CHA       24.0540   38.4000   59.7520 C.2   2000  HEM2000     0.0000
      3  CHB       28.4070   39.3680   58.0420 C.2   2000  HEM2000     0.0000
      4  CHC       29.2910   42.2230   61.7820 C.2   2000  HEM2000     0.0000
      5  CHD       24.7010   41.7590   63.0750 C.2   2000  HEM2000     0.0000
      6  NA        26.3190   39.1260   59.2370 N.ar  2000  HEM2000     0.0000
      7  C1A       25.2060   38.3560   58.9940 C.ar  2000  HEM2000     0.0000
      8  C2A       25.3870   37.5380   57.8140 C.ar  2000  HEM2000     0.0000
      9  C3A       26.6060   37.8410   57.3350 C.ar  2000  HEM2000     0.0000
     10  C4A       27.1820   38.8090   58.2110 C.ar  2000  HEM2000     0.0000
     11  CMA       27.2750   37.3880   56.0530 C.3   2000  HEM2000     0.0000
     12  CAA       24.3350   36.5470   57.2450 C.3   2000  HEM2000     0.0000
     13  CBA       23.2700   37.2930   56.4410 C.3   2000  HEM2000     0.0000
     14  CGA       22.1620   36.3930   55.9170 C.2   2000  HEM2000     0.0000
     15  O1A       20.9930   36.8270   55.9370 O.co2 2000  HEM2000     0.0000
     16  O2A       22.4490   35.2610   55.4630 O.co2 2000  HEM2000     0.0000
     17  NB        28.4260   40.6710   60.0960 N.2   2000  HEM2000     0.0000
     18  C1B       28.9630   40.2490   58.8940 C.2   2000  HEM2000     0.0000
     19  C2B       30.2420   40.8460   58.6570 C.2   2000  HEM2000     0.0000
     20  C3B       30.5300   41.6250   59.7260 C.2   2000  HEM2000     0.0000
     21  C4B       29.4060   41.4980   60.6340 C.2   2000  HEM2000     0.0000
     22  CMB       31.0660   40.5960   57.4000 C.3   2000  HEM2000     0.0000
     23  CAB       31.7580   42.4440   60.0210 C.2   2000  HEM2000     0.0000
     24  CBB       32.3960   43.2240   59.2280 C.2   2000  HEM2000     0.0000
     25  NC        26.9680   41.6650   62.1350 N.ar  2000  HEM2000     0.0000
     26  C1C       28.1270   42.3490   62.4600 C.ar  2000  HEM2000     0.0000
     27  C2C       27.8540   43.3790   63.4150 C.ar  2000  HEM2000     0.0000
     28  C3C       26.5400   43.2970   63.7190 C.ar  2000  HEM2000     0.0000
     29  C4C       25.9940   42.2090   62.9630 C.ar  2000  HEM2000     0.0000
     30  CMC       28.8630   44.4320   63.8630 C.3   2000  HEM2000     0.0000
     31  CAC       25.6890   44.1800   64.6010 C.2   2000  HEM2000     0.0000
     32  CBC       25.6680   45.4820   64.6890 C.2   2000  HEM2000     0.0000
     33  ND        24.7900   40.0600   61.3180 N.2   2000  HEM2000     0.0000
     34  C1D       24.1330   40.7500   62.3290 C.2   2000  HEM2000     0.0000
     35  C2D       22.7740   40.2780   62.4580 C.2   2000  HEM2000     0.0000
     36  C3D       22.6200   39.3030   61.5750 C.2   2000  HEM2000     0.0000
     37  C4D       23.8490   39.1840   60.8370 C.2   2000  HEM2000     0.0000
     38  CMD       21.6950   40.8820   63.3410 C.3   2000  HEM2000     0.0000
     39  CAD       21.3610   38.4680   61.4340 C.3   2000  HEM2000     0.0000
     40  CBD       20.3520   39.1570   60.5510 C.3   2000  HEM2000     0.0000
     41  CGD       19.0550   38.3920   60.4640 C.2   2000  HEM2000     0.0000
     42  O1D       18.4010   38.2110   61.5070 O.co2 2000  HEM2000     0.0000
     43  O2D       18.6870   37.9660   59.3490 O.co2 2000  HEM2000     0.0000
@<TRIPOS>BOND
     1    16    14   ar
     2    14    15   ar
     3    14    13    1
     4    11     9    1
     5    13    12    1
     6    12     8    1
     7     9     8   ar
     8     9    10   ar
     9    22    19    1
    10     8     7   ar
    11     3    10    2
    12     3    18    1
    13    10     6   ar
    14    19    18    1
    15    19    20    2
    16    18    17    2
    17     7     6   ar
    18     7     2    2
    19    24    23    2
    20     6     1    1
    21    43    41   ar
    22    20    23    1
    23    20    21    1
    24     2    37    1
    25    17     1    1
    26    17    21    1
    27    41    40    1
    28    41    42   ar
    29     1    33    1
    30     1    25    1
    31    40    39    1
    32    21     4    2
    33    37    33    2
    34    37    36    1
    35    33    34    1
    36    39    36    1
    37    36    35    2
    38     4    26    1
    39    25    26   ar
    40    25    29   ar
    41    34    35    1
    42    34     5    2
    43    35    38    1
    44    26    27   ar
    45    29     5    1
    46    29    28   ar
    47    27    28   ar
    48    27    30    1
    49    28    31    1
    50    31    32    2
