@<TRIPOS>MOLECULE
1dgh_NDP_A_1.pdb
 48 52 0 0 0
SMALL
GASTEIGER

@<TRIPOS>ATOM
      1  PA        27.2290   55.0380   81.8090 P.3   3000  NDP3000     0.2189
      2  O1A       27.2540   54.6250   83.2310 O.3   3000  NDP3000    -0.4371
      3  O2A       26.5310   56.2670   81.3680 O.2   3000  NDP3000    -0.5170
      4  O5B       26.6000   53.8450   80.9480 O.3   3000  NDP3000    -0.3112
      5  C5B       26.7080   52.5020   81.4260 C.3   3000  NDP3000     0.1813
      6  C4B       26.0750   51.6090   80.3800 C.3   3000  NDP3000     0.1820
      7  O4B       26.5280   50.2660   80.5850 O.3   3000  NDP3000    -0.3136
      8  C3B       24.5570   51.6140   80.4760 C.3   3000  NDP3000     0.2157
      9  O3B       23.9270   51.9310   79.2220 O.3   3000  NDP3000    -0.2175
     10  C2B       24.2320   50.1900   80.8990 C.3   3000  NDP3000     0.2314
     11  O2B       23.0770   49.7020   80.2240 O.3   3000  NDP3000    -0.2630
     12  C1B       25.4010   49.4210   80.3790 C.3   3000  NDP3000     0.3158
     13  N9A       25.5610   48.1070   81.0260 N.pl3 3000  NDP3000    -0.1439
     14  C8A       25.4180   47.7700   82.3180 C.3   3000  NDP3000     0.3377
     15  N7A       25.7970   46.4980   82.4970 N.2   3000  NDP3000    -0.2095
     16  C5A       26.1470   46.0650   81.2930 C.2   3000  NDP3000     0.2526
     17  C6A       26.5290   44.7670   80.9430 C.2   3000  NDP3000     0.4393
     18  N6A       26.6910   43.7770   81.8190 N.pl3 3000  NDP3000     0.2180
     19  N1A       26.7590   44.5610   79.6230 N.2   3000  NDP3000     0.0021
     20  C2A       26.6430   45.5410   78.7150 C.3   3000  NDP3000     0.5254
     21  N3A       26.2800   46.7810   79.0550 N.2   3000  NDP3000    -0.0055
     22  C4A       26.0110   47.0570   80.3500 C.2   3000  NDP3000     0.3518
     23  O3        28.7580   55.1030   81.3330 O.3   3000  NDP3000    -0.2703
     24  PN        29.5170   55.5960   80.0170 P.3   3000  NDP3000     0.2189
     25  O1N       28.4780   55.9160   79.0150 O.2   3000  NDP3000    -0.5170
     26  O2N       30.5530   56.5910   80.3550 O.3   3000  NDP3000    -0.4371
     27  O5D       30.2680   54.2480   79.5970 O.3   3000  NDP3000    -0.3112
     28  C5D       31.1830   53.6110   80.5040 C.3   3000  NDP3000     0.1813
     29  C4D       31.2720   52.1650   80.0540 C.3   3000  NDP3000     0.1799
     30  O4D       29.9560   51.5910   79.9890 O.3   3000  NDP3000    -0.3327
     31  C3D       31.8220   52.0790   78.6510 C.3   3000  NDP3000     0.2158
     32  O3D       33.2540   52.0750   78.6420 O.3   3000  NDP3000    -0.2175
     33  C2D       31.2240   50.7740   78.1530 C.3   3000  NDP3000     0.2309
     34  O2D       32.0810   49.6540   78.4010 O.3   3000  NDP3000    -0.2158
     35  C1D       29.9260   50.6320   78.9260 C.3   3000  NDP3000     0.2263
     36  N1N       28.7390   50.8710   78.0800 N.pl3 3000  NDP3000    -0.2787
     37  C2N       28.5440   52.1320   77.4840 C.3   3000  NDP3000     0.1244
     38  C3N       27.5030   52.3250   76.5760 C.2   3000  NDP3000     0.0544
     39  C7N       27.4360   53.6200   75.7420 C.2   3000  NDP3000     0.2818
     40  O7N       26.8130   53.6480   74.6760 O.2   3000  NDP3000    -0.2670
     41  N7N       28.1670   54.6460   76.1890 N.am  3000  NDP3000    -0.0839
     42  C4N       26.6320   51.2550   76.3120 C.2   3000  NDP3000     0.0033
     43  C5N       26.7970   50.0020   76.9170 C.2   3000  NDP3000     0.0157
     44  C6N       27.8610   49.8040   77.7980 C.2   3000  NDP3000     0.0633
     45  P2B       21.6010   50.0060   80.8150 P.3   3000  NDP3000     0.5328
     46  O1X       20.7480   49.1930   79.9040 O.2   3000  NDP3000    -0.2224
     47  O2X       21.4370   51.4660   80.5800 O.3   3000  NDP3000    -0.1145
     48  O3X       21.6610   49.5990   82.2580 O.3   3000  NDP3000    -0.1145
@<TRIPOS>BOND
     1    40    39    2
     2    39    41   am
     3    39    38    1
     4    42    38    2
     5    42    43    1
     6    38    37    1
     7    43    44    2
     8    37    36    1
     9    44    36    1
    10    36    35    1
    11    33    34    1
    12    33    31    1
    13    33    35    1
    14    32    31    1
    15    31    29    1
    16    20    21    1
    17    20    19    1
    18    35    30    1
    19    25    24    2
    20    21    22    2
    21     9     8    1
    22    27    24    1
    23    27    28    1
    24    19    17    2
    25    46    45    2
    26    30    29    1
    27    24    26    1
    28    24    23    1
    29    29    28    1
    30    11    45    1
    31    11    10    1
    32    22    13    1
    33    22    16    1
    34    12     7    1
    35    12    10    1
    36    12    13    1
    37     6     8    1
    38     6     7    1
    39     6     5    1
    40     8    10    1
    41    47    45    1
    42    45    48    1
    43    17    16    1
    44    17    18    1
    45     4     5    1
    46     4     1    1
    47    13    14    1
    48    16    15    2
    49    23     1    1
    50     3     1    2
    51     1     2    1
    52    14    15    1
