@<TRIPOS>MOLECULE
1dgj_MCN_A_1.pdb
 44 48 0 0 0
SMALL
GASTEIGER

@<TRIPOS>ATOM
      1  N1         6.6450   48.0580   70.2020 N.am  914  MCN914     -0.1778
      2  C2         7.9070   47.4790   69.9220 C.1   914  MCN914      0.2756
      3  N3         7.9230   46.1090   69.7170 N.2   914  MCN914     -0.3024
      4  C4         6.8270   45.3670   69.7750 C.2   914  MCN914      0.2346
      5  C5         5.5100   45.9550   70.0670 C.2   914  MCN914      0.0687
      6  C6         5.5170   47.3110   70.2660 C.2   914  MCN914      0.0836
      7  O2         8.9500   48.1700   69.8630 O.2   914  MCN914     -0.1925
      8  N4         6.7980   44.0250   69.5780 N.pl3 914  MCN914     -0.0921
      9  C1'        6.6040   49.5100   70.4280 C.3   914  MCN914      0.2400
     10  C2D        5.7850   50.2580   69.3420 C.3   914  MCN914      0.2319
     11  O2'        6.6160   50.6160   68.2420 O.3   914  MCN914     -0.2157
     12  C3'        5.2620   51.4750   70.0770 C.3   914  MCN914      0.2158
     13  C4D        5.0350   50.9500   71.4840 C.3   914  MCN914      0.1799
     14  O4D        5.8620   49.7530   71.6350 O.3   914  MCN914     -0.3320
     15  O3'        6.3010   52.4660   70.1740 O.3   914  MCN914     -0.2175
     16  C5'        3.5940   50.6370   71.7390 C.3   914  MCN914      0.1813
     17  O5'        3.0470   49.8310   70.5140 O.3   914  MCN914     -0.3112
     18  PA         1.5600   49.3200   70.4900 P.3   914  MCN914      0.2189
     19  O1A        1.3420   48.3270   71.6010 O.3   914  MCN914     -0.4371
     20  O2A        1.2530   48.7540   69.0460 O.2   914  MCN914     -0.5170
     21  O3A        0.6250   50.5960   70.8580 O.3   914  MCN914     -0.2703
     22  PB         0.3070   51.9720   70.0900 P.3   914  MCN914      0.2189
     23  O1B        1.4330   52.4470   69.3170 O.2   914  MCN914     -0.5170
     24  O2B       -1.0690   51.7700   69.4720 O.3   914  MCN914     -0.4371
     25  O3B        0.2360   52.9420   71.4040 O.3   914  MCN914     -0.3109
     26  C10       -0.9960   52.9750   72.2040 C.3   914  MCN914      0.1837
     27  C9'       -0.7710   52.4460   73.6130 C.3   914  MCN914      0.1762
     28  C8'       -2.0290   52.7170   74.3290 C.2   914  MCN914      0.0473
     29  S8'       -3.3890   52.0920   73.5690 S.2   914  MCN914     -0.0526
     30  C7'       -2.0460   53.3710   75.4810 C.2   914  MCN914      0.0449
     31  S7'       -3.4290   53.7410   76.3710 S.2   914  MCN914     -0.0530
     32  C6'       -0.8060   53.7630   76.2620 C.3   914  MCN914      0.1850
     33  C7         0.3920   53.0790   75.6290 C.3   914  MCN914      0.2573
     34  O9'        0.3920   53.0970   74.2110 O.3   914  MCN914     -0.3271
     35  N5'       -0.5760   55.2230   76.1630 N.2   914  MCN914     -0.2411
     36  C4A        0.7530   55.6210   76.5180 C.2   914  MCN914      0.2467
     37  N8'        1.6820   53.4150   76.0760 N.2   914  MCN914     -0.1763
     38  C4B        1.8080   54.6840   76.4800 C.1   914  MCN914      0.1293
     39  N1'        3.0820   55.0370   76.8180 N.2   914  MCN914     -0.2682
     40  C2'        3.4080   56.3470   77.2320 C.1   914  MCN914      0.2608
     41  N2'        4.6540   56.7490   77.5690 N.pl3 914  MCN914     -0.0220
     42  N3'        2.3470   57.3160   77.2820 N.2   914  MCN914     -0.2474
     43  C4'        1.0710   56.9710   76.9610 C.1   914  MCN914      0.2441
     44  O4'        0.1790   57.8790   77.0410 O.2   914  MCN914     -0.2063
@<TRIPOS>BOND
     1    11    10    1
     2    20    18    2
     3    23    22    2
     4    10    12    1
     5    10     9    1
     6    24    22    1
     7     8     4    1
     8     3     4    2
     9     3     2    2
    10     4     5    1
    11     7     2    2
    12     2     1   am
    13     5     6    2
    14    12    15    1
    15    12    13    1
    16    22    21    1
    17    22    25    1
    18     1     6    1
    19     1     9    1
    20     9    14    1
    21    18    17    1
    22    18    21    1
    23    18    19    1
    24    17    16    1
    25    25    26    1
    26    13    14    1
    27    13    16    1
    28    26    27    1
    29    29    28    2
    30    27    34    1
    31    27    28    1
    32    34    33    1
    33    28    30    1
    34    30    32    1
    35    30    31    2
    36    33    37    1
    37    33    32    1
    38    37    38    2
    39    35    32    1
    40    35    36    2
    41    38    36    1
    42    38    39    2
    43    36    43    1
    44    39    40    2
    45    43    44    2
    46    43    42    2
    47    40    42    2
    48    40    41    1
