@<TRIPOS>MOLECULE
1dgk_GLC_N_1.pdb
 12 12 0 0 0
SMALL
GASTEIGER

@<TRIPOS>ATOM
      1  C1        43.0300   51.4910   19.2130 C.3   918  GLC918      0.3024
      2  C2        44.4950   51.5970   18.9160 C.3   918  GLC918      0.2434
      3  C3        44.8420   50.9020   17.6180 C.3   918  GLC918      0.2199
      4  C4        44.2680   49.5050   17.5480 C.3   918  GLC918      0.2144
      5  C5        42.7900   49.5030   17.9170 C.3   918  GLC918      0.1836
      6  C6        42.1880   48.1760   18.2000 C.3   918  GLC918      0.2142
      7  O1        42.1760   52.2820   18.5750 O.3   918  GLC918     -0.1869
      8  O2        44.7880   52.9520   18.7210 O.3   918  GLC918     -0.2148
      9  O3        46.2480   50.8110   17.7400 O.3   918  GLC918     -0.2174
     10  O4        44.5160   48.9550   16.2700 O.3   918  GLC918     -0.2176
     11  O5        42.6380   50.1100   19.2140 O.3   918  GLC918     -0.3236
     12  O6        42.8050   47.2780   19.1120 O.3   918  GLC918     -0.2176
@<TRIPOS>BOND
     1    10     4    1
     2     4     3    1
     3     4     5    1
     4     3     9    1
     5     3     2    1
     6     5     6    1
     7     5    11    1
     8     6    12    1
     9     7     1    1
    10     8     2    1
    11     2     1    1
    12     1    11    1
