@<TRIPOS>MOLECULE
1dgk_ADP_N_1.pdb
 27 29 0 0 0
SMALL
GASTEIGER

@<TRIPOS>ATOM
      1  PB        94.8140   59.6540  -16.3810 P.3   921  ADP921      0.5373
      2  O1B       94.6020   60.9560  -15.6540 O.3   921  ADP921     -0.1143
      3  O2B       93.5580   59.5170  -17.1870 O.3   921  ADP921     -0.1143
      4  O3B       95.9640   59.8380  -17.3150 O.2   921  ADP921     -0.2221
      5  PA        95.0350   58.4280  -13.7610 P.3   921  ADP921      0.2231
      6  O1A       95.9750   57.3860  -13.2530 O.2   921  ADP921     -0.5169
      7  O2A       95.5290   59.6110  -13.0830 O.3   921  ADP921     -0.4370
      8  O3A       95.0350   58.4800  -15.3360 O.3   921  ADP921     -0.2261
      9  O5'       93.5390   57.9860  -13.4080 O.3   921  ADP921     -0.3111
     10  C5'       92.9370   56.7890  -13.9530 C.3   921  ADP921      0.1813
     11  C4'       91.9710   56.0360  -13.1000 C.3   921  ADP921      0.1821
     12  O4'       90.7450   56.6320  -12.6890 O.3   921  ADP921     -0.3135
     13  C3'       91.6680   54.5980  -13.4560 C.3   921  ADP921      0.2184
     14  O3'       92.3430   53.6330  -12.6140 O.3   921  ADP921     -0.2174
     15  C2'       90.1230   54.5310  -13.4020 C.3   921  ADP921      0.2570
     16  O2'       89.6800   53.2270  -12.9740 O.3   921  ADP921     -0.2130
     17  C1'       89.7850   55.6500  -12.4030 C.3   921  ADP921      0.3186
     18  N9        88.5090   56.2840  -12.6250 N.pl3 921  ADP921     -0.1439
     19  C8        87.8810   56.5580  -13.7940 C.3   921  ADP921      0.3377
     20  N7        86.6910   57.0320  -13.7010 N.2   921  ADP921     -0.2095
     21  C5        86.4850   57.0850  -12.4000 C.2   921  ADP921      0.2526
     22  C6        85.3690   57.5360  -11.7440 C.2   921  ADP921      0.4393
     23  N6        84.2630   58.0130  -12.3000 N.pl3 921  ADP921      0.2180
     24  N1        85.4470   57.5080  -10.4040 N.2   921  ADP921      0.0021
     25  C2        86.6020   57.0380   -9.8260 C.3   921  ADP921      0.5254
     26  N3        87.7170   56.5790  -10.3530 N.2   921  ADP921     -0.0055
     27  C4        87.5730   56.6460  -11.6820 C.2   921  ADP921      0.3518
@<TRIPOS>BOND
     1     4     1    2
     2     3     1    1
     3     1     2    1
     4     1     8    1
     5     8     5    1
     6    10     9    1
     7    10    11    1
     8    19    20    1
     9    19    18    1
    10     5     9    1
    11     5     6    2
    12     5     7    1
    13    20    21    2
    14    13    15    1
    15    13    11    1
    16    13    14    1
    17    15    16    1
    18    15    17    1
    19    11    12    1
    20    12    17    1
    21    18    17    1
    22    18    27    1
    23    21    22    1
    24    21    27    1
    25    23    22    1
    26    22    24    2
    27    27    26    2
    28    24    25    1
    29    26    25    1
