@<TRIPOS>MOLECULE
1dgl_MAN_A_1.pdb
 11 11 0 0 0
SMALL
GASTEIGER

@<TRIPOS>ATOM
      1  C1        15.2680   28.5320   56.3400 C.3   400  MAN400      0.1777
      2  C2        14.6980   29.9070   56.0060 C.3   400  MAN400      0.2141
      3  C3        13.3120   30.0200   56.5930 C.3   400  MAN400      0.2173
      4  C4        12.4590   28.9470   55.9970 C.3   400  MAN400      0.2142
      5  C5        13.0510   27.5810   56.3140 C.3   400  MAN400      0.1810
      6  C6        12.2870   26.4150   55.6930 C.3   400  MAN400      0.2141
      7  O2        14.6150   30.0310   54.5960 O.3   400  MAN400     -0.2176
      8  O3        12.7450   31.2940   56.3170 O.3   400  MAN400     -0.2175
      9  O4        11.1750   29.0580   56.5670 O.3   400  MAN400     -0.2176
     10  O5        14.4070   27.5090   55.8360 O.3   400  MAN400     -0.3481
     11  O6        12.5590   26.3030   54.2960 O.3   400  MAN400     -0.2176
@<TRIPOS>BOND
     1    11     6    1
     2     7     2    1
     3     6     5    1
     4    10     5    1
     5    10     1    1
     6     4     5    1
     7     4     9    1
     8     4     3    1
     9     2     1    1
    10     2     3    1
    11     8     3    1
