@<TRIPOS>MOLECULE
1dgl_MMA_A_1.pdb
 13 13 0 0 0
SMALL
GASTEIGER

@<TRIPOS>ATOM
      1  C1        16.2440   28.1300   61.6760 C.3   401  MMA401      0.2695
      2  C2        14.8400   27.7890   62.1650 C.3   401  MMA401      0.2406
      3  C3        14.3970   26.4830   61.5380 C.3   401  MMA401      0.2198
      4  C4        14.5850   26.4920   60.0090 C.3   401  MMA401      0.2144
      5  C5        15.9730   26.9830   59.6020 C.3   401  MMA401      0.1835
      6  C6        16.1280   27.2150   58.1110 C.3   401  MMA401      0.2142
      7  C7        18.4700   27.3470   61.6990 C.3   401  MMA401      0.1769
      8  O1        17.1350   27.0840   62.0630 O.3   401  MMA401     -0.3259
      9  O2        13.9350   28.8290   61.8390 O.3   401  MMA401     -0.2149
     10  O3        13.0080   26.2620   61.8390 O.3   401  MMA401     -0.2174
     11  O4        14.4030   25.1720   59.5060 O.3   401  MMA401     -0.2176
     12  O5        16.2570   28.2310   60.2590 O.3   401  MMA401     -0.3256
     13  O6        15.4550   28.4360   57.7300 O.3   401  MMA401     -0.2176
@<TRIPOS>BOND
     1    13     6    1
     2     6     5    1
     3    11     4    1
     4     5     4    1
     5     5    12    1
     6     4     3    1
     7    12     1    1
     8     3    10    1
     9     3     2    1
    10     1     8    1
    11     1     2    1
    12     7     8    1
    13     9     2    1
