@<TRIPOS>MOLECULE
1dgm_ADN_A_1.pdb
 19 21 0 0 0
SMALL
GASTEIGER

@<TRIPOS>ATOM
      1  O5'        2.9270    7.7700   15.4440 O.3   375  ADN375     -0.2176
      2  C5'        2.7310    9.1180   15.0240 C.3   375  ADN375      0.2143
      3  C4'        1.4510    9.2380   14.2270 C.3   375  ADN375      0.1851
      4  O4'        0.3540    8.6900   15.0050 O.3   375  ADN375     -0.3134
      5  C3'        1.0380   10.6680   13.9180 C.3   375  ADN375      0.2186
      6  O3'        1.6390   11.1290   12.7120 O.3   375  ADN375     -0.2174
      7  C2'       -0.4750   10.5590   13.7890 C.3   375  ADN375      0.2570
      8  O2'       -0.9030   10.1620   12.5000 O.3   375  ADN375     -0.2130
      9  C1'       -0.8020    9.4980   14.8460 C.3   375  ADN375      0.3186
     10  N9        -1.1560   10.0440   16.1600 N.pl3 375  ADN375     -0.1439
     11  C8        -0.7490   11.2280   16.7240 C.3   375  ADN375      0.3377
     12  N7        -1.2400   11.4410   17.9220 N.2   375  ADN375     -0.2095
     13  C5        -2.0240   10.3220   18.1650 C.2   375  ADN375      0.2526
     14  C6        -2.8180    9.9410   19.2640 C.2   375  ADN375      0.4393
     15  N6        -2.9670   10.6790   20.3660 N.pl3 375  ADN375      0.2180
     16  N1        -3.4660    8.7610   19.1890 N.2   375  ADN375      0.0021
     17  C2        -3.3280    8.0260   18.0800 C.3   375  ADN375      0.5254
     18  N3        -2.6190    8.2760   16.9830 N.2   375  ADN375     -0.0055
     19  C4        -1.9820    9.4540   17.0890 C.2   375  ADN375      0.3518
@<TRIPOS>BOND
     1     8     7    1
     2     6     5    1
     3     7     5    1
     4     7     9    1
     5     5     3    1
     6     3     4    1
     7     3     2    1
     8     9     4    1
     9     9    10    1
    10     2     1    1
    11    10    11    1
    12    10    19    1
    13    11    12    1
    14    18    19    2
    15    18    17    1
    16    19    13    1
    17    12    13    2
    18    17    16    1
    19    13    14    1
    20    16    14    2
    21    14    15    1
