@<TRIPOS>MOLECULE
1dgp_FOH_A_1.pdb
 16 15 0 0 0
SMALL
GASTEIGER

@<TRIPOS>ATOM
      1  C1        41.1640   38.3250   24.8960 C.3   401  FOH401      0.0260
      2  C2        39.9140   37.5200   25.2290 C.2   401  FOH401     -0.0478
      3  C3        38.5680   38.2100   24.9980 C.3   401  FOH401      0.0260
      4  C4        40.0270   36.2520   25.7070 C.2   401  FOH401     -0.0342
      5  C5        38.9210   35.2700   26.1050 C.3   401  FOH401      0.0297
      6  C6        38.6910   35.1290   27.6460 C.3   401  FOH401      0.0263
      7  C7        38.1460   36.4030   28.2950 C.2   401  FOH401     -0.0478
      8  C8        36.7420   36.8690   27.8800 C.3   401  FOH401      0.0260
      9  C9        38.9130   37.1040   29.1930 C.2   401  FOH401     -0.0342
     10  C10       38.6060   38.4160   29.9510 C.3   401  FOH401      0.0297
     11  C11       37.2470   38.5720   30.6970 C.3   401  FOH401      0.0264
     12  C12       36.4200   39.7880   30.2680 C.2   401  FOH401     -0.0453
     13  C13       37.1020   41.1590   30.1540 C.3   401  FOH401      0.0261
     14  C14       35.0980   39.6580   29.9930 C.2   401  FOH401      0.0006
     15  C15       34.1440   40.7680   29.5580 C.3   401  FOH401      0.2077
     16  O1        33.3180   41.0770   30.6720 O.3   401  FOH401     -0.2152
@<TRIPOS>BOND
     1     1     2    1
     2     3     2    1
     3     2     4    2
     4     4     5    1
     5     5     6    1
     6     6     7    1
     7     8     7    1
     8     7     9    2
     9     9    10    1
    10    15    14    1
    11    15    16    1
    12    10    11    1
    13    14    12    2
    14    13    12    1
    15    12    11    1
