@<TRIPOS>MOLECULE
1dgs_AMP_A_1.pdb
 22 24 0 0 0
SMALL
GASTEIGER

@<TRIPOS>ATOM
      1  P         23.1260   10.7730   18.4640 P.3   700  AMP700      0.3942
      2  O1P       22.3860   12.0460   18.4580 O.3   700  AMP700     -0.1425
      3  O2P       22.6560    9.8610   19.5260 O.3   700  AMP700     -0.1425
      4  O5'       23.1280   10.0590   17.0380 O.3   700  AMP700     -0.2926
      5  C5'       23.5500   10.7850   15.8760 C.3   700  AMP700      0.1831
      6  C4'       23.7370    9.7840   14.7420 C.3   700  AMP700      0.1822
      7  O4'       24.4190   10.4630   13.6870 O.3   700  AMP700     -0.3135
      8  C3'       24.5960    8.5920   15.1360 C.3   700  AMP700      0.2184
      9  O3'       23.8400    7.3740   15.1340 O.3   700  AMP700     -0.2174
     10  C2'       25.7300    8.5050   14.1090 C.3   700  AMP700      0.2570
     11  O2'       25.6430    7.3650   13.2400 O.3   700  AMP700     -0.2130
     12  C1'       25.6580    9.8160   13.3620 C.3   700  AMP700      0.3186
     13  N9        26.8200   10.7290   13.6630 N.pl3 700  AMP700     -0.1439
     14  C8        26.7150   11.9740   14.1420 C.3   700  AMP700      0.3377
     15  N7        27.9370   12.5040   14.2740 N.2   700  AMP700     -0.2095
     16  C5        28.8200   11.6180   13.8850 C.2   700  AMP700      0.2526
     17  C6        30.2030   11.5860   13.7850 C.2   700  AMP700      0.4393
     18  N6        30.9320   12.6550   14.1400 N.pl3 700  AMP700      0.2180
     19  N1        30.8230   10.4660   13.3250 N.2   700  AMP700      0.0021
     20  C2        30.1230    9.3800   12.9590 C.3   700  AMP700      0.5254
     21  N3        28.7900    9.3980   13.0470 N.2   700  AMP700     -0.0055
     22  C4        28.1060   10.4700   13.4910 C.2   700  AMP700      0.3518
@<TRIPOS>BOND
     1    20    21    1
     2    20    19    1
     3    21    22    2
     4    11    10    1
     5    19    17    2
     6    12    13    1
     7    12     7    1
     8    12    10    1
     9    22    13    1
    10    22    16    1
    11    13    14    1
    12     7     6    1
    13    17    16    1
    14    17    18    1
    15    16    15    2
    16    10     8    1
    17    14    15    1
    18     6     8    1
    19     6     5    1
    20     9     8    1
    21     5     4    1
    22     4     1    1
    23     2     1    1
    24     1     3    1
