@<TRIPOS>MOLECULE
1dhf_FOL_A_1.pdb
 32 34 0 0 0
SMALL
GASTEIGER

@<TRIPOS>ATOM
      1  N1        26.9870   31.8160   21.5270 N.2   187  FOL187     -0.2672
      2  C2        28.0800   32.2520   20.8840 C.1   187  FOL187      0.2609
      3  NA2       28.3540   33.4730   20.5880 N.pl3 187  FOL187     -0.0220
      4  N3        29.0990   31.3350   20.5940 N.2   187  FOL187     -0.2466
      5  C4        29.0270   30.0080   20.8680 C.1   187  FOL187      0.2569
      6  O4        29.9880   29.2750   20.5840 O.2   187  FOL187     -0.2052
      7  C4A       27.8000   29.5620   21.5520 C.2   187  FOL187      0.2988
      8  N5        27.6830   28.2460   21.8730 N.2   187  FOL187     -0.3839
      9  C6        26.5850   27.9110   22.5260 C.2   187  FOL187      0.1356
     10  C7        25.6420   28.9370   22.8120 C.3   187  FOL187      0.1931
     11  N8        25.7510   30.1820   22.4800 N.2   187  FOL187     -0.1992
     12  C8A       26.8490   30.4830   21.8460 C.1   187  FOL187      0.1401
     13  C9        26.3790   26.5030   22.8960 C.3   187  FOL187      0.1683
     14  N10       27.5320   25.6140   22.9300 N.pl3 187  FOL187     -0.2303
     15  C11       31.0980   25.7060   25.0740 C.ar  187  FOL187      0.0551
     16  C12       30.1820   26.7510   25.2070 C.ar  187  FOL187      0.0059
     17  C13       28.9590   26.7610   24.4910 C.ar  187  FOL187      0.0162
     18  C14       28.6890   25.7420   23.6810 C.ar  187  FOL187      0.0658
     19  C15       29.6120   24.6290   23.5130 C.ar  187  FOL187      0.0162
     20  C16       30.7960   24.6440   24.1870 C.ar  187  FOL187      0.0059
     21  C         32.3600   25.8080   25.8310 C.2   187  FOL187      0.2652
     22  O         33.2080   24.9280   25.7630 O.2   187  FOL187     -0.2684
     23  N         32.5820   26.8530   26.5600 N.am  187  FOL187     -0.1918
     24  CA        33.7190   27.1670   27.4450 C.3   187  FOL187      0.1986
     25  CB        35.0490   27.3020   26.6160 C.3   187  FOL187      0.0451
     26  CG        35.2230   28.8540   26.2060 C.3   187  FOL187      0.1164
     27  CD        36.5400   29.1400   25.4530 C.2   187  FOL187      0.3649
     28  OE1       37.2410   28.1380   25.2880 O.co2 187  FOL187     -0.2457
     29  OE2       36.8190   30.3080   25.0590 O.co2 187  FOL187     -0.2457
     30  CT        33.5300   28.4070   28.2780 C.2   187  FOL187      0.3842
     31  O1        32.7160   29.3300   27.9930 O.co2 187  FOL187     -0.2437
     32  O2        34.3090   28.4360   29.2690 O.co2 187  FOL187     -0.2437
@<TRIPOS>BOND
     1     6     5    2
     2     3     2    1
     3     4     5    2
     4     4     2    2
     5     5     7    1
     6     2     1    2
     7     1    12    2
     8     7    12    1
     9     7     8    2
    10    12    11    2
    11     8     9    2
    12    11    10    1
    13     9    10    1
    14     9    13    1
    15    13    14    1
    16    14    18    1
    17    19    18   ar
    18    19    20   ar
    19    18    17   ar
    20    20    15   ar
    21    17    16   ar
    22    29    27   ar
    23    15    16   ar
    24    15    21    1
    25    28    27   ar
    26    27    26    1
    27    22    21    2
    28    21    23   am
    29    26    25    1
    30    23    24    1
    31    25    24    1
    32    24    30    1
    33    31    30   ar
    34    30    32   ar
