@<TRIPOS>MOLECULE
1dhi_MTX_A_1.pdb
 33 35 0 0 0
SMALL
GASTEIGER

@<TRIPOS>ATOM
      1  N1        22.9690   58.7620   24.2580 N.2   161  MTX161     -0.2684
      2  C2        23.5860   58.2440   23.1920 C.1   161  MTX161      0.2519
      3  NA2       24.8550   58.1400   23.1220 N.pl3 161  MTX161     -0.0226
      4  N3        22.7810   57.7670   22.1400 N.2   161  MTX161     -0.3033
      5  C4        21.4290   57.8240   22.0360 C.2   161  MTX161      0.2728
      6  NA4       20.7850   57.3950   21.0130 N.pl3 161  MTX161     -0.0887
      7  C4A       20.8300   58.4020   23.2340 C.2   161  MTX161      0.2518
      8  N5        19.4800   58.5370   23.2140 N.2   161  MTX161     -0.3917
      9  C6        18.9280   59.0470   24.3530 C.2   161  MTX161      0.1330
     10  C7        19.7510   59.3960   25.4440 C.3   161  MTX161      0.1930
     11  N8        21.0910   59.3260   25.4290 N.2   161  MTX161     -0.1998
     12  C8A       21.5880   58.8040   24.2750 C.1   161  MTX161      0.1314
     13  C9        17.4580   59.1590   24.3680 C.3   161  MTX161      0.1481
     14  N10       16.9330   60.0320   25.4700 N.pl3 161  MTX161     -0.2999
     15  CM        16.0010   59.3280   26.4060 C.3   161  MTX161      0.1125
     16  C11       17.8950   64.1590   25.6940 C.ar  161  MTX161      0.0551
     17  C12       17.0340   63.5420   26.6450 C.ar  161  MTX161      0.0058
     18  C13       16.7460   62.1900   26.5420 C.ar  161  MTX161      0.0147
     19  C14       17.2930   61.4050   25.4790 C.ar  161  MTX161      0.0482
     20  C15       18.1110   62.0090   24.5470 C.ar  161  MTX161      0.0147
     21  C16       18.4200   63.3690   24.6660 C.ar  161  MTX161      0.0058
     22  C         18.2050   65.5900   25.7890 C.2   161  MTX161      0.2652
     23  O         17.6770   66.3090   26.6450 O.2   161  MTX161     -0.2684
     24  N         19.1130   66.1200   24.9860 N.am  161  MTX161     -0.1918
     25  CA        19.5130   67.5670   24.9840 C.3   161  MTX161      0.1986
     26  CT        19.9560   67.7580   23.5610 C.2   161  MTX161      0.3842
     27  O1        20.2970   66.7390   22.8960 O.co2 161  MTX161     -0.2437
     28  O2        19.9240   68.9350   23.1220 O.co2 161  MTX161     -0.2437
     29  CB        20.8050   67.7570   25.8240 C.3   161  MTX161      0.0451
     30  CG        20.5760   67.6910   27.3960 C.3   161  MTX161      0.1164
     31  CD        19.8460   68.8730   28.0620 C.2   161  MTX161      0.3649
     32  OE1       19.3310   68.5310   29.1880 O.co2 161  MTX161     -0.2457
     33  OE2       19.7860   69.9960   27.5180 O.co2 161  MTX161     -0.2457
@<TRIPOS>BOND
     1     6     5    1
     2     5     4    2
     3     5     7    1
     4     4     2    2
     5    27    26   ar
     6    28    26   ar
     7     3     2    1
     8     2     1    2
     9     8     7    2
    10     8     9    2
    11     7    12    1
    12    26    25    1
    13     1    12    2
    14    12    11    2
    15     9    13    1
    16     9    10    1
    17    13    14    1
    18    20    21   ar
    19    20    19   ar
    20    21    16   ar
    21    25    24    1
    22    25    29    1
    23    24    22   am
    24    11    10    1
    25    14    19    1
    26    14    15    1
    27    19    18   ar
    28    16    22    1
    29    16    17   ar
    30    22    23    2
    31    29    30    1
    32    18    17   ar
    33    30    31    1
    34    33    31   ar
    35    31    32   ar
