@<TRIPOS>MOLECULE
1dhj_MTX_A_1.pdb
 33 35 0 0 0
SMALL
GASTEIGER

@<TRIPOS>ATOM
      1  N1        22.9090   58.5070   24.1050 N.2   161  MTX161     -0.2684
      2  C2        23.4710   57.9410   23.0370 C.1   161  MTX161      0.2519
      3  NA2       24.7360   57.8430   22.9050 N.pl3 161  MTX161     -0.0226
      4  N3        22.6530   57.5060   22.0330 N.2   161  MTX161     -0.3033
      5  C4        21.3080   57.5940   21.8740 C.2   161  MTX161      0.2728
      6  NA4       20.6520   57.1140   20.8360 N.pl3 161  MTX161     -0.0887
      7  C4A       20.7310   58.1850   23.1450 C.2   161  MTX161      0.2518
      8  N5        19.3680   58.3520   23.1590 N.2   161  MTX161     -0.3917
      9  C6        18.8690   58.9180   24.2650 C.2   161  MTX161      0.1330
     10  C7        19.7480   59.3530   25.3090 C.3   161  MTX161      0.1930
     11  N8        21.0610   59.2410   25.2970 N.2   161  MTX161     -0.1998
     12  C8A       21.5090   58.6140   24.1620 C.1   161  MTX161      0.1314
     13  C9        17.4240   59.0540   24.1720 C.3   161  MTX161      0.1481
     14  N10       16.9490   59.8970   25.3460 N.pl3 161  MTX161     -0.2999
     15  CM        16.0530   59.1920   26.3020 C.3   161  MTX161      0.1125
     16  C11       17.7920   64.0770   25.5730 C.ar  161  MTX161      0.0551
     17  C12       17.0180   63.4150   26.5710 C.ar  161  MTX161      0.0058
     18  C13       16.8030   62.0470   26.4640 C.ar  161  MTX161      0.0147
     19  C14       17.3280   61.2760   25.3660 C.ar  161  MTX161      0.0482
     20  C15       18.0490   61.8880   24.3660 C.ar  161  MTX161      0.0147
     21  C16       18.3040   63.2860   24.5050 C.ar  161  MTX161      0.0058
     22  C         18.0510   65.4930   25.6600 C.2   161  MTX161      0.2652
     23  O         17.3600   66.2300   26.3580 O.2   161  MTX161     -0.2684
     24  N         19.0580   65.9740   24.9460 N.am  161  MTX161     -0.1918
     25  CA        19.4720   67.4260   24.9410 C.3   161  MTX161      0.1986
     26  CT        19.8480   67.5140   23.4540 C.2   161  MTX161      0.3842
     27  O1        20.1080   66.4850   22.7220 O.co2 161  MTX161     -0.2437
     28  O2        19.7830   68.6810   23.0240 O.co2 161  MTX161     -0.2437
     29  CB        20.8290   67.5980   25.7360 C.3   161  MTX161      0.0451
     30  CG        20.9990   67.9160   27.3090 C.3   161  MTX161      0.1164
     31  CD        19.8800   68.8820   27.7450 C.2   161  MTX161      0.3649
     32  OE1       19.0450   68.2960   28.5350 O.co2 161  MTX161     -0.2457
     33  OE2       19.8350   70.0590   27.2650 O.co2 161  MTX161     -0.2457
@<TRIPOS>BOND
     1     6     5    1
     2     5     4    2
     3     5     7    1
     4     4     2    2
     5    27    26   ar
     6     3     2    1
     7    28    26   ar
     8     2     1    2
     9     7     8    2
    10     7    12    1
    11     8     9    2
    12    26    25    1
    13     1    12    2
    14    12    11    2
    15    13     9    1
    16    13    14    1
    17     9    10    1
    18    20    21   ar
    19    20    19   ar
    20    21    16   ar
    21    25    24    1
    22    25    29    1
    23    24    22   am
    24    11    10    1
    25    14    19    1
    26    14    15    1
    27    19    18   ar
    28    16    22    1
    29    16    17   ar
    30    22    23    2
    31    29    30    1
    32    18    17   ar
    33    33    31   ar
    34    30    31    1
    35    31    32   ar
