@<TRIPOS>MOLECULE
1dhr_NAD_A_1.pdb
 44 48 0 0 0
SMALL
GASTEIGER

@<TRIPOS>ATOM
      1  PA        29.1710   45.3280   34.3540 P.3   241  NAD241      0.2189
      2  O1A       30.1680   44.7400   33.3920 O.2   241  NAD241     -0.5170
      3  O2A       29.8050   45.3930   35.7300 O.3   241  NAD241     -0.4371
      4  O5B       27.6860   44.6540   34.3280 O.3   241  NAD241     -0.3112
      5  C5B       27.0360   44.3160   33.0600 C.3   241  NAD241      0.1813
      6  C4B       26.1830   43.1050   33.1690 C.3   241  NAD241      0.1821
      7  O4B       25.6910   42.8890   32.1410 O.3   241  NAD241     -0.3135
      8  C3B       26.9020   41.8300   33.7030 C.3   241  NAD241      0.2184
      9  O3B       26.1710   41.3010   34.8520 O.3   241  NAD241     -0.2174
     10  C2B       26.6220   40.8780   32.5220 C.3   241  NAD241      0.2570
     11  O2B       26.5440   39.5760   32.8110 O.3   241  NAD241     -0.2130
     12  C1B       25.3670   41.4710   31.9900 C.3   241  NAD241      0.3186
     13  N9A       25.1860   41.0820   30.5700 N.pl3 241  NAD241     -0.1439
     14  C8A       26.1330   41.1730   29.6150 C.3   241  NAD241      0.3377
     15  N7A       25.6550   40.7050   28.4640 N.2   241  NAD241     -0.2095
     16  C5A       24.3140   40.2850   28.8520 C.2   241  NAD241      0.2526
     17  C6A       23.1000   39.6220   28.1170 C.2   241  NAD241      0.4393
     18  N6A       23.1330   39.2810   26.8000 N.pl3 241  NAD241      0.2180
     19  N1A       21.9740   39.3810   28.8080 N.2   241  NAD241      0.0021
     20  C2A       22.0380   39.7500   30.1010 C.3   241  NAD241      0.5254
     21  N3A       22.9920   40.3200   30.8480 N.2   241  NAD241     -0.0055
     22  C4A       24.1080   40.5490   30.1320 C.2   241  NAD241      0.3518
     23  O3        28.8300   46.8180   33.9640 O.3   241  NAD241     -0.2703
     24  PN        28.6720   48.1030   34.9100 P.3   241  NAD241      0.2189
     25  O1N       29.9130   48.6580   35.3920 O.2   241  NAD241     -0.5170
     26  O2N       27.7010   47.8650   35.9730 O.3   241  NAD241     -0.4371
     27  O5D       28.0280   49.1650   33.8380 O.3   241  NAD241     -0.3112
     28  C5D       26.5880   49.4230   33.7450 C.3   241  NAD241      0.1813
     29  C4D       26.3200   49.9220   32.3190 C.3   241  NAD241      0.1799
     30  O4D       27.0590   51.1810   32.2120 O.3   241  NAD241     -0.3327
     31  C3D       26.9980   48.9880   31.1880 C.3   241  NAD241      0.2158
     32  O3D       26.3200   49.1900   29.9260 O.3   241  NAD241     -0.2175
     33  C2D       28.4330   49.5570   31.1530 C.3   241  NAD241      0.2309
     34  O2D       28.9880   49.3640   29.8370 O.3   241  NAD241     -0.2158
     35  C1D       28.1830   51.0330   31.3650 C.3   241  NAD241      0.2263
     36  N1N       29.4800   51.8080   31.5130 N.pl3 241  NAD241     -0.2787
     37  C2N       30.4340   51.4910   32.4790 C.3   241  NAD241      0.1244
     38  C3N       31.5890   52.1490   32.6120 C.2   241  NAD241      0.0544
     39  C7N       32.4620   51.6610   33.6830 C.2   241  NAD241      0.2818
     40  O7N       33.5780   52.2940   33.8460 O.2   241  NAD241     -0.2670
     41  N7N       32.1380   50.6210   34.4730 N.am  241  NAD241     -0.0839
     42  C4N       31.9750   53.3710   31.7200 C.2   241  NAD241      0.0033
     43  C5N       30.8480   53.6240   30.7350 C.2   241  NAD241      0.0157
     44  C6N       29.7360   52.8990   30.6510 C.2   241  NAD241      0.0633
@<TRIPOS>BOND
     1    18    17    1
     2    17    19    2
     3    17    16    1
     4    15    16    2
     5    15    14    1
     6    19    20    1
     7    16    22    1
     8    14    13    1
     9    34    33    1
    10    32    31    1
    11    20    21    1
    12    22    13    1
    13    22    21    2
    14    13    12    1
    15    44    43    2
    16    44    36    1
    17    43    42    1
    18    33    31    1
    19    33    35    1
    20    31    29    1
    21    35    36    1
    22    35    30    1
    23    36    37    1
    24    42    38    2
    25    12     7    1
    26    12    10    1
    27     7     6    1
    28    30    29    1
    29    29    28    1
    30    37    38    1
    31    10    11    1
    32    10     8    1
    33    38    39    1
    34     5     6    1
    35     5     4    1
    36     6     8    1
    37     2     1    2
    38    39    40    2
    39    39    41   am
    40     8     9    1
    41    28    27    1
    42    27    24    1
    43    23     1    1
    44    23    24    1
    45     4     1    1
    46     1     3    1
    47    24    25    2
    48    24    26    1
