@<TRIPOS>MOLECULE
1dhs_NAD_A_1.pdb
 44 48 0 0 0
SMALL
GASTEIGER

@<TRIPOS>ATOM
      1  PA        12.1570   -7.2940   37.7040 P.3   700  NAD700      0.2189
      2  O1A       12.5020   -7.1480   36.3120 O.2   700  NAD700     -0.5170
      3  O2A       12.7720   -6.3750   38.7060 O.3   700  NAD700     -0.4371
      4  O5B       10.5470   -7.3200   37.9060 O.3   700  NAD700     -0.3112
      5  C5B        9.7160   -8.3350   37.2950 C.3   700  NAD700      0.1813
      6  C4B        8.2810   -7.9900   37.6490 C.3   700  NAD700      0.1821
      7  O4B        8.2110   -8.0090   39.0870 O.3   700  NAD700     -0.3135
      8  C3B        7.9220   -6.5740   37.2520 C.3   700  NAD700      0.2184
      9  O3B        7.1350   -6.5700   36.0500 O.3   700  NAD700     -0.2174
     10  C2B        7.0650   -6.0520   38.3940 C.3   700  NAD700      0.2570
     11  O2B        5.7100   -6.2650   38.0610 O.3   700  NAD700     -0.2130
     12  C1B        7.3450   -6.9330   39.5760 C.3   700  NAD700      0.3186
     13  N9A        7.7990   -6.1560   40.7540 N.pl3 700  NAD700     -0.1439
     14  C8A        9.0010   -5.5790   40.8880 C.3   700  NAD700      0.3377
     15  N7A        9.1140   -4.8870   42.0230 N.2   700  NAD700     -0.2095
     16  C5A        7.9330   -5.0700   42.5820 C.2   700  NAD700      0.2526
     17  C6A        7.5750   -4.5020   43.7970 C.2   700  NAD700      0.4393
     18  N6A        8.3690   -3.5960   44.3430 N.pl3 700  NAD700      0.2180
     19  N1A        6.3400   -4.7910   44.2380 N.2   700  NAD700      0.0021
     20  C2A        5.5050   -5.5540   43.5120 C.3   700  NAD700      0.5254
     21  N3A        5.8360   -6.0800   42.3270 N.2   700  NAD700     -0.0055
     22  C4A        7.0790   -5.8530   41.8340 C.2   700  NAD700      0.3518
     23  O3        12.5420   -8.7480   38.2400 O.3   700  NAD700     -0.2703
     24  PN        13.8750   -9.6030   38.4500 P.3   700  NAD700      0.2189
     25  O1N       14.1920   -9.6800   39.8730 O.3   700  NAD700     -0.4371
     26  O2N       13.5980  -10.8630   37.7070 O.2   700  NAD700     -0.5170
     27  O5D       14.9490   -8.6850   37.6680 O.3   700  NAD700     -0.3112
     28  C5D       15.2080   -8.9540   36.2800 C.3   700  NAD700      0.1813
     29  C4D       16.6870   -9.2370   36.0670 C.3   700  NAD700      0.1799
     30  O4D       17.3660   -8.0640   36.5600 O.3   700  NAD700     -0.3327
     31  C3D       17.1240  -10.4180   36.9020 C.3   700  NAD700      0.2158
     32  O3D       17.7630  -11.4570   36.1600 O.3   700  NAD700     -0.2175
     33  C2D       18.0280   -9.7440   37.9390 C.3   700  NAD700      0.2309
     34  O2D       19.1290  -10.4720   38.5090 O.3   700  NAD700     -0.2158
     35  C1D       18.5270   -8.5260   37.2450 C.3   700  NAD700      0.2263
     36  N1N       19.1190   -7.5520   38.1920 N.pl3 700  NAD700     -0.2787
     37  C2N       18.2660   -6.6530   38.8420 C.3   700  NAD700      0.1244
     38  C3N       18.7910   -5.8030   39.8130 C.2   700  NAD700      0.0544
     39  C7N       17.8270   -4.8340   40.5260 C.2   700  NAD700      0.2818
     40  O7N       16.7990   -4.4530   39.9620 O.2   700  NAD700     -0.2670
     41  N7N       18.2020   -4.4140   41.7430 N.am  700  NAD700     -0.0839
     42  C4N       20.1670   -5.8400   40.1090 C.2   700  NAD700      0.0033
     43  C5N       21.0260   -6.7270   39.4450 C.2   700  NAD700      0.0157
     44  C6N       20.5030   -7.5900   38.4810 C.2   700  NAD700      0.0633
@<TRIPOS>BOND
     1     9     8    1
     2    29    28    1
     3    29    30    1
     4    29    31    1
     5    32    31    1
     6    28    27    1
     7     2     1    2
     8    30    35    1
     9    31    33    1
    10    35    33    1
    11    35    36    1
    12     8     6    1
    13     8    10    1
    14     5     6    1
    15     5     4    1
    16     6     7    1
    17    27    24    1
    18     1     4    1
    19     1    23    1
    20     1     3    1
    21    26    24    2
    22    33    34    1
    23    11    10    1
    24    36    44    1
    25    36    37    1
    26    23    24    1
    27    10    12    1
    28    24    25    1
    29    44    43    2
    30    37    38    1
    31     7    12    1
    32    43    42    1
    33    12    13    1
    34    38    42    2
    35    38    39    1
    36    40    39    2
    37    39    41   am
    38    13    14    1
    39    13    22    1
    40    14    15    1
    41    22    21    2
    42    22    16    1
    43    15    16    2
    44    21    20    1
    45    16    17    1
    46    20    19    1
    47    17    19    2
    48    17    18    1
