@<TRIPOS>MOLECULE
1dht_DHT_A_1.pdb
 21 24 0 0 0
SMALL
GASTEIGER

@<TRIPOS>ATOM
      1  C1        10.1350   11.2960  -12.4940 C.3   400  DHT400      0.0026
      2  C2         9.1160   12.2510  -13.2330 C.3   400  DHT400      0.0329
      3  C3         8.3890   11.5340  -14.3960 C.3   400  DHT400      0.1520
      4  O3         7.5640   12.3170  -15.1650 O.3   400  DHT400     -0.2232
      5  C4         8.4600   10.0270  -14.7830 C.3   400  DHT400      0.0329
      6  C5         9.6940    9.3060  -14.0960 C.3   400  DHT400      0.0025
      7  C6         9.5830    7.7410  -14.2990 C.3   400  DHT400      0.0001
      8  C7        10.6530    6.9070  -13.5170 C.3   400  DHT400      0.0000
      9  C8        10.7000    7.3050  -12.0170 C.3   400  DHT400      0.0001
     10  C9        11.1120    8.8640  -11.9440 C.3   400  DHT400      0.0000
     11  C10        9.8770    9.7120  -12.5250 C.3   400  DHT400      0.0002
     12  C11       11.6130    9.3220  -10.5050 C.3   400  DHT400      0.0001
     13  C12       12.3050    8.2560   -9.5820 C.3   400  DHT400      0.0024
     14  C13       11.6620    6.8330   -9.6410 C.3   400  DHT400      0.0282
     15  C14       11.6940    6.3910  -11.1590 C.3   400  DHT400      0.0024
     16  C15       11.4180    4.8690  -11.0900 C.3   400  DHT400      0.0027
     17  C16       12.1430    4.4090   -9.7980 C.3   400  DHT400      0.0329
     18  C17       12.5720    5.7000   -9.0560 C.3   400  DHT400      0.1519
     19  O17       12.4190    5.5380   -7.6280 O.3   400  DHT400     -0.2232
     20  C18       10.2340    6.8750   -8.9200 C.3   400  DHT400      0.0025
     21  C19        8.5840    9.4220  -11.6750 C.3   400  DHT400      0.0000
@<TRIPOS>BOND
     1     4     3    1
     2     5     3    1
     3     5     6    1
     4     3     2    1
     5     7     6    1
     6     7     8    1
     7     6    11    1
     8     8     9    1
     9     2     1    1
    10    11     1    1
    11    11    10    1
    12    11    21    1
    13     9    10    1
    14     9    15    1
    15    10    12    1
    16    15    16    1
    17    15    14    1
    18    16    17    1
    19    12    13    1
    20    17    18    1
    21    14    13    1
    22    14    18    1
    23    14    20    1
    24    18    19    1
