@<TRIPOS>MOLECULE
1di8_DTQ_A_1.pdb
 22 24 0 0 0
SMALL
GASTEIGER

@<TRIPOS>ATOM
      1  N1        -9.2640   52.3090   13.3720 N.2   500  DTQ500     -0.0363
      2  C2       -10.2040   52.9720   12.5990 C.3   500  DTQ500      0.3913
      3  N3       -10.8280   52.3530   11.5200 N.2   500  DTQ500     -0.2220
      4  C4       -10.5050   51.0150   11.1310 C.2   500  DTQ500      0.0769
      5  C5        -9.4320   50.2410   11.9370 C.3   500  DTQ500      0.1742
      6  C6        -8.8630   50.9420   13.1320 C.2   500  DTQ500      0.3483
      7  C7       -11.1780   50.3770    9.9930 C.2   500  DTQ500      0.0553
      8  C8       -10.8540   48.9910    9.5930 C.2   500  DTQ500      0.1733
      9  C9        -9.7510   48.2530   10.3090 C.2   500  DTQ500      0.1691
     10  C10       -9.0520   48.8980   11.4690 C.2   500  DTQ500      0.0318
     11  N12       -7.9420   50.3180   14.0110 N.pl3 500  DTQ500     -0.0093
     12  C14       -7.2290   50.6820   15.1650 C.ar  500  DTQ500      0.1863
     13  C15       -6.3650   49.6150   15.7210 C.ar  500  DTQ500      0.0864
     14  C16       -5.5720   49.8430   16.9480 C.ar  500  DTQ500      0.1993
     15  C17       -5.5700   51.1620   17.5920 C.ar  500  DTQ500      0.0423
     16  C18       -6.4190   52.2450   17.0620 C.ar  500  DTQ500      0.0069
     17  C19       -7.2620   52.0030   15.8780 C.ar  500  DTQ500      0.0446
     18  O21       -4.8340   48.8240   17.5090 O.3   500  DTQ500     -0.2864
     19  O26      -11.5470   48.2780    8.5820 O.2   500  DTQ500     -0.4683
     20  C27      -12.3960   48.8920    7.6050 C.3   500  DTQ500      0.2526
     21  O31       -9.4630   46.9300    9.8550 O.2   500  DTQ500     -0.4687
     22  C32       -8.4820   46.1170   10.5080 C.3   500  DTQ500      0.2526
@<TRIPOS>BOND
     1    20    19    1
     2    19     8    1
     3     8     7    2
     4     8     9    1
     5    21     9    1
     6    21    22    1
     7     7     4    1
     8     9    10    2
     9     4     3    2
    10     4     5    1
    11    10     5    1
    12     3     2    1
    13     5     6    1
    14     2     1    1
    15     6     1    2
    16     6    11    1
    17    11    12    1
    18    12    13   ar
    19    12    17   ar
    20    13    14   ar
    21    17    16   ar
    22    14    18    1
    23    14    15   ar
    24    16    15   ar
