@<TRIPOS>MOLECULE
1di9_MSQ_A_1.pdb
 23 25 0 0 0
SMALL
GASTEIGER

@<TRIPOS>ATOM
      1  N1        43.0150   32.0510   32.3060 N.2   500  MSQ500     -0.0363
      2  C2        43.5280   33.3560   32.3740 C.3   500  MSQ500      0.3913
      3  N3        44.6160   33.7610   31.5820 N.2   500  MSQ500     -0.2220
      4  C4        45.3250   32.8150   30.7600 C.2   500  MSQ500      0.0769
      5  C5        44.8050   31.3540   30.6580 C.3   500  MSQ500      0.1742
      6  C6        43.6190   31.0220   31.4970 C.2   500  MSQ500      0.3483
      7  C7        46.5880   33.1820   30.0880 C.2   500  MSQ500      0.0553
      8  C8        47.4330   32.1490   29.4040 C.2   500  MSQ500      0.1733
      9  C9        46.8980   30.7430   29.2390 C.2   500  MSQ500      0.1691
     10  C10       45.5660   30.3730   29.8290 C.2   500  MSQ500      0.0318
     11  N12       43.0870   29.7090   31.5300 N.pl3 500  MSQ500     -0.0094
     12  C14       41.8510   29.2210   31.9100 C.ar  500  MSQ500      0.1836
     13  C15       40.6150   29.7090   31.2620 C.ar  500  MSQ500      0.0505
     14  C16       39.3000   29.4010   31.8370 C.ar  500  MSQ500      0.0288
     15  C17       39.1800   28.4200   32.9280 C.ar  500  MSQ500      0.0064
     16  C18       40.4100   27.8220   33.5040 C.ar  500  MSQ500      0.0041
     17  C19       41.7550   28.2320   33.0070 C.ar  500  MSQ500      0.0444
     18  S21       37.8780   30.2090   31.2290 S.3   500  MSQ500     -0.1126
     19  C22       38.3800   31.9360   30.9080 C.3   500  MSQ500      0.0742
     20  O26       48.7700   32.3890   28.9470 O.2   500  MSQ500     -0.4683
     21  C27       49.3270   33.6180   28.8460 C.3   500  MSQ500      0.2526
     22  O31       47.7520   29.8330   28.5470 O.2   500  MSQ500     -0.4687
     23  C32       47.3320   28.5320   28.0930 C.3   500  MSQ500      0.2526
@<TRIPOS>BOND
     1    23    22    1
     2    22     9    1
     3    21    20    1
     4    20     8    1
     5     9     8    1
     6     9    10    2
     7     8     7    2
     8    10     5    1
     9     7     4    1
    10     5     4    1
    11     5     6    1
    12     4     3    2
    13    19    18    1
    14    18    14    1
    15    13    14   ar
    16    13    12   ar
    17     6    11    1
    18     6     1    2
    19    11    12    1
    20     3     2    1
    21    14    15   ar
    22    12    17   ar
    23     1     2    1
    24    15    16   ar
    25    17    16   ar
