@<TRIPOS>MOLECULE
1dia_NAP_A_1.pdb
 48 52 0 0 0
SMALL
GASTEIGER

@<TRIPOS>ATOM
      1  PA        -6.1420   47.4320   25.6360 P.3   2001  NAP2001     0.2189
      2  O1A       -7.4210   48.0460   26.0770 O.3   2001  NAP2001    -0.4371
      3  O2A       -6.2840   46.6180   24.4100 O.2   2001  NAP2001    -0.5170
      4  O5B       -5.4310   46.6250   26.7980 O.3   2001  NAP2001    -0.3112
      5  C5B       -5.5560   46.9940   28.1860 C.3   2001  NAP2001     0.1813
      6  C4B       -5.0050   45.8630   29.0660 C.3   2001  NAP2001     0.1820
      7  O4B       -4.9920   46.2570   30.4350 O.3   2001  NAP2001    -0.3136
      8  C3B       -5.8330   44.5920   28.9630 C.3   2001  NAP2001     0.2157
      9  O3B       -4.9520   43.4790   28.9520 O.3   2001  NAP2001    -0.2175
     10  C2B       -6.6880   44.5610   30.2360 C.3   2001  NAP2001     0.2314
     11  O2B       -6.8430   43.1960   30.7030 O.3   2001  NAP2001    -0.2630
     12  C1B       -5.8540   45.4190   31.2230 C.3   2001  NAP2001     0.3158
     13  N9A       -6.6880   46.2220   32.1150 N.pl3 2001  NAP2001    -0.1439
     14  C8A       -7.9150   46.9440   31.7920 C.3   2001  NAP2001     0.3377
     15  N7A       -8.3350   47.5690   32.9770 N.2   2001  NAP2001    -0.2095
     16  C5A       -7.4120   47.2290   33.9130 C.2   2001  NAP2001     0.2526
     17  C6A       -7.4960   47.5480   35.2700 C.2   2001  NAP2001     0.4393
     18  N6A       -8.4450   48.3520   35.7590 N.pl3 2001  NAP2001     0.2180
     19  N1A       -6.4810   46.9910   36.1580 N.2   2001  NAP2001     0.0021
     20  C2A       -5.4990   46.2020   35.6710 C.3   2001  NAP2001     0.5254
     21  N3A       -5.4630   45.9260   34.3480 N.2   2001  NAP2001    -0.0055
     22  C4A       -6.4830   46.4860   33.4940 C.2   2001  NAP2001     0.3518
     23  O3        -5.0140   48.5270   25.4280 O.3   2001  NAP2001    -0.2703
     24  PN        -3.5020   48.5670   24.9050 P.3   2001  NAP2001     0.2189
     25  O1N       -3.4550   48.3870   23.4330 O.2   2001  NAP2001    -0.5170
     26  O2N       -2.6240   47.6240   25.6210 O.3   2001  NAP2001    -0.4371
     27  O5D       -2.9540   50.0230   25.2410 O.3   2001  NAP2001    -0.3112
     28  C5D       -2.8100   50.4790   26.5960 C.3   2001  NAP2001     0.1813
     29  C4D       -2.3620   51.9630   26.6490 C.3   2001  NAP2001     0.1799
     30  O4D       -1.0920   52.1550   26.0290 O.3   2001  NAP2001    -0.3327
     31  C3D       -3.3310   52.9780   26.0300 C.3   2001  NAP2001     0.2158
     32  O3D       -3.5990   54.0010   26.9820 O.3   2001  NAP2001    -0.2175
     33  C2D       -2.5590   53.5850   24.8500 C.3   2001  NAP2001     0.2309
     34  O2D       -2.7930   54.9860   24.7750 O.3   2001  NAP2001    -0.2158
     35  C1D       -1.1090   53.3200   25.2090 C.3   2001  NAP2001     0.2263
     36  N1N       -0.2600   53.2050   24.0290 N.pl3 2001  NAP2001    -0.2787
     37  C2N        0.7610   54.0800   23.8920 C.3   2001  NAP2001     0.1244
     38  C3N        1.5220   54.1180   22.7370 C.2   2001  NAP2001     0.0544
     39  C7N        2.4480   55.3040   22.4820 C.2   2001  NAP2001     0.2818
     40  O7N        2.4710   55.8520   21.3870 O.2   2001  NAP2001    -0.2670
     41  N7N        3.0120   55.8670   23.5610 N.am  2001  NAP2001    -0.0839
     42  C4N        1.2000   53.1460   21.6320 C.2   2001  NAP2001     0.0033
     43  C5N        0.1560   52.2610   21.8360 C.2   2001  NAP2001     0.0157
     44  C6N       -0.5640   52.3100   23.0510 C.2   2001  NAP2001     0.0633
     45  P2B       -7.7260   42.1240   29.9470 P.3   2001  NAP2001     0.5328
     46  O1X       -8.9360   42.7860   29.4020 O.3   2001  NAP2001    -0.1145
     47  O2X       -6.9110   41.5150   28.8700 O.2   2001  NAP2001    -0.2224
     48  O3X       -8.0870   41.0920   30.9500 O.3   2001  NAP2001    -0.1145
@<TRIPOS>BOND
     1    40    39    2
     2    42    43    1
     3    42    38    2
     4    43    44    2
     5    39    38    1
     6    39    41   am
     7    38    37    1
     8    44    36    1
     9    25    24    2
    10    37    36    1
    11    36    35    1
    12     3     1    2
    13    34    33    1
    14    33    35    1
    15    33    31    1
    16    24    27    1
    17    24    23    1
    18    24    26    1
    19    35    30    1
    20    27    28    1
    21    23     1    1
    22     1     2    1
    23     1     4    1
    24    30    29    1
    25    31    29    1
    26    31    32    1
    27    28    29    1
    28     4     5    1
    29     5     6    1
    30    47    45    2
    31     9     8    1
    32     8     6    1
    33     8    10    1
    34     6     7    1
    35    46    45    1
    36    45    11    1
    37    45    48    1
    38    10    11    1
    39    10    12    1
    40     7    12    1
    41    12    13    1
    42    14    13    1
    43    14    15    1
    44    13    22    1
    45    15    16    2
    46    22    16    1
    47    22    21    2
    48    16    17    1
    49    21    20    1
    50    17    18    1
    51    17    19    2
    52    20    19    1
