@<TRIPOS>MOLECULE
1dia_L24_A_1.pdb
 32 34 0 0 0
SMALL
GASTEIGER

@<TRIPOS>ATOM
      1  N2A       -3.6530   50.7680   19.0400 N.pl3 3001  L243001    -0.0221
      2  N1        -2.0970   52.1650   17.9480 N.2   3001  L243001    -0.2739
      3  C2        -2.9420   51.9060   19.0290 C.1   3001  L243001     0.2602
      4  N3        -3.0640   52.7970   20.0870 N.2   3001  L243001    -0.2529
      5  C4        -2.3710   53.9460   20.1150 C.1   3001  L243001     0.2060
      6  O4A       -2.4710   54.7430   21.0510 O.2   3001  L243001    -0.2123
      7  C5        -1.4430   54.2310   18.9370 C.3   3001  L243001     0.2157
      8  C6        -1.3580   53.3310   17.9120 C.1   3001  L243001     0.0888
      9  N7        -0.5410   53.5820   16.8350 N.2   3001  L243001    -0.2122
     10  C8         0.2130   54.7290   16.6450 C.3   3001  L243001     0.1370
     11  C9         0.6290   55.3660   17.9630 C.3   3001  L243001     0.0278
     12  C10       -0.5610   55.4910   18.9160 C.3   3001  L243001     0.0360
     13  C11        1.3270   56.7280   17.7940 C.3   3001  L243001     0.0068
     14  C12        2.3620   56.9340   18.8880 C.3   3001  L243001     0.0264
     15  C1B        2.5980   58.3410   19.2430 C.ar  3001  L243001    -0.0222
     16  C2B        3.3050   59.1540   18.3860 C.ar  3001  L243001    -0.0041
     17  C3B        3.5850   60.4680   18.7380 C.ar  3001  L243001     0.0042
     18  C4B        3.1510   60.9690   19.9550 C.ar  3001  L243001     0.0550
     19  C5B        2.4270   60.1580   20.8130 C.ar  3001  L243001     0.0042
     20  C6B        2.1480   58.8390   20.4570 C.ar  3001  L243001    -0.0041
     21  C7B        3.5390   62.3910   20.3580 C.2   3001  L243001     0.2652
     22  O7B        4.4870   62.9470   19.7990 O.2   3001  L243001    -0.2684
     23  N          2.9990   62.8600   21.4830 N.am  3001  L243001    -0.1918
     24  CA         3.3670   64.1630   22.0530 C.3   3001  L243001     0.1986
     25  CB         2.1160   65.0430   22.2200 C.3   3001  L243001     0.0451
     26  CG         1.3750   65.3470   20.9140 C.3   3001  L243001     0.1164
     27  CD         0.1310   66.1920   21.1330 C.2   3001  L243001     0.3649
     28  OE1       -0.9320   65.6120   21.4450 O.co2 3001  L243001    -0.2457
     29  OE2        0.2120   67.4350   20.9950 O.co2 3001  L243001    -0.2457
     30  C          4.0680   64.0120   23.4060 C.2   3001  L243001     0.3842
     31  O          3.7490   63.0370   24.1230 O.co2 3001  L243001    -0.2437
     32  OXT        4.9240   64.8660   23.7340 O.co2 3001  L243001    -0.2437
@<TRIPOS>BOND
     1    10     9    1
     2    10    11    1
     3     9     8    2
     4    13    11    1
     5    13    14    1
     6     8     2    2
     7     8     7    1
     8     2     3    2
     9    11    12    1
    10    16    17   ar
    11    16    15   ar
    12    17    18   ar
    13    14    15    1
    14    12     7    1
    15     7     5    1
    16     3     1    1
    17     3     4    2
    18    15    20   ar
    19    22    21    2
    20    18    21    1
    21    18    19   ar
    22     4     5    2
    23     5     6    2
    24    21    23   am
    25    20    19   ar
    26    26    27    1
    27    26    25    1
    28    29    27   ar
    29    27    28   ar
    30    23    24    1
    31    24    25    1
    32    24    30    1
    33    30    32   ar
    34    30    31   ar
