@<TRIPOS>MOLECULE
1dib_L34_A_1.pdb
 34 37 0 0 0
SMALL
GASTEIGER

@<TRIPOS>ATOM
      1  N2A        1.3110   49.6580   13.5750 N.pl3 3001  L343001    -0.0221
      2  N1         0.1290   50.6070   15.3300 N.2   3001  L343001    -0.2722
      3  C2         1.2780   50.3750   14.7080 C.1   3001  L343001     0.2603
      4  N3         2.4580   50.9580   15.2270 N.2   3001  L343001    -0.2512
      5  C4         2.3740   51.7960   16.3100 C.1   3001  L343001     0.2257
      6  O4A        3.5350   52.2960   16.8800 O.2   3001  L343001    -0.2106
      7  C4A        1.1600   52.0570   16.9080 C.3   3001  L343001     0.2947
      8  N5         1.0300   53.1870   17.8440 N.am  3001  L343001    -0.2360
      9  C6        -0.2580   53.3760   18.5950 C.3   3001  L343001     0.1241
     10  C7        -1.3850   52.9060   17.6590 C.3   3001  L343001     0.1586
     11  N8        -1.1250   51.7550   16.9800 N.2   3001  L343001    -0.2090
     12  C8A        0.0790   51.4650   16.4300 C.1   3001  L343001     0.1089
     13  CX         1.6870   54.3420   17.8710 C.2   3001  L343001     0.3125
     14  OX         2.5730   54.6270   17.0950 O.2   3001  L343001    -0.2520
     15  C9        -0.3000   54.9250   18.7670 C.3   3001  L343001     0.1216
     16  N10        1.1250   55.2340   18.6910 N.am  3001  L343001    -0.2413
     17  C1B        1.4500   56.6500   18.9300 C.ar  3001  L343001     0.0553
     18  C2B        2.3980   57.3210   18.1060 C.ar  3001  L343001     0.0151
     19  C3B        2.8530   58.5920   18.4550 C.ar  3001  L343001     0.0058
     20  C4B        2.3390   59.2170   19.5870 C.ar  3001  L343001     0.0551
     21  C5B        1.4060   58.5620   20.3780 C.ar  3001  L343001     0.0058
     22  C6B        0.9440   57.3000   20.0400 C.ar  3001  L343001     0.0151
     23  C7B        2.8280   60.5870   20.0220 C.2   3001  L343001     0.2652
     24  O7B        3.7150   61.1700   19.3920 O.2   3001  L343001    -0.2684
     25  N          2.4160   60.9480   21.2400 N.am  3001  L343001    -0.1918
     26  CA         2.8560   62.1610   21.9260 C.3   3001  L343001     0.1986
     27  CB         1.6850   63.1040   22.1580 C.3   3001  L343001     0.0451
     28  CG         0.9080   63.4880   20.9390 C.3   3001  L343001     0.1164
     29  CD        -0.1630   64.4960   21.2710 C.2   3001  L343001     0.3649
     30  OE1       -1.2940   64.0820   21.6010 O.co2 3001  L343001    -0.2457
     31  OE2        0.1280   65.7080   21.2170 O.co2 3001  L343001    -0.2457
     32  C          3.4260   61.8370   23.2980 C.2   3001  L343001     0.3842
     33  O          3.0060   60.8250   23.8980 O.co2 3001  L343001    -0.2437
     34  OXT        4.2140   62.6620   23.7960 O.co2 3001  L343001    -0.2437
@<TRIPOS>BOND
     1     1     3    1
     2     3     4    2
     3     3     2    2
     4     4     5    2
     5     2    12    2
     6     5     6    2
     7     5     7    1
     8    12     7    1
     9    12    11    2
    10     7     8    1
    11    11    10    1
    12    14    13    2
    13    10     9    1
    14     8    13   am
    15     8     9    1
    16    13    16   am
    17    18    19   ar
    18    18    17   ar
    19    19    20   ar
    20     9    15    1
    21    16    15    1
    22    16    17    1
    23    17    22   ar
    24    24    23    2
    25    20    23    1
    26    20    21   ar
    27    23    25   am
    28    22    21   ar
    29    28    29    1
    30    28    27    1
    31    31    29   ar
    32    25    26    1
    33    29    30   ar
    34    26    27    1
    35    26    32    1
    36    32    34   ar
    37    32    33   ar
