@<TRIPOS>MOLECULE
1dib_NAP_A_1.pdb
 48 52 0 0 0
SMALL
GASTEIGER

@<TRIPOS>ATOM
      1  PA        -5.9030   47.6560   25.5220 P.3   2001  NAP2001     0.2189
      2  O1A       -7.1620   48.3950   25.7890 O.3   2001  NAP2001    -0.4371
      3  O2A       -5.9630   46.9050   24.2480 O.2   2001  NAP2001    -0.5170
      4  O5B       -5.5770   46.6580   26.7160 O.3   2001  NAP2001    -0.3112
      5  C5B       -5.6850   47.0380   28.1020 C.3   2001  NAP2001     0.1813
      6  C4B       -5.0580   45.9420   28.9960 C.3   2001  NAP2001     0.1820
      7  O4B       -5.0990   46.3230   30.3700 O.3   2001  NAP2001    -0.3136
      8  C3B       -5.7920   44.6220   28.8810 C.3   2001  NAP2001     0.2157
      9  O3B       -4.8400   43.5730   28.9200 O.3   2001  NAP2001    -0.2175
     10  C2B       -6.6690   44.5520   30.1260 C.3   2001  NAP2001     0.2314
     11  O2B       -6.7500   43.1990   30.5730 O.3   2001  NAP2001    -0.2630
     12  C1B       -5.9020   45.4190   31.1370 C.3   2001  NAP2001     0.3158
     13  N9A       -6.7980   46.1340   32.0400 N.pl3 2001  NAP2001    -0.1439
     14  C8A       -8.0060   46.8830   31.6860 C.3   2001  NAP2001     0.3377
     15  N7A       -8.5200   47.3830   32.8900 N.2   2001  NAP2001    -0.2095
     16  C5A       -7.6770   46.9620   33.8650 C.2   2001  NAP2001     0.2526
     17  C6A       -7.8040   47.2330   35.2120 C.2   2001  NAP2001     0.4393
     18  N6A       -8.8090   47.9760   35.6850 N.pl3 2001  NAP2001     0.2180
     19  N1A       -6.7990   46.6990   36.1190 N.2   2001  NAP2001     0.0021
     20  C2A       -5.7720   45.9620   35.6460 C.3   2001  NAP2001     0.5254
     21  N3A       -5.6880   45.7240   34.3200 N.2   2001  NAP2001    -0.0055
     22  C4A       -6.7070   46.2690   33.4420 C.2   2001  NAP2001     0.3518
     23  O3        -4.6650   48.6560   25.5150 O.3   2001  NAP2001    -0.2703
     24  PN        -3.2440   48.7670   24.7830 P.3   2001  NAP2001     0.2189
     25  O1N       -3.3690   48.6070   23.3000 O.2   2001  NAP2001    -0.5170
     26  O2N       -2.2220   47.8570   25.3690 O.3   2001  NAP2001    -0.4371
     27  O5D       -2.7930   50.2560   25.1200 O.3   2001  NAP2001    -0.3112
     28  C5D       -2.7460   50.7130   26.4750 C.3   2001  NAP2001     0.1813
     29  C4D       -1.8520   51.9390   26.5800 C.3   2001  NAP2001     0.1799
     30  O4D       -0.6810   51.7760   25.7890 O.3   2001  NAP2001    -0.3327
     31  C3D       -2.6130   53.1220   25.9650 C.3   2001  NAP2001     0.2158
     32  O3D       -2.3600   54.2780   26.7620 O.3   2001  NAP2001    -0.2175
     33  C2D       -1.9910   53.3230   24.5720 C.3   2001  NAP2001     0.2309
     34  O2D       -1.9900   54.7050   24.2210 O.3   2001  NAP2001    -0.2158
     35  C1D       -0.6030   52.9100   24.9560 C.3   2001  NAP2001     0.2263
     36  N1N        0.3410   52.8750   23.8610 N.pl3 2001  NAP2001    -0.2787
     37  C2N        1.2760   53.8410   23.8750 C.3   2001  NAP2001     0.1244
     38  C3N        1.9720   54.1830   22.7610 C.2   2001  NAP2001     0.0544
     39  C7N        2.6510   55.5440   22.7290 C.2   2001  NAP2001     0.2818
     40  O7N        2.8600   56.1750   21.6730 O.2   2001  NAP2001    -0.2670
     41  N7N        2.8470   56.0950   23.9250 N.am  2001  NAP2001    -0.0839
     42  C4N        1.7120   53.4060   21.5070 C.2   2001  NAP2001     0.0033
     43  C5N        0.7680   52.3930   21.5600 C.2   2001  NAP2001     0.0157
     44  C6N        0.0890   52.1460   22.7530 C.2   2001  NAP2001     0.0633
     45  P2B       -7.5880   42.0970   29.7960 P.3   2001  NAP2001     0.5328
     46  O1X       -8.7390   42.7230   29.1110 O.3   2001  NAP2001    -0.1145
     47  O2X       -6.6980   41.4450   28.8120 O.2   2001  NAP2001    -0.2224
     48  O3X       -8.0690   41.0900   30.7700 O.3   2001  NAP2001    -0.1145
@<TRIPOS>BOND
     1    42    43    1
     2    42    38    2
     3    43    44    2
     4    40    39    2
     5    39    38    1
     6    39    41   am
     7    44    36    1
     8    38    37    1
     9    25    24    2
    10    36    37    1
    11    36    35    1
    12    34    33    1
    13     3     1    2
    14    33    35    1
    15    33    31    1
    16    24    27    1
    17    24    26    1
    18    24    23    1
    19    35    30    1
    20    27    28    1
    21    23     1    1
    22     1     2    1
    23     1     4    1
    24    30    29    1
    25    31    29    1
    26    31    32    1
    27    28    29    1
    28     4     5    1
    29     5     6    1
    30    47    45    2
    31     8     9    1
    32     8     6    1
    33     8    10    1
    34     6     7    1
    35    46    45    1
    36    45    11    1
    37    45    48    1
    38    10    11    1
    39    10    12    1
    40     7    12    1
    41    12    13    1
    42    14    13    1
    43    14    15    1
    44    13    22    1
    45    15    16    2
    46    22    16    1
    47    22    21    2
    48    16    17    1
    49    21    20    1
    50    17    18    1
    51    17    19    2
    52    20    19    1
