@<TRIPOS>MOLECULE
1dic_DIC_A_1.pdb
 10 10 0 0 0
SMALL
GASTEIGER

@<TRIPOS>ATOM
      1  C1        19.2310   18.3700   17.4250 C.ar  244  DIC244     -0.0003
      2  C2        18.7870   19.6970   17.3750 C.ar  244  DIC244     -0.0042
      3  C3        17.4260   20.0040   17.5590 C.ar  244  DIC244     -0.0190
      4  C4        16.5060   18.9160   17.8020 C.ar  244  DIC244      0.0383
      5  C5        16.9790   17.5890   17.8430 C.ar  244  DIC244      0.0030
      6  C6        18.3350   17.3240   17.6550 C.ar  244  DIC244      0.0001
      7  C7        15.0570   19.1720   18.0410 C.2   244  DIC244      0.2338
      8  O7        14.5630   20.1280   18.6510 O.2   244  DIC244     -0.2832
      9  C8        16.9750   21.4990   17.4700 C.3   244  DIC244      0.0265
     10  C9        15.7930   21.7750   16.5080 C.3   244  DIC244      0.0050
@<TRIPOS>BOND
     1    10     9    1
     2     2     1   ar
     3     2     3   ar
     4     1     6   ar
     5     9     3    1
     6     3     4   ar
     7     6     5   ar
     8     4     5   ar
     9     4     7    1
    10     7     8    2
