@<TRIPOS>MOLECULE
1did_DIG_A_1.pdb
 11 11 0 0 0
SMALL
GASTEIGER

@<TRIPOS>ATOM
      1  C1        28.9770   77.7720   13.2220 C.3   400  DIG400      0.2020
      2  O1        29.2330   77.2440   14.3750 O.3   400  DIG400     -0.2188
      3  C2        27.6940   77.4150   12.4730 C.3   400  DIG400      0.1386
      4  C3        27.7280   78.0390   11.0340 C.3   400  DIG400      0.2020
      5  O3        29.0430   78.0010   10.4690 O.3   400  DIG400     -0.2188
      6  C4        26.7290   77.2380   10.2780 C.3   400  DIG400      0.2020
      7  O4        25.6600   78.0090    9.8160 O.3   400  DIG400     -0.2188
      8  C5        26.4010   76.0280   11.1310 C.3   400  DIG400      0.1386
      9  C6        26.3960   74.7280   10.3590 C.3   400  DIG400      0.2020
     10  O6        27.5530   74.0480   10.2360 O.3   400  DIG400     -0.2188
     11  N5        27.4410   76.0350   12.1270 N.3   400  DIG400     -0.2102
@<TRIPOS>BOND
     1     7     6    1
     2    10     9    1
     3     6     4    1
     4     6     8    1
     5     9     8    1
     6     5     4    1
     7     4     3    1
     8     8    11    1
     9    11     3    1
    10     3     1    1
    11     1     2    1
