@<TRIPOS>MOLECULE
1die_NOJ_A_1.pdb
 11 11 0 0 0
SMALL
GASTEIGER

@<TRIPOS>ATOM
      1  C1        24.4870   75.5390   10.4660 C.3   400  NOJ400      0.1243
      2  C2        25.4570   74.5480    9.8030 C.3   400  NOJ400      0.2020
      3  O2        24.8610   73.3490    9.4030 O.3   400  NOJ400     -0.2188
      4  C3        26.6490   74.3760   10.7240 C.3   400  NOJ400      0.2151
      5  O3        27.4850   73.3950   10.1500 O.3   400  NOJ400     -0.2176
      6  C4        27.2630   75.7410   10.8460 C.3   400  NOJ400      0.2031
      7  O4        28.1750   75.7010   11.9560 O.3   400  NOJ400     -0.2187
      8  C5        26.2670   76.8150   11.1930 C.3   400  NOJ400      0.1386
      9  N5        25.1350   76.7210   10.5080 N.3   400  NOJ400     -0.2113
     10  C6        26.9210   78.1820   10.9580 C.3   400  NOJ400      0.2020
     11  O6        26.1190   78.7930    9.7960 O.3   400  NOJ400     -0.2188
@<TRIPOS>BOND
     1     3     2    1
     2    11    10    1
     3     2     1    1
     4     2     4    1
     5     5     4    1
     6     1     9    1
     7     9     8    1
     8     4     6    1
     9     6     8    1
    10     6     7    1
    11    10     8    1
