@<TRIPOS>MOLECULE
1dig_NAP_A_1.pdb
 48 52 0 0 0
SMALL
GASTEIGER

@<TRIPOS>ATOM
      1  PA        -6.0320   47.3230   25.5100 P.3   2001  NAP2001     0.2189
      2  O1A       -7.3680   47.8880   25.8290 O.3   2001  NAP2001    -0.4371
      3  O2A       -6.0890   46.4790   24.2930 O.2   2001  NAP2001    -0.5170
      4  O5B       -5.4490   46.4910   26.7330 O.3   2001  NAP2001    -0.3112
      5  C5B       -5.6770   46.8700   28.0900 C.3   2001  NAP2001     0.1813
      6  C4B       -5.0990   45.7880   29.0050 C.3   2001  NAP2001     0.1820
      7  O4B       -5.1430   46.2150   30.3570 O.3   2001  NAP2001    -0.3136
      8  C3B       -5.9000   44.4960   28.9010 C.3   2001  NAP2001     0.2157
      9  O3B       -5.0040   43.3940   28.8750 O.3   2001  NAP2001    -0.2175
     10  C2B       -6.7470   44.4480   30.1720 C.3   2001  NAP2001     0.2314
     11  O2B       -6.8760   43.0910   30.6340 O.3   2001  NAP2001    -0.2630
     12  C1B       -5.9310   45.3220   31.1500 C.3   2001  NAP2001     0.3158
     13  N9A       -6.7700   46.0830   32.0660 N.pl3 2001  NAP2001    -0.1439
     14  C8A       -8.0500   46.7350   31.7830 C.3   2001  NAP2001     0.3377
     15  N7A       -8.4390   47.3570   32.9750 N.2   2001  NAP2001    -0.2095
     16  C5A       -7.4660   47.0850   33.8790 C.2   2001  NAP2001     0.2526
     17  C6A       -7.5400   47.3340   35.2400 C.2   2001  NAP2001     0.4393
     18  N6A       -8.5070   48.1020   35.7610 N.pl3 2001  NAP2001     0.2180
     19  N1A       -6.5130   46.7680   36.1000 N.2   2001  NAP2001     0.0021
     20  C2A       -5.5120   46.0250   35.5790 C.3   2001  NAP2001     0.5254
     21  N3A       -5.4800   45.8080   34.2490 N.2   2001  NAP2001    -0.0055
     22  C4A       -6.5190   46.3800   33.4190 C.2   2001  NAP2001     0.3518
     23  O3        -4.9570   48.4760   25.3050 O.3   2001  NAP2001    -0.2703
     24  PN        -3.3660   48.5690   25.1210 P.3   2001  NAP2001     0.2189
     25  O1N       -2.9650   48.1090   23.7710 O.2   2001  NAP2001    -0.5170
     26  O2N       -2.6670   47.7770   26.1590 O.3   2001  NAP2001    -0.4371
     27  O5D       -2.9790   50.1100   25.3000 O.3   2001  NAP2001    -0.3112
     28  C5D       -3.0010   50.7320   26.6040 C.3   2001  NAP2001     0.1813
     29  C4D       -2.6050   52.2310   26.5740 C.3   2001  NAP2001     0.1799
     30  O4D       -1.2920   52.4290   26.0530 O.3   2001  NAP2001    -0.3327
     31  C3D       -3.5620   53.1270   25.7900 C.3   2001  NAP2001     0.2158
     32  O3D       -4.0470   54.1540   26.6450 O.3   2001  NAP2001    -0.2175
     33  C2D       -2.6970   53.7430   24.6920 C.3   2001  NAP2001     0.2309
     34  O2D       -2.9950   55.1210   24.5300 O.3   2001  NAP2001    -0.2158
     35  C1D       -1.2770   53.5630   25.1950 C.3   2001  NAP2001     0.2263
     36  N1N       -0.3450   53.3980   24.0930 N.pl3 2001  NAP2001    -0.2787
     37  C2N        0.5850   54.3580   23.8690 C.3   2001  NAP2001     0.1244
     38  C3N        1.4600   54.2500   22.7980 C.2   2001  NAP2001     0.0544
     39  C7N        2.5250   55.3140   22.5460 C.2   2001  NAP2001     0.2818
     40  O7N        2.9110   55.5570   21.4040 O.2   2001  NAP2001    -0.2670
     41  N7N        2.9380   56.0310   23.6020 N.am  2001  NAP2001    -0.0839
     42  C4N        1.3550   53.0510   21.9020 C.2   2001  NAP2001     0.0033
     43  C5N        0.3920   52.1100   22.1920 C.2   2001  NAP2001     0.0157
     44  C6N       -0.4490   52.3050   23.2970 C.2   2001  NAP2001     0.0633
     45  P2B       -7.7370   42.0160   29.8470 P.3   2001  NAP2001     0.5328
     46  O1X       -8.9060   42.6610   29.2030 O.3   2001  NAP2001    -0.1145
     47  O2X       -6.8750   41.3790   28.8280 O.2   2001  NAP2001    -0.2224
     48  O3X       -8.2050   40.9960   30.8120 O.3   2001  NAP2001    -0.1145
@<TRIPOS>BOND
     1    40    39    2
     2    42    43    1
     3    42    38    2
     4    43    44    2
     5    39    38    1
     6    39    41   am
     7    38    37    1
     8    44    36    1
     9    25    24    2
    10    37    36    1
    11    36    35    1
    12     3     1    2
    13    34    33    1
    14    33    35    1
    15    33    31    1
    16    24    27    1
    17    24    23    1
    18    24    26    1
    19    35    30    1
    20    27    28    1
    21    23     1    1
    22     1     2    1
    23     1     4    1
    24    31    29    1
    25    31    32    1
    26    30    29    1
    27    29    28    1
    28     4     5    1
    29     5     6    1
    30    47    45    2
    31     9     8    1
    32     8     6    1
    33     8    10    1
    34     6     7    1
    35    46    45    1
    36    45    11    1
    37    45    48    1
    38    10    11    1
    39    10    12    1
    40     7    12    1
    41    12    13    1
    42    14    13    1
    43    14    15    1
    44    13    22    1
    45    15    16    2
    46    22    16    1
    47    22    21    2
    48    16    17    1
    49    21    20    1
    50    17    18    1
    51    17    19    2
    52    20    19    1
