@<TRIPOS>MOLECULE
1dig_L37_A_1.pdb
 31 32 0 0 0
SMALL
GASTEIGER

@<TRIPOS>ATOM
      1  N2A       -3.7370   50.0230   18.9620 N.pl3 3001  L373001    -0.0226
      2  N1        -2.0910   51.7180   18.5550 N.2   3001  L373001    -0.3055
      3  C2        -3.2150   51.1860   19.3080 C.1   3001  L373001     0.2532
      4  N3        -3.5980   51.7550   20.5160 N.2   3001  L373001    -0.2484
      5  C4        -3.0310   52.8830   20.9590 C.1   3001  L373001     0.2394
      6  O4A       -3.3770   53.3700   22.0590 O.2   3001  L373001    -0.2068
      7  N5A       -1.5580   54.7530   20.5530 N.2   3001  L373001    -0.1300
      8  C5        -1.9650   53.5920   20.1110 C.2   3001  L373001     0.2437
      9  C6        -1.5370   52.9590   18.8490 C.2   3001  L373001     0.2526
     10  N7        -0.6220   53.4720   17.8960 N.am  3001  L373001    -0.1275
     11  C8         0.1110   54.5800   18.1170 C.2   3001  L373001     0.3500
     12  O8A        0.8230   54.9360   17.2020 O.2   3001  L373001    -0.2484
     13  N9         0.2080   55.1080   19.3350 N.am  3001  L373001    -0.1606
     14  C1B        0.8910   56.3060   19.5510 C.ar  3001  L373001     0.0750
     15  C2B        1.8920   56.7930   18.7070 C.ar  3001  L373001     0.0168
     16  C3B        2.5390   58.0050   19.0200 C.ar  3001  L373001     0.0059
     17  C4B        2.1410   58.7130   20.1830 C.ar  3001  L373001     0.0551
     18  C5B        1.1470   58.2050   20.9830 C.ar  3001  L373001     0.0059
     19  C6B        0.5300   57.0430   20.6720 C.ar  3001  L373001     0.0168
     20  C7B        2.8270   59.9810   20.6800 C.2   3001  L373001     0.2652
     21  O7B        3.7530   60.4670   20.0450 O.2   3001  L373001    -0.2684
     22  N          2.5190   60.4220   21.9060 N.am  3001  L373001    -0.1918
     23  CA         3.3160   61.4550   22.5940 C.3   3001  L373001     0.1986
     24  CB         2.6000   62.7920   22.6730 C.3   3001  L373001     0.0451
     25  CG         1.5380   63.0790   21.6830 C.3   3001  L373001     0.1164
     26  CD         0.7000   64.2340   22.1670 C.2   3001  L373001     0.3649
     27  OE1       -0.4170   63.9840   22.6620 O.co2 3001  L373001    -0.2457
     28  OE2        1.1800   65.3860   22.1060 O.co2 3001  L373001    -0.2457
     29  C          3.6470   61.1100   24.0340 C.2   3001  L373001     0.3842
     30  O          3.0650   60.1460   24.5610 O.co2 3001  L373001    -0.2437
     31  OXT        4.4100   61.8800   24.6510 O.co2 3001  L373001    -0.2437
@<TRIPOS>BOND
     1    12    11    2
     2    10    11   am
     3    10     9    1
     4    11    13   am
     5     2     9    2
     6     2     3    2
     7    15    16   ar
     8    15    14   ar
     9     9     8    1
    10     1     3    1
    11    16    17   ar
    12     3     4    2
    13    13    14    1
    14    14    19   ar
    15    21    20    2
    16     8     7    2
    17     8     5    1
    18    17    20    1
    19    17    18   ar
    20     4     5    2
    21    19    18   ar
    22    20    22   am
    23     5     6    2
    24    25    26    1
    25    25    24    1
    26    22    23    1
    27    28    26   ar
    28    26    27   ar
    29    23    24    1
    30    23    29    1
    31    29    30   ar
    32    29    31   ar
