@<TRIPOS>MOLECULE
1dih_NDP_A_1.pdb
 48 52 0 0 0
SMALL
GASTEIGER

@<TRIPOS>ATOM
      1  PA        29.9390   10.6940   17.4930 P.3   301  NDP301      0.2189
      2  O1A       30.6180    9.4230   17.8140 O.3   301  NDP301     -0.4371
      3  O2A       30.7570   11.8380   17.0670 O.2   301  NDP301     -0.5170
      4  O5B       29.0430   10.3470   16.2330 O.3   301  NDP301     -0.3112
      5  C5B       27.7720   10.8680   15.9070 C.3   301  NDP301      0.1813
      6  C4B       27.1770    9.9730   14.8190 C.3   301  NDP301      0.1820
      7  O4B       26.0030   10.5680   14.2300 O.3   301  NDP301     -0.3136
      8  C3B       28.0950    9.7000   13.6470 C.3   301  NDP301      0.2157
      9  O3B       27.7430    8.4960   13.0810 O.3   301  NDP301     -0.2175
     10  C2B       27.7470   10.8110   12.6750 C.3   301  NDP301      0.2314
     11  O2B       28.1220   10.5110   11.3260 O.3   301  NDP301     -0.2630
     12  C1B       26.2340   10.8030   12.8570 C.3   301  NDP301      0.3158
     13  N9A       25.6290   12.0730   12.5480 N.pl3 301  NDP301     -0.1439
     14  C8A       26.0980   13.2360   13.0210 C.3   301  NDP301      0.3377
     15  N7A       25.3650   14.2540   12.6980 N.2   301  NDP301     -0.2095
     16  C5A       24.3140   13.6860   12.0200 C.2   301  NDP301      0.2526
     17  C6A       23.2630   14.2500   11.3190 C.2   301  NDP301      0.4393
     18  N6A       23.0130   15.5610   11.3030 N.pl3 301  NDP301      0.2180
     19  N1A       22.4430   13.4180   10.6760 N.2   301  NDP301      0.0021
     20  C2A       22.7280   12.1190   10.6590 C.3   301  NDP301      0.5254
     21  N3A       23.7150   11.4750   11.2930 N.2   301  NDP301     -0.0055
     22  C4A       24.4390   12.3280   11.9700 C.2   301  NDP301      0.3518
     23  O3        29.0940   10.7990   18.7020 O.3   301  NDP301     -0.2703
     24  PN        28.7880    9.7770   19.7170 P.3   301  NDP301      0.2189
     25  O1N       29.9190   10.0240   20.6440 O.3   301  NDP301     -0.4371
     26  O2N       28.5050    8.4160   19.2420 O.2   301  NDP301     -0.5170
     27  O5D       27.4960   10.2800   20.5550 O.3   301  NDP301     -0.3112
     28  C5D       26.2470   10.1510   19.9530 C.3   301  NDP301      0.1813
     29  C4D       25.2100   11.0500   20.5810 C.3   301  NDP301      0.1799
     30  O4D       24.6650   10.3700   21.7110 O.3   301  NDP301     -0.3327
     31  C3D       25.6940   12.3770   21.1000 C.3   301  NDP301      0.2158
     32  O3D       24.5970   13.3040   21.0580 O.3   301  NDP301     -0.2175
     33  C2D       26.0180   12.0420   22.5500 C.3   301  NDP301      0.2309
     34  O2D       25.9810   13.2050   23.3790 O.3   301  NDP301     -0.2158
     35  C1D       24.9070   11.0750   22.9010 C.3   301  NDP301      0.2263
     36  N1N       25.3360   10.1100   23.9210 N.pl3 301  NDP301     -0.2787
     37  C2N       24.2980    9.9860   24.7720 C.3   301  NDP301      0.1244
     38  C3N       24.2760    9.2870   25.9190 C.2   301  NDP301      0.0544
     39  C7N       23.1270    9.0100   26.6370 C.2   301  NDP301      0.2818
     40  O7N       23.1290    7.9330   27.5930 O.2   301  NDP301     -0.2670
     41  N7N       22.0460    9.6690   26.2500 N.am  301  NDP301     -0.0839
     42  C4N       25.4360    8.6220   26.1350 C.2   301  NDP301      0.0033
     43  C5N       26.5390    8.6150   25.2950 C.2   301  NDP301      0.0157
     44  C6N       26.4820    9.4210   24.1610 C.2   301  NDP301      0.0633
     45  P2B       29.2420   11.4020   10.5020 P.3   301  NDP301      0.5328
     46  O1X       28.5060   12.4590    9.7770 O.3   301  NDP301     -0.1145
     47  O2X       30.3690   11.8120   11.4030 O.3   301  NDP301     -0.1145
     48  O3X       30.0260   10.4910    9.6310 O.2   301  NDP301     -0.2224
@<TRIPOS>BOND
     1    48    45    2
     2    46    45    1
     3    45    11    1
     4    45    47    1
     5    20    19    1
     6    20    21    1
     7    19    17    2
     8    21    22    2
     9    18    17    1
    10    17    16    1
    11    11    10    1
    12    22    16    1
    13    22    13    1
    14    16    15    2
    15    13    12    1
    16    13    14    1
    17    10    12    1
    18    10     8    1
    19    15    14    1
    20    12     7    1
    21     9     8    1
    22     8     6    1
    23     7     6    1
    24     6     5    1
    25     5     4    1
    26     4     1    1
    27     3     1    2
    28     1     2    1
    29     1    23    1
    30    23    24    1
    31    26    24    2
    32    24    27    1
    33    24    25    1
    34    28    27    1
    35    28    29    1
    36    29    31    1
    37    29    30    1
    38    32    31    1
    39    31    33    1
    40    30    35    1
    41    33    35    1
    42    33    34    1
    43    35    36    1
    44    36    44    1
    45    36    37    1
    46    44    43    2
    47    37    38    1
    48    43    42    1
    49    38    42    2
    50    38    39    1
    51    41    39   am
    52    39    40    2
