@<TRIPOS>MOLECULE
1dii_HEM_C_1.pdb
 43 50 0 0 0
SMALL
GASTEIGER

@<TRIPOS>ATOM
      1 FE        107.5150   34.5490  -48.5700 Fe    699  HEM699      0.0000
      2  CHA      110.8670   34.0850  -48.9050 C.2   699  HEM699      0.0000
      3  CHB      107.0020   33.6210  -51.8060 C.2   699  HEM699      0.0000
      4  CHC      104.1070   34.9410  -48.1720 C.2   699  HEM699      0.0000
      5  CHD      107.9650   35.5790  -45.3780 C.2   699  HEM699      0.0000
      6  NA       108.7090   33.9560  -50.0860 N.ar  699  HEM699      0.0000
      7  C1A      110.0810   33.8230  -50.0300 C.ar  699  HEM699      0.0000
      8  C2A      110.5510   33.3710  -51.3500 C.ar  699  HEM699      0.0000
      9  C3A      109.4800   33.2440  -52.1520 C.ar  699  HEM699      0.0000
     10  C4A      108.3030   33.6070  -51.3760 C.ar  699  HEM699      0.0000
     11  CMA      109.4470   32.8050  -53.6240 C.3   699  HEM699      0.0000
     12  CAA      112.0160   33.1210  -51.6890 C.3   699  HEM699      0.0000
     13  CBA      112.6620   34.4450  -52.1110 C.3   699  HEM699      0.0000
     14  CGA      114.0560   34.3170  -52.6670 C.2   699  HEM699      0.0000
     15  O1A      114.5860   35.4220  -53.0510 O.co2 699  HEM699      0.0000
     16  O2A      114.5800   33.1970  -52.7250 O.co2 699  HEM699      0.0000
     17  NB       105.8800   34.3380  -49.7510 N.2   699  HEM699      0.0000
     18  C1B      105.8910   33.9450  -51.0820 C.2   699  HEM699      0.0000
     19  C2B      104.5410   33.9380  -51.6010 C.2   699  HEM699      0.0000
     20  C3B      103.7180   34.3030  -50.5710 C.2   699  HEM699      0.0000
     21  C4B      104.5430   34.5420  -49.4280 C.2   699  HEM699      0.0000
     22  CMB      104.1650   33.5820  -53.0410 C.3   699  HEM699      0.0000
     23  CAB      102.1850   34.4600  -50.5500 C.3   699  HEM699      0.0000
     24  CBB      101.4240   33.1560  -50.8930 C.3   699  HEM699      0.0000
     25  NC       106.3060   35.1290  -47.0690 N.ar  699  HEM699      0.0000
     26  C1C      104.9150   35.2280  -47.0910 C.ar  699  HEM699      0.0000
     27  C2C      104.4200   35.7150  -45.8090 C.ar  699  HEM699      0.0000
     28  C3C      105.5070   35.9210  -45.0480 C.ar  699  HEM699      0.0000
     29  C4C      106.6710   35.5470  -45.8160 C.ar  699  HEM699      0.0000
     30  CMC      102.9230   35.9590  -45.4720 C.3   699  HEM699      0.0000
     31  CAC      105.6070   36.4920  -43.6280 C.3   699  HEM699      0.0000
     32  CBC      104.9500   35.6710  -42.5240 C.3   699  HEM699      0.0000
     33  ND       109.0820   34.7780  -47.3830 N.2   699  HEM699      0.0000
     34  C1D      109.0860   35.2230  -46.0550 C.2   699  HEM699      0.0000
     35  C2D      110.4330   35.2410  -45.5280 C.2   699  HEM699      0.0000
     36  C3D      111.2510   34.8100  -46.5070 C.2   699  HEM699      0.0000
     37  C4D      110.4220   34.5320  -47.6740 C.2   699  HEM699      0.0000
     38  CMD      110.8320   35.6660  -44.0880 C.3   699  HEM699      0.0000
     39  CAD      112.7530   34.6500  -46.3730 C.3   699  HEM699      0.0000
     40  CBD      113.0040   33.1990  -45.8560 C.3   699  HEM699      0.0000
     41  CGD      114.4450   32.9020  -45.6430 C.2   699  HEM699      0.0000
     42  O1D      115.2730   33.1140  -46.5540 O.co2 699  HEM699      0.0000
     43  O2D      114.7020   32.4410  -44.5100 O.co2 699  HEM699      0.0000
@<TRIPOS>BOND
     1    11     9    1
     2    15    14   ar
     3    22    19    1
     4    16    14   ar
     5    14    13    1
     6     9    10   ar
     7     9     8   ar
     8    13    12    1
     9     3    10    2
    10     3    18    1
    11    12     8    1
    12    19    18    1
    13    19    20    2
    14    10     6   ar
    15     8     7   ar
    16    18    17    2
    17    24    23    1
    18    20    23    1
    19    20    21    1
    20     6     7   ar
    21     6     1    1
    22     7     2    2
    23    17    21    1
    24    17     1    1
    25    21     4    2
    26     2    37    1
    27     1    33    1
    28     1    25    1
    29     4    26    1
    30    37    33    2
    31    37    36    1
    32    33    34    1
    33    26    25   ar
    34    26    27   ar
    35    25    29   ar
    36    42    41   ar
    37    36    39    1
    38    36    35    2
    39    39    40    1
    40    34    35    1
    41    34     5    2
    42    40    41    1
    43    29     5    1
    44    29    28   ar
    45    27    30    1
    46    27    28   ar
    47    41    43   ar
    48    35    38    1
    49    28    31    1
    50    31    32    1
