@<TRIPOS>MOLECULE
1dil_AXP_A_1.pdb
 21 21 0 0 0
SMALL
GASTEIGER

@<TRIPOS>ATOM
      1  P1        43.2890   52.3560   45.7550 P.3   384  AXP384      0.1441
      2  C2        42.8600   51.7150   47.3950 C.3   384  AXP384      0.1689
      3  C3        41.5450   51.0350   47.6660 C.3   384  AXP384      0.0718
      4  C4        41.4080   50.4230   49.0990 C.3   384  AXP384      0.1772
      5  C5        42.5350   50.9090   50.0040 C.3   384  AXP384      0.1552
      6  C6        43.8770   50.5540   49.3740 C.3   384  AXP384      0.1708
      7  C7        45.1370   51.0000   50.1480 C.3   384  AXP384      0.2134
      8  C8        46.3900   50.8010   49.2660 C.3   384  AXP384      0.2173
      9  C9        47.6440   51.1900   50.0390 C.3   384  AXP384      0.2175
     10  C10       42.8170   50.7400   52.4060 C.2   384  AXP384      0.2420
     11  C11       42.5550   49.8950   53.6470 C.3   384  AXP384      0.0964
     12  N5        42.3690   50.2400   51.2580 N.am  384  AXP384     -0.2020
     13  O1P       44.5810   51.9310   45.2690 O.3   384  AXP384     -0.3556
     14  O2P       42.1120   52.1890   44.8180 O.2   384  AXP384     -0.4577
     15  O3P       43.6390   53.8570   46.1410 O.3   384  AXP384     -0.3556
     16  O4        40.1810   50.7790   49.6790 O.3   384  AXP384     -0.2211
     17  O6        43.9740   51.1510   48.0590 O.3   384  AXP384     -0.3468
     18  O7        45.0070   52.3590   50.5180 O.3   384  AXP384     -0.2176
     19  O8        46.4820   49.4430   48.8630 O.3   384  AXP384     -0.2175
     20  O9        47.8400   50.2590   51.0810 O.3   384  AXP384     -0.2175
     21  O10       43.4160   51.8130   52.4770 O.2   384  AXP384     -0.2733
@<TRIPOS>BOND
     1    14     1    2
     2    13     1    1
     3     1    15    1
     4     1     2    1
     5     2     3    1
     6     2    17    1
     7     3     4    1
     8    17     6    1
     9    19     8    1
    10     4    16    1
    11     4     5    1
    12     8     9    1
    13     8     7    1
    14     6     5    1
    15     6     7    1
    16     5    12    1
    17     9    20    1
    18     7    18    1
    19    12    10   am
    20    10    21    2
    21    10    11    1
