@<TRIPOS>MOLECULE
1dil_EQP_A_1.pdb
 21 21 0 0 0
SMALL
GASTEIGER

@<TRIPOS>ATOM
      1  P1        43.2930   52.1570   45.6690 P.3   383  EQP383      0.1441
      2  C2        42.9600   51.3340   47.2390 C.3   383  EQP383      0.1689
      3  C3        41.5400   51.5400   47.8240 C.3   383  EQP383      0.0718
      4  C4        41.3550   50.6960   49.1140 C.3   383  EQP383      0.1772
      5  C5        42.4560   51.0870   50.0910 C.3   383  EQP383      0.1552
      6  C6        43.8330   50.8610   49.4580 C.3   383  EQP383      0.1708
      7  C7        45.0910   51.0950   50.2810 C.3   383  EQP383      0.2134
      8  C8        46.2960   50.8080   49.3550 C.3   383  EQP383      0.2173
      9  C9        47.5840   50.9990   50.1420 C.3   383  EQP383      0.2175
     10  C10       42.6690   50.6880   52.4430 C.2   383  EQP383      0.2420
     11  C11       42.4480   49.7530   53.6240 C.3   383  EQP383      0.0964
     12  N5        42.2810   50.2600   51.2450 N.am  383  EQP383     -0.2020
     13  O1P       42.1480   52.2200   44.7950 O.2   383  EQP383     -0.4577
     14  O2P       43.1970   53.6300   46.1720 O.3   383  EQP383     -0.3556
     15  O3P       44.7170   51.8090   45.2090 O.3   383  EQP383     -0.3556
     16  O4        40.0840   50.8750   49.6960 O.3   383  EQP383     -0.2211
     17  O6        43.9230   51.7120   48.2690 O.3   383  EQP383     -0.3468
     18  O7        45.0730   52.4130   50.7730 O.3   383  EQP383     -0.2176
     19  O8        46.2140   49.4760   48.8340 O.3   383  EQP383     -0.2175
     20  O9        47.5880   50.1270   51.2380 O.3   383  EQP383     -0.2175
     21  O10       43.2080   51.7810   52.6100 O.2   383  EQP383     -0.2733
@<TRIPOS>BOND
     1    13     1    2
     2    15     1    1
     3     1    14    1
     4     1     2    1
     5     2     3    1
     6     2    17    1
     7     3     4    1
     8    17     6    1
     9    19     8    1
    10     4    16    1
    11     4     5    1
    12     8     9    1
    13     8     7    1
    14     6     5    1
    15     6     7    1
    16     5    12    1
    17     9    20    1
    18     7    18    1
    19    12    10   am
    20    10    21    2
    21    10    11    1
