@<TRIPOS>MOLECULE
1dim_EQP_A_1.pdb
 21 21 0 0 0
SMALL
GASTEIGER

@<TRIPOS>ATOM
      1  P1        43.2710   52.2340   45.7000 P.3     1  EQP1        0.1441
      2  C2        42.9460   51.2780   47.1550 C.3     1  EQP1        0.1689
      3  C3        41.5190   51.3600   47.7160 C.3     1  EQP1        0.0718
      4  C4        41.3970   50.5460   49.0320 C.3     1  EQP1        0.1772
      5  C5        42.5110   50.9730   50.0210 C.3     1  EQP1        0.1552
      6  C6        43.8700   50.7390   49.3270 C.3     1  EQP1        0.1708
      7  C7        45.1110   51.0140   50.1400 C.3     1  EQP1        0.2134
      8  C8        46.3520   50.7680   49.2210 C.3     1  EQP1        0.2173
      9  C9        47.6300   51.0760   49.9820 C.3     1  EQP1        0.2175
     10  C10       42.6710   50.6730   52.4180 C.2     1  EQP1        0.2420
     11  C11       42.3980   49.7670   53.6090 C.3     1  EQP1        0.0964
     12  N5        42.3280   50.1810   51.2280 N.am    1  EQP1       -0.2020
     13  O1P       42.1680   52.2530   44.7620 O.2     1  EQP1       -0.4577
     14  O2P       43.3180   53.7060   46.2080 O.3     1  EQP1       -0.3556
     15  O3P       44.5380   51.7250   45.0960 O.3     1  EQP1       -0.3556
     16  O4        40.1220   50.7580   49.6260 O.3     1  EQP1       -0.2211
     17  O6        43.9010   51.5860   48.1500 O.3     1  EQP1       -0.3468
     18  O7        45.0660   52.3180   50.6360 O.3     1  EQP1       -0.2176
     19  O8        46.3430   49.4190   48.7910 O.3     1  EQP1       -0.2175
     20  O9        47.7200   50.2130   51.1100 O.3     1  EQP1       -0.2175
     21  O10       43.2540   51.7460   52.5430 O.2     1  EQP1       -0.2733
@<TRIPOS>BOND
     1    13     1    2
     2    15     1    1
     3     1    14    1
     4     1     2    1
     5     2     3    1
     6     2    17    1
     7     3     4    1
     8    17     6    1
     9    19     8    1
    10     4    16    1
    11     4     5    1
    12     8     9    1
    13     8     7    1
    14     6     5    1
    15     6     7    1
    16     9    20    1
    17     5    12    1
    18     7    18    1
    19    12    10   am
    20    10    21    2
    21    10    11    1
