@<TRIPOS>MOLECULE
1diq_HEM_C_1.pdb
 43 50 0 0 0
SMALL
GASTEIGER

@<TRIPOS>ATOM
      1 FE        106.5610   34.2350  -48.7660 Fe    699  HEM699      0.0000
      2  CHA      109.9080   33.7730  -49.1340 C.2   699  HEM699      0.0000
      3  CHB      106.0450   33.3780  -52.0310 C.2   699  HEM699      0.0000
      4  CHC      103.1740   34.6530  -48.3820 C.2   699  HEM699      0.0000
      5  CHD      107.0150   35.2260  -45.5620 C.2   699  HEM699      0.0000
      6  NA       107.7550   33.6710  -50.2950 N.ar  699  HEM699      0.0000
      7  C1A      109.1250   33.5380  -50.2430 C.ar  699  HEM699      0.0000
      8  C2A      109.5970   33.1210  -51.5540 C.ar  699  HEM699      0.0000
      9  C3A      108.5200   33.0120  -52.3670 C.ar  699  HEM699      0.0000
     10  C4A      107.3470   33.3530  -51.5930 C.ar  699  HEM699      0.0000
     11  CMA      108.4850   32.6140  -53.8470 C.3   699  HEM699      0.0000
     12  CAA      111.0760   32.8810  -51.8850 C.3   699  HEM699      0.0000
     13  CBA      111.7220   34.1830  -52.3700 C.3   699  HEM699      0.0000
     14  CGA      113.1570   34.0510  -52.8130 C.2   699  HEM699      0.0000
     15  O1A      113.7470   35.1560  -53.1140 O.co2 699  HEM699      0.0000
     16  O2A      113.6580   32.9210  -52.8750 O.co2 699  HEM699      0.0000
     17  NB       104.9260   34.0650  -49.9530 N.2   699  HEM699      0.0000
     18  C1B      104.9310   33.6980  -51.3000 C.2   699  HEM699      0.0000
     19  C2B      103.5750   33.7160  -51.8160 C.2   699  HEM699      0.0000
     20  C3B      102.7660   34.0660  -50.7820 C.2   699  HEM699      0.0000
     21  C4B      103.6020   34.2750  -49.6330 C.2   699  HEM699      0.0000
     22  CMB      103.1830   33.3970  -53.2620 C.3   699  HEM699      0.0000
     23  CAB      101.2330   34.2410  -50.7530 C.3   699  HEM699      0.0000
     24  CBB      100.4590   32.9620  -51.0850 C.3   699  HEM699      0.0000
     25  NC       105.3550   34.8050  -47.2670 N.ar  699  HEM699      0.0000
     26  C1C      103.9710   34.9120  -47.3020 C.ar  699  HEM699      0.0000
     27  C2C      103.4580   35.3810  -46.0230 C.ar  699  HEM699      0.0000
     28  C3C      104.5360   35.5750  -45.2310 C.ar  699  HEM699      0.0000
     29  C4C      105.7170   35.2050  -45.9980 C.ar  699  HEM699      0.0000
     30  CMC      101.9590   35.6140  -45.7230 C.3   699  HEM699      0.0000
     31  CAC      104.6010   36.1210  -43.7880 C.3   699  HEM699      0.0000
     32  CBC      103.8420   35.3010  -42.7420 C.3   699  HEM699      0.0000
     33  ND       108.1280   34.4440  -47.5940 N.2   699  HEM699      0.0000
     34  C1D      108.1410   34.8780  -46.2610 C.2   699  HEM699      0.0000
     35  C2D      109.5030   34.8870  -45.7540 C.2   699  HEM699      0.0000
     36  C3D      110.3080   34.4620  -46.7580 C.2   699  HEM699      0.0000
     37  C4D      109.4670   34.2020  -47.9040 C.2   699  HEM699      0.0000
     38  CMD      109.9290   35.3030  -44.3240 C.3   699  HEM699      0.0000
     39  CAD      111.8150   34.3000  -46.6720 C.3   699  HEM699      0.0000
     40  CBD      112.1190   32.8910  -46.1180 C.3   699  HEM699      0.0000
     41  CGD      113.5800   32.6600  -45.9790 C.2   699  HEM699      0.0000
     42  O1D      114.3350   32.8600  -46.9590 O.co2 699  HEM699      0.0000
     43  O2D      113.9320   32.2660  -44.8360 O.co2 699  HEM699      0.0000
@<TRIPOS>BOND
     1    11     9    1
     2    22    19    1
     3    15    14   ar
     4    16    14   ar
     5    14    13    1
     6    13    12    1
     7     9    10   ar
     8     9     8   ar
     9     3    10    2
    10     3    18    1
    11    12     8    1
    12    19    18    1
    13    19    20    2
    14    10     6   ar
    15     8     7   ar
    16    18    17    2
    17    24    23    1
    18    20    23    1
    19    20    21    1
    20     6     7   ar
    21     6     1    1
    22     7     2    2
    23    17    21    1
    24    17     1    1
    25    21     4    2
    26     2    37    1
    27     1    33    1
    28     1    25    1
    29     4    26    1
    30    37    33    2
    31    37    36    1
    32    33    34    1
    33    26    25   ar
    34    26    27   ar
    35    25    29   ar
    36    42    41   ar
    37    36    39    1
    38    36    35    2
    39    39    40    1
    40    34    35    1
    41    34     5    2
    42    40    41    1
    43    27    30    1
    44    27    28   ar
    45    29     5    1
    46    29    28   ar
    47    41    43   ar
    48    35    38    1
    49    28    31    1
    50    31    32    1
