@<TRIPOS>MOLECULE
1diw_GAL_A_1.pdb
 12 12 0 0 0
SMALL
GASTEIGER

@<TRIPOS>ATOM
      1  C1        -3.5430   27.1300   76.6220 C.3   1400  GAL1400     0.3024
      2  C2        -3.3900   25.6610   76.9720 C.3   1400  GAL1400     0.2434
      3  C3        -3.3640   24.8090   75.7150 C.3   1400  GAL1400     0.2199
      4  C4        -4.4850   25.2090   74.7670 C.3   1400  GAL1400     0.2144
      5  C5        -4.4140   26.7050   74.4360 C.3   1400  GAL1400     0.1836
      6  C6        -5.4920   27.1090   73.4610 C.3   1400  GAL1400     0.2142
      7  O1        -3.8560   27.7430   77.8530 O.3   1400  GAL1400    -0.1869
      8  O2        -2.2760   25.5080   77.8810 O.3   1400  GAL1400    -0.2148
      9  O3        -3.4040   23.4200   76.0510 O.3   1400  GAL1400    -0.2174
     10  O4        -5.7660   25.0020   75.3550 O.3   1400  GAL1400    -0.2176
     11  O5        -4.5820   27.3990   75.7020 O.3   1400  GAL1400    -0.3236
     12  O6        -6.1180   26.0300   72.7630 O.3   1400  GAL1400    -0.2176
@<TRIPOS>BOND
     1    12     6    1
     2     6     5    1
     3     5     4    1
     4     5    11    1
     5     4    10    1
     6     4     3    1
     7    11     1    1
     8     3     9    1
     9     3     2    1
    10     1     2    1
    11     1     7    1
    12     2     8    1
