@<TRIPOS>MOLECULE
1diy_COH_A_1.pdb
 43 50 0 0 0
SMALL
GASTEIGER

@<TRIPOS>ATOM
      1 CO        242.2580   90.4610  -42.9050 Co.oh 601  COH601      0.0000
      2  CHA      239.3080   90.7010  -41.4060 C.2   601  COH601      0.0000
      3  CHB      241.1650   87.7130  -44.6570 C.2   601  COH601      0.0000
      4  CHC      245.2310   90.1970  -44.4110 C.2   601  COH601      0.0000
      5  CHD      243.4520   93.1780  -41.1480 C.2   601  COH601      0.0000
      6  NA       240.5900   89.3860  -43.0540 N.ar  601  COH601      0.0000
      7  C1A      239.4050   89.6490  -42.3210 C.ar  601  COH601      0.0000
      8  C2A      238.3090   88.6440  -42.6520 C.ar  601  COH601      0.0000
      9  C3A      238.8650   87.7540  -43.6230 C.ar  601  COH601      0.0000
     10  C4A      240.2950   88.2910  -43.8160 C.ar  601  COH601      0.0000
     11  CMA      238.2220   86.5470  -44.3120 C.3   601  COH601      0.0000
     12  CAA      236.8250   88.5180  -42.0710 C.3   601  COH601      0.0000
     13  CBA      235.7290   89.3180  -42.8270 C.3   601  COH601      0.0000
     14  CGA      235.9310   90.8460  -42.8300 C.2   601  COH601      0.0000
     15  O1A      235.9760   91.4600  -41.7120 O.co2 601  COH601      0.0000
     16  O2A      236.0030   91.4490  -43.9320 O.co2 601  COH601      0.0000
     17  NB       243.0070   89.2290  -44.2240 N.2   601  COH601      0.0000
     18  C1B      242.4490   88.1150  -44.8800 C.2   601  COH601      0.0000
     19  C2B      243.3730   87.4420  -45.8120 C.2   601  COH601      0.0000
     20  C3B      244.5340   88.1500  -45.7400 C.2   601  COH601      0.0000
     21  C4B      244.2980   89.2400  -44.7690 C.2   601  COH601      0.0000
     22  CMB      243.0660   86.2260  -46.6540 C.3   601  COH601      0.0000
     23  CAB      245.7870   87.8840  -46.4840 C.3   601  COH601      0.0000
     24  CBB      246.5280   86.7160  -46.3900 C.3   601  COH601      0.0000
     25  NC       243.9670   91.5220  -42.7750 N.ar  601  COH601      0.0000
     26  C1C      245.0970   91.2390  -43.5140 C.ar  601  COH601      0.0000
     27  C2C      246.1600   92.1960  -43.2190 C.ar  601  COH601      0.0000
     28  C3C      245.6330   93.0550  -42.2660 C.ar  601  COH601      0.0000
     29  C4C      244.3150   92.5890  -42.0370 C.ar  601  COH601      0.0000
     30  CMC      247.5700   92.2620  -43.9080 C.3   601  COH601      0.0000
     31  CAC      246.2090   94.1920  -41.5910 C.3   601  COH601      0.0000
     32  CBC      246.6730   95.4210  -42.1840 C.3   601  COH601      0.0000
     33  ND       241.5800   91.6940  -41.5610 N.2   601  COH601      0.0000
     34  C1D      242.1230   92.7440  -40.9120 C.2   601  COH601      0.0000
     35  C2D      241.1340   93.4040  -39.9070 C.2   601  COH601      0.0000
     36  C3D      239.9950   92.6720  -40.0460 C.2   601  COH601      0.0000
     37  C4D      240.2470   91.6350  -41.0250 C.2   601  COH601      0.0000
     38  CMD      241.5230   94.6060  -39.0480 C.3   601  COH601      0.0000
     39  CAD      238.5860   92.9150  -39.4170 C.3   601  COH601      0.0000
     40  CBD      238.2480   92.0420  -38.2080 C.3   601  COH601      0.0000
     41  CGD      239.0080   92.3720  -36.9750 C.2   601  COH601      0.0000
     42  O1D      240.1090   91.7950  -36.7680 O.co2 601  COH601      0.0000
     43  O2D      238.5030   93.2020  -36.2120 O.co2 601  COH601      0.0000
@<TRIPOS>BOND
     1    22    19    1
     2    23    24    1
     3    23    20    1
     4    19    20    2
     5    19    18    1
     6    20    21    1
     7    18     3    1
     8    18    17    2
     9    21     4    2
    10    21    17    1
    11     3    10    2
    12     4    26    1
    13    11     9    1
    14    17     1    1
    15    16    14   ar
    16    30    27    1
    17    10     9   ar
    18    10     6   ar
    19     9     8   ar
    20    26    27   ar
    21    26    25   ar
    22    27    28   ar
    23     6     1    1
    24     6     7   ar
    25     1    25    1
    26     1    33    1
    27    14    13    1
    28    14    15   ar
    29    13    12    1
    30    25    29   ar
    31     8     7   ar
    32     8    12    1
    33     7     2    2
    34    28    29   ar
    35    28    31    1
    36    32    31    1
    37    29     5    1
    38    33    37    2
    39    33    34    1
    40     2    37    1
    41     5    34    2
    42    37    36    1
    43    34    35    1
    44    36    35    2
    45    36    39    1
    46    35    38    1
    47    39    40    1
    48    40    41    1
    49    41    42   ar
    50    41    43   ar
