@<TRIPOS>MOLECULE
1diy_ACD_A_1.pdb
 22 21 0 0 0
SMALL
GASTEIGER

@<TRIPOS>ATOM
      1  C1       253.6140  110.9930  -37.5160 C.2   700  ACD700      0.3649
      2  C2       253.0090  109.9480  -38.4350 C.3   700  ACD700      0.1144
      3  C3       253.9830  108.8310  -38.7570 C.3   700  ACD700      0.0165
      4  C4       253.2490  107.6340  -39.3120 C.3   700  ACD700      0.0263
      5  C5       252.6230  107.7040  -40.6350 C.2   700  ACD700     -0.0304
      6  C6       251.4570  107.0280  -40.9000 C.2   700  ACD700     -0.0260
      7  C7       250.7740  106.2080  -39.8530 C.3   700  ACD700      0.0513
      8  C8       249.2510  106.1400  -39.8630 C.2   700  ACD700     -0.0257
      9  C9       248.5640  105.2450  -39.0470 C.2   700  ACD700     -0.0257
     10  C10      249.3140  104.2990  -38.1300 C.3   700  ACD700      0.0513
     11  C11      250.1820  103.2390  -38.7470 C.2   700  ACD700     -0.0257
     12  C12      250.5100  102.0990  -38.0460 C.2   700  ACD700     -0.0257
     13  C13      249.9830  101.8690  -36.6260 C.3   700  ACD700      0.0513
     14  C14      250.8720  101.1590  -35.6320 C.2   700  ACD700     -0.0260
     15  C15      250.5650  101.1100  -34.2880 C.2   700  ACD700     -0.0304
     16  C16      249.3510  101.7700  -33.7870 C.3   700  ACD700      0.0257
     17  C17      248.3750  101.0330  -32.8730 C.3   700  ACD700      0.0047
     18  C18      248.8990  100.7970  -31.4570 C.3   700  ACD700      0.0003
     19  C19      247.7850  100.2350  -30.5500 C.3   700  ACD700      0.0000
     20  C20      246.6280  101.2300  -30.2680 C.3   700  ACD700      0.0000
     21  O1       253.5520  112.1890  -37.8790 O.co2 700  ACD700     -0.2457
     22  O2       254.1490  110.6160  -36.4400 O.co2 700  ACD700     -0.2457
@<TRIPOS>BOND
     1     6     5    2
     2     6     7    1
     3     5     4    1
     4     8     7    1
     5     8     9    2
     6     4     3    1
     7     9    10    1
     8     3     2    1
     9    11    10    1
    10    11    12    2
    11     2     1    1
    12    12    13    1
    13    21     1   ar
    14     1    22   ar
    15    13    14    1
    16    14    15    2
    17    15    16    1
    18    16    17    1
    19    17    18    1
    20    18    19    1
    21    19    20    1
