@<TRIPOS>MOLECULE
1dj1_HEM_A_1.pdb
 43 50 0 0 0
SMALL
GASTEIGER

@<TRIPOS>ATOM
      1 FE         -5.8400   17.1350    1.6410 Fe      1  HEM1        0.0000
      2  CHA       -5.4100   20.1800    0.2730 C.2     1  HEM1        0.0000
      3  CHB       -7.8420   16.1950   -0.9970 C.2     1  HEM1        0.0000
      4  CHC       -6.0910   14.0630    2.9260 C.2     1  HEM1        0.0000
      5  CHD       -3.5410   17.9840    4.0020 C.2     1  HEM1        0.0000
      6  NA        -6.5150   18.0340   -0.0900 N.ar    1  HEM1        0.0000
      7  C1A       -6.2660   19.3020   -0.4520 C.ar    1  HEM1        0.0000
      8  C2A       -6.8970   19.5690   -1.6500 C.ar    1  HEM1        0.0000
      9  C3A       -7.6550   18.4390   -1.9840 C.ar    1  HEM1        0.0000
     10  C4A       -7.4080   17.5360   -0.9710 C.ar    1  HEM1        0.0000
     11  CMA       -8.4370   18.2230   -3.2740 C.3     1  HEM1        0.0000
     12  CAA       -6.8980   20.9140   -2.4070 C.3     1  HEM1        0.0000
     13  CBA       -5.7580   21.0250   -3.3960 C.3     1  HEM1        0.0000
     14  CGA       -5.6570   22.4380   -4.0000 C.2     1  HEM1        0.0000
     15  O1A       -6.5380   22.8490   -4.7510 O.co2   1  HEM1        0.0000
     16  O2A       -4.6220   23.0910   -3.8580 O.co2   1  HEM1        0.0000
     17  NB        -6.7510   15.3630    1.0160 N.2     1  HEM1        0.0000
     18  C1B       -7.5910   15.2160   -0.0090 C.2     1  HEM1        0.0000
     19  C2B       -8.2350   13.9730    0.0380 C.2     1  HEM1        0.0000
     20  C3B       -7.7420   13.3550    1.1890 C.2     1  HEM1        0.0000
     21  C4B       -6.8480   14.2650    1.7670 C.2     1  HEM1        0.0000
     22  CMB       -9.0950   13.4300   -1.0900 C.3     1  HEM1        0.0000
     23  CAB       -7.8290   11.9890    1.5040 C.3     1  HEM1        0.0000
     24  CBB       -8.9680   11.1290    1.2650 C.3     1  HEM1        0.0000
     25  NC        -4.8610   16.1310    3.1270 N.ar    1  HEM1        0.0000
     26  C1C       -5.1110   14.8780    3.5530 C.ar    1  HEM1        0.0000
     27  C2C       -4.3360   14.5500    4.6680 C.ar    1  HEM1        0.0000
     28  C3C       -3.4760   15.6510    4.8350 C.ar    1  HEM1        0.0000
     29  C4C       -3.9930   16.6540    4.0190 C.ar    1  HEM1        0.0000
     30  CMC       -3.9890   13.1360    5.2010 C.3     1  HEM1        0.0000
     31  CAC       -2.4350   15.8720    5.7450 C.3     1  HEM1        0.0000
     32  CBC       -2.2300   15.2910    7.0540 C.3     1  HEM1        0.0000
     33  ND        -4.7910   18.8430    2.1720 N.2     1  HEM1        0.0000
     34  C1D       -4.1390   19.0550    3.3210 C.2     1  HEM1        0.0000
     35  C2D       -3.6650   20.3650    3.3940 C.2     1  HEM1        0.0000
     36  C3D       -4.2960   21.0340    2.3420 C.2     1  HEM1        0.0000
     37  C4D       -4.8500   20.0320    1.5450 C.2     1  HEM1        0.0000
     38  CMD       -3.0090   21.0310    4.6010 C.3     1  HEM1        0.0000
     39  CAD       -4.1250   22.5290    2.0260 C.3     1  HEM1        0.0000
     40  CBD       -2.9500   22.7980    1.0640 C.3     1  HEM1        0.0000
     41  CGD       -2.8630   24.2620    0.5790 C.2     1  HEM1        0.0000
     42  O1D       -2.3630   24.4660   -0.5140 O.co2   1  HEM1        0.0000
     43  O2D       -3.6200   25.0690    1.0970 O.co2   1  HEM1        0.0000
@<TRIPOS>BOND
     1    15    14   ar
     2    14    16   ar
     3    14    13    1
     4    13    12    1
     5    11     9    1
     6    12     8    1
     7     9     8   ar
     8     9    10   ar
     9     8     7   ar
    10    22    19    1
    11     3    10    2
    12     3    18    1
    13    10     6   ar
    14    42    41   ar
    15     7     6   ar
    16     7     2    2
    17     6     1    1
    18    18    19    1
    19    18    17    2
    20    19    20    2
    21     2    37    1
    22    41    40    1
    23    41    43   ar
    24    17     1    1
    25    17    21    1
    26    40    39    1
    27    20    23    1
    28    20    21    1
    29    24    23    1
    30    37    33    2
    31    37    36    1
    32     1    33    1
    33     1    25    1
    34    21     4    2
    35    39    36    1
    36    33    34    1
    37    36    35    2
    38     4    26    1
    39    25    26   ar
    40    25    29   ar
    41    34    35    1
    42    34     5    2
    43    35    38    1
    44    26    27   ar
    45     5    29    1
    46    29    28   ar
    47    27    28   ar
    48    27    30    1
    49    28    31    1
    50    31    32    1
