@<TRIPOS>MOLECULE
1dj2_GDP_A_1.pdb
 28 30 0 0 0
SMALL
GASTEIGER

@<TRIPOS>ATOM
      1  PB        27.8360   73.9420   50.4100 P.3   500  GDP500      0.5373
      2  O1B       27.4270   73.7030   51.8070 O.3   500  GDP500     -0.1143
      3  O2B       28.7270   73.0100   49.7440 O.3   500  GDP500     -0.1143
      4  O3B       26.5860   74.1820   49.5330 O.2   500  GDP500     -0.2221
      5  O3A       28.5520   75.3660   50.4270 O.3   500  GDP500     -0.2261
      6  PA        29.9780   75.8410   49.8690 P.3   500  GDP500      0.2231
      7  O1A       29.8630   75.7970   48.3710 O.2   500  GDP500     -0.5169
      8  O2A       30.3480   77.0570   50.5870 O.3   500  GDP500     -0.4370
      9  O5'       30.9550   74.6240   50.3910 O.3   500  GDP500     -0.3111
     10  C5'       32.1950   74.1480   49.6850 C.3   500  GDP500      0.1813
     11  C4'       33.0530   75.2450   48.9760 C.3   500  GDP500      0.1799
     12  O4'       34.4480   74.9090   49.1490 O.3   500  GDP500     -0.3326
     13  C3'       32.8980   75.3000   47.4390 C.3   500  GDP500      0.2158
     14  O3'       31.9490   76.2310   47.0330 O.3   500  GDP500     -0.2175
     15  C2'       34.2940   75.5900   46.8860 C.3   500  GDP500      0.2310
     16  O2'       34.7060   76.9620   46.7550 O.3   500  GDP500     -0.2158
     17  C1'       35.1210   74.8190   47.8650 C.3   500  GDP500      0.2293
     18  N9        35.2690   73.4310   47.3700 N.pl3 500  GDP500     -0.2354
     19  C8        34.3480   72.5320   46.9270 C.3   500  GDP500      0.2246
     20  N7        34.8120   71.3870   46.5450 N.2   500  GDP500     -0.2322
     21  C5        36.1860   71.5370   46.7470 C.2   500  GDP500      0.2182
     22  C6        37.2750   70.6130   46.5190 C.1   500  GDP500      0.2372
     23  O6        37.2320   69.4630   46.0820 O.2   500  GDP500     -0.2069
     24  N1        38.5150   71.1810   46.8680 N.2   500  GDP500     -0.2485
     25  C2        38.6970   72.4520   47.3700 C.1   500  GDP500      0.2531
     26  N2        39.9420   72.8090   47.6400 N.pl3 500  GDP500     -0.0226
     27  N3        37.6950   73.3090   47.5810 N.2   500  GDP500     -0.3074
     28  C4        36.4710   72.7860   47.2580 C.2   500  GDP500      0.2300
@<TRIPOS>BOND
     1    23    22    2
     2    22    21    1
     3    22    24    2
     4    20    21    2
     5    20    19    1
     6    21    28    1
     7    16    15    1
     8    24    25    2
     9    15    13    1
    10    15    17    1
    11    19    18    1
    12    14    13    1
    13    28    18    1
    14    28    27    2
    15    18    17    1
    16    25    27    2
    17    25    26    1
    18    13    11    1
    19    17    12    1
    20     7     6    2
    21    11    12    1
    22    11    10    1
    23     4     1    2
    24    10     9    1
    25     3     1    1
    26     6     9    1
    27     6     5    1
    28     6     8    1
    29     1     5    1
    30     1     2    1
