@<TRIPOS>MOLECULE
1dj3_GDP_A_1.pdb
 28 30 0 0 0
SMALL
GASTEIGER

@<TRIPOS>ATOM
      1  PB       111.4800   89.4500   19.3130 P.3   500  GDP500      0.5373
      2  O1B      111.0500   88.0820   18.9990 O.2   500  GDP500     -0.2221
      3  O2B      110.4820   90.5200   19.4520 O.3   500  GDP500     -0.1143
      4  O3B      112.3540   89.4020   20.5900 O.3   500  GDP500     -0.1143
      5  O3A      112.5660   89.9510   18.2210 O.3   500  GDP500     -0.2261
      6  PA       112.6350   91.3470   17.3940 P.3   500  GDP500      0.2231
      7  O1A      111.4550   92.2230   17.7370 O.3   500  GDP500     -0.4370
      8  O2A      113.9960   91.8760   17.4740 O.2   500  GDP500     -0.5169
      9  O5'      112.3940   90.7370   15.9140 O.3   500  GDP500     -0.3111
     10  C5'      111.2040   91.0770   15.1860 C.3   500  GDP500      0.1813
     11  C4'      111.4640   92.2420   14.2210 C.3   500  GDP500      0.1799
     12  O4'      110.4340   92.1880   13.2420 O.3   500  GDP500     -0.3326
     13  C3'      111.3320   93.6140   14.8560 C.3   500  GDP500      0.2158
     14  O3'      112.3030   94.4900   14.3260 O.3   500  GDP500     -0.2175
     15  C2'      109.8940   94.0720   14.5690 C.3   500  GDP500      0.2310
     16  O2'      109.6230   95.4990   14.5530 O.3   500  GDP500     -0.2158
     17  C1'      109.6540   93.3910   13.2320 C.3   500  GDP500      0.2293
     18  N9       108.2520   92.9840   13.0600 N.pl3 500  GDP500     -0.2354
     19  C8       107.3630   92.4810   13.9700 C.3   500  GDP500      0.2246
     20  N7       106.1860   92.2040   13.5160 N.2   500  GDP500     -0.2322
     21  C5       106.2940   92.5410   12.1680 C.2   500  GDP500      0.2182
     22  C6       105.3160   92.4560   11.1250 C.1   500  GDP500      0.2372
     23  O6       104.1610   92.0600   11.2000 O.2   500  GDP500     -0.2069
     24  N1       105.8260   92.9060    9.8980 N.2   500  GDP500     -0.2485
     25  C2       107.1160   93.3790    9.6910 C.1   500  GDP500      0.2531
     26  N2       107.4160   93.7610    8.4520 N.pl3 500  GDP500     -0.0226
     27  N3       108.0410   93.4590   10.6630 N.2   500  GDP500     -0.3074
     28  C4       107.5580   93.0270   11.8740 C.2   500  GDP500      0.2300
@<TRIPOS>BOND
     1    26    25    1
     2    25    24    2
     3    25    27    2
     4    24    22    2
     5    27    28    2
     6    22    23    2
     7    22    21    1
     8    28    21    1
     9    28    18    1
    10    21    20    2
    11    18    17    1
    12    18    19    1
    13    17    12    1
    14    17    15    1
    15    12    11    1
    16    20    19    1
    17    11    13    1
    18    11    10    1
    19    14    13    1
    20    16    15    1
    21    15    13    1
    22    10     9    1
    23     9     6    1
    24     6     8    2
    25     6     7    1
    26     6     5    1
    27     5     1    1
    28     2     1    2
    29     1     3    1
    30     1     4    1
