@<TRIPOS>MOLECULE
1dj5_HEM_A_1.pdb
 43 50 0 0 0
SMALL
GASTEIGER

@<TRIPOS>ATOM
      1 FE         -5.7960   17.2220    1.5400 Fe      1  HEM1        0.0000
      2  CHA       -5.4210   20.3210    0.2720 C.2     1  HEM1        0.0000
      3  CHB       -7.6560   16.2780   -1.1830 C.2     1  HEM1        0.0000
      4  CHC       -6.1530   14.1560    2.8460 C.2     1  HEM1        0.0000
      5  CHD       -3.5260   18.0220    3.9560 C.2     1  HEM1        0.0000
      6  NA        -6.4760   18.1610   -0.1540 N.ar    1  HEM1        0.0000
      7  C1A       -6.3270   19.4710   -0.4270 C.ar    1  HEM1        0.0000
      8  C2A       -6.8260   19.7150   -1.6900 C.ar    1  HEM1        0.0000
      9  C3A       -7.5710   18.5870   -2.0640 C.ar    1  HEM1        0.0000
     10  C4A       -7.2620   17.6290   -1.1140 C.ar    1  HEM1        0.0000
     11  CMA       -8.2230   18.3640   -3.4250 C.3     1  HEM1        0.0000
     12  CAA       -6.7300   21.0680   -2.4140 C.3     1  HEM1        0.0000
     13  CBA       -5.6030   21.1410   -3.4130 C.3     1  HEM1        0.0000
     14  CGA       -5.5670   22.5190   -4.1140 C.2     1  HEM1        0.0000
     15  O1A       -6.4860   22.8630   -4.8490 O.co2   1  HEM1        0.0000
     16  O2A       -4.5580   23.2200   -4.0670 O.co2   1  HEM1        0.0000
     17  NB        -6.6970   15.4600    0.8800 N.2     1  HEM1        0.0000
     18  C1B       -7.4180   15.2600   -0.2320 C.2     1  HEM1        0.0000
     19  C2B       -8.1890   14.0930   -0.1170 C.2     1  HEM1        0.0000
     20  C3B       -7.8040   13.5200    1.0930 C.2     1  HEM1        0.0000
     21  C4B       -6.7880   14.3460    1.6060 C.2     1  HEM1        0.0000
     22  CMB       -9.1350   13.5530   -1.1760 C.3     1  HEM1        0.0000
     23  CAB       -7.9540   12.1980    1.5390 C.3     1  HEM1        0.0000
     24  CBB       -9.0310   11.3030    1.2640 C.3     1  HEM1        0.0000
     25  NC        -4.9220   16.2270    3.0970 N.ar    1  HEM1        0.0000
     26  C1C       -5.1760   14.9630    3.4900 C.ar    1  HEM1        0.0000
     27  C2C       -4.3780   14.5820    4.5660 C.ar    1  HEM1        0.0000
     28  C3C       -3.5720   15.7000    4.8260 C.ar    1  HEM1        0.0000
     29  C4C       -4.0060   16.7020    3.9600 C.ar    1  HEM1        0.0000
     30  CMC       -4.1670   13.1730    5.1630 C.3     1  HEM1        0.0000
     31  CAC       -2.4570   15.8520    5.6750 C.3     1  HEM1        0.0000
     32  CBC       -2.3050   15.3080    7.0080 C.3     1  HEM1        0.0000
     33  ND        -4.7690   18.9260    2.1290 N.2     1  HEM1        0.0000
     34  C1D       -4.0830   19.1060    3.2670 C.2     1  HEM1        0.0000
     35  C2D       -3.6960   20.4290    3.4270 C.2     1  HEM1        0.0000
     36  C3D       -4.1730   21.0930    2.2950 C.2     1  HEM1        0.0000
     37  C4D       -4.8770   20.1350    1.5560 C.2     1  HEM1        0.0000
     38  CMD       -2.8710   21.0470    4.5440 C.3     1  HEM1        0.0000
     39  CAD       -4.0690   22.6070    2.0400 C.3     1  HEM1        0.0000
     40  CBD       -2.7920   23.0140    1.2930 C.3     1  HEM1        0.0000
     41  CGD       -2.8200   24.4120    0.6470 C.2     1  HEM1        0.0000
     42  O1D       -2.3040   24.5380   -0.4530 O.co2   1  HEM1        0.0000
     43  O2D       -3.5940   25.2430    1.0870 O.co2   1  HEM1        0.0000
@<TRIPOS>BOND
     1    15    14   ar
     2    14    16   ar
     3    14    13    1
     4    11     9    1
     5    13    12    1
     6    12     8    1
     7     9     8   ar
     8     9    10   ar
     9     8     7   ar
    10     3    10    2
    11     3    18    1
    12    22    19    1
    13    10     6   ar
    14    42    41   ar
    15     7     6   ar
    16     7     2    2
    17    18    19    1
    18    18    17    2
    19     6     1    1
    20    19    20    2
    21     2    37    1
    22    41    43   ar
    23    41    40    1
    24    17     1    1
    25    17    21    1
    26    20    23    1
    27    20    21    1
    28    24    23    1
    29    40    39    1
    30     1    33    1
    31     1    25    1
    32    37    33    2
    33    37    36    1
    34    21     4    2
    35    39    36    1
    36    33    34    1
    37    36    35    2
    38     4    26    1
    39    25    26   ar
    40    25    29   ar
    41    34    35    1
    42    34     5    2
    43    35    38    1
    44    26    27   ar
    45     5    29    1
    46    29    28   ar
    47    27    28   ar
    48    27    30    1
    49    28    31    1
    50    31    32    1
