@<TRIPOS>MOLECULE
1dj9_KAM_A_1.pdb
 28 28 0 0 0
SMALL
GASTEIGER

@<TRIPOS>ATOM
      1  N1         3.8300    1.9240   45.4920 N.2   400  KAM400     -0.2499
      2  C2         4.9790    1.7470   46.1470 C.2   400  KAM400      0.0714
      3  C2A        5.1380    2.2460   47.5240 C.3   400  KAM400      0.0503
      4  C3         5.9380    0.9650   45.4680 C.3   400  KAM400      0.2110
      5  O3         7.1650    0.9030   45.8950 O.3   400  KAM400     -0.2121
      6  C4         5.6510    0.5350   44.1390 C.2   400  KAM400      0.0291
      7  C4A        6.7740   -0.0420   43.3870 C.2   400  KAM400      0.0788
      8  C5         4.4240    0.9050   43.5210 C.2   400  KAM400      0.0270
      9  C6         3.5010    1.5840   44.2860 C.2   400  KAM400      0.0961
     10  C5A        4.0910    0.5380   42.1320 C.3   400  KAM400      0.1816
     11  OP4        3.3200   -0.6670   41.9620 O.3   400  KAM400     -0.2653
     12  P          3.5830   -1.6910   40.8080 P.3   400  KAM400      0.5329
     13  OP1        2.5150   -2.7730   40.8890 O.3   400  KAM400     -0.1145
     14  OP2        3.4370   -0.9160   39.5430 O.2   400  KAM400     -0.2224
     15  OP3        4.9560   -2.2580   41.0790 O.3   400  KAM400     -0.1145
     16  N9C        7.9000   -0.2640   43.9500 N.pl3 400  KAM400     -0.2309
     17  C9C        8.2800   -1.6220   41.9360 C.3   400  KAM400      0.0313
     18  C8C        8.9240   -0.8360   43.0610 C.3   400  KAM400      0.1495
     19  C7C        9.7930    0.3050   42.5560 C.2   400  KAM400      0.1701
     20  O7C        9.3870    1.4590   42.5340 O.2   400  KAM400     -0.2943
     21  C6C       11.1810   -0.0880   42.0870 C.3   400  KAM400      0.0663
     22  C5C       12.1740    1.0570   42.0740 C.3   400  KAM400      0.0078
     23  C4C       13.5650    0.6740   41.5920 C.3   400  KAM400      0.0010
     24  C3C       14.5250    1.8530   41.5030 C.3   400  KAM400      0.0118
     25  C2C       15.7530    1.5510   40.6610 C.3   400  KAM400      0.1141
     26  C1C       16.8780    2.5640   40.7390 C.2   400  KAM400      0.3649
     27  O1C       17.9350    2.2930   40.1110 O.co2 400  KAM400     -0.2457
     28  O2C       16.7380    3.6170   41.4090 O.co2 400  KAM400     -0.2457
@<TRIPOS>BOND
     1    14    12    2
     2    27    26   ar
     3    25    26    1
     4    25    24    1
     5    26    28   ar
     6    12    13    1
     7    12    15    1
     8    12    11    1
     9    24    23    1
    10    23    22    1
    11    17    18    1
    12    11    10    1
    13    22    21    1
    14    21    19    1
    15    10     8    1
    16    20    19    2
    17    19    18    1
    18    18    16    1
    19     7    16    1
    20     7     6    2
    21     8     6    1
    22     8     9    2
    23     6     4    1
    24     9     1    1
    25     4     5    1
    26     4     2    1
    27     1     2    2
    28     2     3    1
