@<TRIPOS>MOLECULE
1dje_PLP_A_1.pdb
 15 15 0 0 0
SMALL
GASTEIGER

@<TRIPOS>ATOM
      1  N1         3.8980    2.0300   45.2380 N.2   400  PLP400     -0.2505
      2  C2         4.9000    1.7340   46.0580 C.2   400  PLP400      0.0675
      3  C2A        5.0930    2.3120   47.4330 C.3   400  PLP400      0.0499
      4  C3         5.8040    0.7810   45.5380 C.3   400  PLP400      0.1913
      5  O3         6.9380    0.4810   46.0890 O.3   400  PLP400     -0.2167
      6  C4         5.6190    0.3510   44.1850 C.3   400  PLP400      0.0581
      7  C4A        6.3820   -0.8690   43.7790 C.3   400  PLP400      0.0075
      8  C5         4.4360    0.6500   43.4900 C.2   400  PLP400      0.0073
      9  C6         3.5940    1.6030   44.0490 C.2   400  PLP400      0.0921
     10  C5A        4.3310    0.3350   42.0270 C.3   400  PLP400      0.1776
     11  O4P        3.5600   -0.8680   41.8190 O.3   400  PLP400     -0.2656
     12  P          3.7440   -1.7550   40.5330 P.3   400  PLP400      0.5329
     13  O1P        2.5970   -2.7870   40.5840 O.3   400  PLP400     -0.1145
     14  O2P        3.6350   -0.8860   39.3490 O.2   400  PLP400     -0.2224
     15  O3P        5.1090   -2.4080   40.6980 O.3   400  PLP400     -0.1145
@<TRIPOS>BOND
     1    14    12    2
     2    12    13    1
     3    12    15    1
     4    12    11    1
     5    11    10    1
     6    10     8    1
     7     8     9    2
     8     8     6    1
     9     7     6    1
    10     9     1    1
    11     6     4    1
    12     1     2    2
    13     4     2    1
    14     4     5    1
    15     2     3    1
