@<TRIPOS>MOLECULE
1djl_NAP_A_1.pdb
 48 52 0 0 0
SMALL
GASTEIGER

@<TRIPOS>ATOM
      1  PA        42.3510   28.0970   24.2210 P.3   1136  NAP1136     0.2189
      2  O1A       41.3730   27.2390   23.7180 O.2   1136  NAP1136    -0.5170
      3  O2A       42.9960   28.3320   25.4620 O.3   1136  NAP1136    -0.4371
      4  O5B       42.8410   28.9610   23.0120 O.3   1136  NAP1136    -0.3112
      5  C5B       44.0840   29.5800   23.0740 C.3   1136  NAP1136     0.1813
      6  C4B       44.4330   29.7020   21.6290 C.3   1136  NAP1136     0.1820
      7  O4B       45.1570   30.8620   21.2780 O.3   1136  NAP1136    -0.3136
      8  C3B       45.3620   28.4890   21.4270 C.3   1136  NAP1136     0.2157
      9  O3B       44.9450   27.3060   20.7690 O.3   1136  NAP1136    -0.2175
     10  C2B       46.6230   29.0720   20.8190 C.3   1136  NAP1136     0.2314
     11  O2B       46.9490   28.4870   19.5540 O.3   1136  NAP1136    -0.2630
     12  C1B       46.3350   30.5690   20.6250 C.3   1136  NAP1136     0.3158
     13  N9A       47.3750   31.5370   20.9850 N.pl3 1136  NAP1136    -0.1439
     14  C8A       48.1920   31.6110   22.0860 C.3   1136  NAP1136     0.3377
     15  N7A       48.9940   32.6670   21.9600 N.2   1136  NAP1136    -0.2095
     16  C5A       48.6850   33.2410   20.8060 C.2   1136  NAP1136     0.2526
     17  C6A       49.2090   34.3690   20.1780 C.2   1136  NAP1136     0.4393
     18  N6A       50.1920   35.0640   20.7410 N.pl3 1136  NAP1136     0.2180
     19  N1A       48.7030   34.7870   18.9320 N.2   1136  NAP1136     0.0021
     20  C2A       47.6990   34.1080   18.3040 C.3   1136  NAP1136     0.5254
     21  N3A       47.1950   32.9960   18.9350 N.2   1136  NAP1136    -0.0055
     22  C4A       47.6680   32.5560   20.1670 C.2   1136  NAP1136     0.3518
     23  O3        41.2420   29.1090   24.7560 O.3   1136  NAP1136    -0.2703
     24  PN        39.7810   29.9490   24.5860 P.3   1136  NAP1136     0.2189
     25  O1N       39.1470   29.6960   23.3200 O.2   1136  NAP1136    -0.5170
     26  O2N       40.0480   31.3370   24.8840 O.3   1136  NAP1136    -0.4371
     27  O5D       39.1450   29.1060   25.7650 O.3   1136  NAP1136    -0.3112
     28  C5D       39.6390   29.2530   27.0900 C.3   1136  NAP1136     0.1813
     29  C4D       39.9350   27.9070   27.7030 C.3   1136  NAP1136     0.1799
     30  O4D       40.4590   28.1020   29.0240 O.3   1136  NAP1136    -0.3327
     31  C3D       38.7020   26.9930   27.9130 C.3   1136  NAP1136     0.2158
     32  O3D       39.0610   25.5990   27.7360 O.3   1136  NAP1136    -0.2175
     33  C2D       38.3050   27.2400   29.3560 C.3   1136  NAP1136     0.2309
     34  O2D       37.4590   26.2200   29.8760 O.3   1136  NAP1136    -0.2158
     35  C1D       39.6560   27.4040   30.0030 C.3   1136  NAP1136     0.2263
     36  N1N       39.4920   28.1480   31.2280 N.pl3 1136  NAP1136    -0.2787
     37  C2N       38.8540   29.4430   31.1860 C.3   1136  NAP1136     0.1244
     38  C3N       38.6610   30.1480   32.3820 C.2   1136  NAP1136     0.0544
     39  C7N       37.9710   31.5180   32.3840 C.2   1136  NAP1136     0.2818
     40  O7N       37.8050   32.0740   33.4600 O.2   1136  NAP1136    -0.2670
     41  N7N       37.5820   32.0370   31.2160 N.am  1136  NAP1136    -0.0839
     42  C4N       39.1230   29.5290   33.5970 C.2   1136  NAP1136     0.0033
     43  C5N       39.7770   28.2370   33.6590 C.2   1136  NAP1136     0.0157
     44  C6N       39.9610   27.5260   32.4400 C.2   1136  NAP1136     0.0633
     45  P2B       48.4330   28.5520   18.8760 P.3   1136  NAP1136     0.5328
     46  O1X       48.7150   30.0400   18.6170 O.3   1136  NAP1136    -0.1145
     47  O2X       49.3180   27.9030   19.8730 O.3   1136  NAP1136    -0.1145
     48  O3X       48.2910   27.8350   17.5690 O.2   1136  NAP1136    -0.2224
@<TRIPOS>BOND
     1    48    45    2
     2    20    19    1
     3    20    21    1
     4    46    45    1
     5    45    11    1
     6    45    47    1
     7    19    17    2
     8    21    22    2
     9    11    10    1
    10    22    16    1
    11    22    13    1
    12    17    18    1
    13    17    16    1
    14    12    10    1
    15    12    13    1
    16    12     7    1
    17     9     8    1
    18    16    15    2
    19    10     8    1
    20    13    14    1
    21     7     6    1
    22     8     6    1
    23     6     5    1
    24    15    14    1
    25     4     5    1
    26     4     1    1
    27    25    24    2
    28     2     1    2
    29     1    23    1
    30     1     3    1
    31    24    23    1
    32    24    26    1
    33    24    27    1
    34    27    28    1
    35    28    29    1
    36    29    31    1
    37    29    30    1
    38    32    31    1
    39    31    33    1
    40    30    35    1
    41    33    34    1
    42    33    35    1
    43    35    36    1
    44    37    36    1
    45    37    38    1
    46    41    39   am
    47    36    44    1
    48    38    39    1
    49    38    42    2
    50    39    40    2
    51    44    43    2
    52    42    43    1
