@<TRIPOS>MOLECULE
1djn_FMN_A_1.pdb
 31 33 0 0 0
SMALL
GASTEIGER

@<TRIPOS>ATOM
      1  N1        33.4010   17.8460   -0.6550 N.2   802  FMN802     -0.2890
      2  C2        32.4460   18.6640   -0.0600 C.1   802  FMN802      0.3669
      3  O2        31.5720   19.2020   -0.6930 O.2   802  FMN802     -0.1744
      4  N3        32.4940   18.8220    1.2880 N.2   802  FMN802     -0.2300
      5  C4        33.3940   18.2410    2.1200 C.1   802  FMN802      0.2513
      6  O4        33.3790   18.6690    3.2730 O.2   802  FMN802     -0.2057
      7  C4A       34.3630   17.3520    1.4270 C.2   802  FMN802      0.2700
      8  N5        35.2400   16.6120    2.2140 N.2   802  FMN802     -0.3878
      9  C5A       36.4120   16.1190    1.6720 C.2   802  FMN802      0.1320
     10  C6        37.5270   15.7910    2.4430 C.2   802  FMN802      0.0250
     11  C7        38.7800   15.6800    1.8750 C.2   802  FMN802     -0.0238
     12  C7M       40.0680   15.4530    2.7520 C.3   802  FMN802      0.0308
     13  C8        38.9010   15.7780    0.4950 C.2   802  FMN802     -0.0280
     14  C8M       40.2940   15.7300   -0.1290 C.3   802  FMN802      0.0304
     15  C9        37.8000   15.9350   -0.2930 C.2   802  FMN802     -0.0041
     16  C9A       36.5640   16.1720    0.2870 C.3   802  FMN802      0.1497
     17  N10       35.5220   16.6240   -0.5400 N.pl3 802  FMN802     -0.2691
     18  C10       34.3950   17.1610    0.0340 C.2   802  FMN802      0.2416
     19  C1'       35.4470   16.2840   -1.8410 C.3   802  FMN802      0.1294
     20  C2'       36.1460   17.3270   -2.6630 C.3   802  FMN802      0.2044
     21  O2'       35.2990   18.4670   -2.6300 O.3   802  FMN802     -0.2185
     22  C3'       36.3810   16.8790   -4.1220 C.3   802  FMN802      0.2164
     23  O3'       35.0660   16.7650   -4.6740 O.3   802  FMN802     -0.2175
     24  C4'       37.3300   15.6280   -4.2760 C.3   802  FMN802      0.2147
     25  O4'       38.4880   15.5600   -3.3680 O.3   802  FMN802     -0.2176
     26  C5'       37.7730   15.6320   -5.6990 C.3   802  FMN802      0.1892
     27  O5'       38.5300   16.8440   -6.0340 O.3   802  FMN802     -0.2674
     28  P         40.1550   16.6540   -6.3010 P.3   802  FMN802      0.5327
     29  O1P       40.1170   15.5180   -7.2780 O.2   802  FMN802     -0.2224
     30  O2P       40.7010   16.3380   -4.9470 O.3   802  FMN802     -0.1145
     31  O3P       40.6580   17.9640   -6.8650 O.3   802  FMN802     -0.1145
@<TRIPOS>BOND
     1    29    28    2
     2    31    28    1
     3    28    27    1
     4    28    30    1
     5    27    26    1
     6    26    24    1
     7    23    22    1
     8    24    22    1
     9    24    25    1
    10    22    20    1
    11    20    21    1
    12    20    19    1
    13    19    17    1
    14     3     2    2
    15     1     2    2
    16     1    18    2
    17    17    18    1
    18    17    16    1
    19    15    16    1
    20    15    13    2
    21    14    13    1
    22     2     4    2
    23    18     7    1
    24    16     9    1
    25    13    11    1
    26     4     5    2
    27     7     5    1
    28     7     8    2
    29     9     8    2
    30     9    10    1
    31    11    10    2
    32    11    12    1
    33     5     6    2
