@<TRIPOS>MOLECULE
1djp_DO2_A_1.pdb
 10 9 0 0 0
SMALL
GASTEIGER

@<TRIPOS>ATOM
      1  C         40.9190  127.2720   85.6730 C.2   4000  DO24000     0.3819
      2  N         38.6970  126.4240   85.2670 N.3   4000  DO24000    -0.1208
      3  O         41.4320  126.0470   85.7310 O.co2 4000  DO24000    -0.2441
      4  CA        39.4660  127.3880   86.0330 C.3   4000  DO24000     0.1943
      5  CB        39.2360  127.1540   87.5400 C.3   4000  DO24000     0.0307
      6  CD        38.5770  128.2090   89.6610 C.3   4000  DO24000     0.0356
      7  CE        39.1190  126.9230   90.2150 C.3   4000  DO24000     0.1821
      8  CG        38.6890  128.3990   88.1770 C.3   4000  DO24000     0.0048
      9  OE1       40.2950  127.0710   90.5020 O.3   4000  DO24000    -0.2204
     10  OXT       41.6010  128.2300   85.3450 O.co2 4000  DO24000    -0.2441
@<TRIPOS>BOND
     1     2     4    1
     2    10     1   ar
     3     1     3   ar
     4     1     4    1
     5     4     5    1
     6     5     8    1
     7     8     6    1
     8     6     7    1
     9     7     9    1
