@<TRIPOS>MOLECULE
1djq_FMN_A_1.pdb
 31 33 0 0 0
SMALL
GASTEIGER

@<TRIPOS>ATOM
      1  N1        33.2340   17.7980   -0.6740 N.2   802  FMN802     -0.2890
      2  C2        32.2870   18.6100   -0.0810 C.1   802  FMN802      0.3669
      3  O2        31.4350   19.1530   -0.7420 O.2   802  FMN802     -0.1744
      4  N3        32.3840   18.8140    1.2570 N.2   802  FMN802     -0.2300
      5  C4        33.3450   18.2800    2.0630 C.1   802  FMN802      0.2513
      6  O4        33.3500   18.6880    3.2180 O.2   802  FMN802     -0.2057
      7  C4A       34.3150   17.4050    1.3520 C.2   802  FMN802      0.2700
      8  N5        35.2700   16.7640    2.1240 N.2   802  FMN802     -0.3878
      9  C5A       36.3120   16.1200    1.5180 C.2   802  FMN802      0.1320
     10  C6        37.3720   15.7750    2.3170 C.2   802  FMN802      0.0250
     11  C7        38.6310   15.6480    1.7590 C.2   802  FMN802     -0.0238
     12  C7M       39.9140   15.5040    2.6240 C.3   802  FMN802      0.0308
     13  C8        38.7580   15.6650    0.3860 C.2   802  FMN802     -0.0280
     14  C8M       40.1660   15.5700   -0.2400 C.3   802  FMN802      0.0304
     15  C9        37.6550   15.7830   -0.4080 C.2   802  FMN802     -0.0041
     16  C9A       36.4230   16.1040    0.1460 C.3   802  FMN802      0.1497
     17  N10       35.3560   16.5740   -0.6560 N.pl3 802  FMN802     -0.2691
     18  C10       34.2800   17.1630   -0.0350 C.2   802  FMN802      0.2416
     19  C1'       35.2510   16.3160   -1.9720 C.3   802  FMN802      0.1294
     20  C2'       36.1320   17.3320   -2.7070 C.3   802  FMN802      0.2044
     21  O2'       35.5170   18.6290   -2.6000 O.3   802  FMN802     -0.2185
     22  C3'       36.3810   16.9520   -4.1650 C.3   802  FMN802      0.2164
     23  O3'       35.1110   16.9350   -4.7940 O.3   802  FMN802     -0.2175
     24  C4'       37.2390   15.6450   -4.3380 C.3   802  FMN802      0.2147
     25  O4'       38.3630   15.5010   -3.4300 O.3   802  FMN802     -0.2176
     26  C5'       37.7340   15.6650   -5.7340 C.3   802  FMN802      0.1892
     27  O5'       38.5550   16.8600   -5.9690 O.3   802  FMN802     -0.2674
     28  P         40.1200   16.6470   -6.2730 P.3   802  FMN802      0.5327
     29  O1P       40.0720   15.5490   -7.2580 O.2   802  FMN802     -0.2224
     30  O2P       40.6870   16.3170   -4.9370 O.3   802  FMN802     -0.1145
     31  O3P       40.5710   17.9430   -6.8170 O.3   802  FMN802     -0.1145
@<TRIPOS>BOND
     1    29    28    2
     2    31    28    1
     3    28    27    1
     4    28    30    1
     5    27    26    1
     6    26    24    1
     7    23    22    1
     8    24    22    1
     9    24    25    1
    10    22    20    1
    11    20    21    1
    12    20    19    1
    13    19    17    1
    14     3     2    2
    15     1     2    2
    16     1    18    2
    17    17    18    1
    18    17    16    1
    19    15    16    1
    20    15    13    2
    21    14    13    1
    22     2     4    2
    23    18     7    1
    24    16     9    1
    25    13    11    1
    26     4     5    2
    27     7     5    1
    28     7     8    2
    29     9     8    2
    30     9    10    1
    31    11    10    2
    32    11    12    1
    33     5     6    2
