@<TRIPOS>MOLECULE
1djq_ADP_A_1.pdb
 27 29 0 0 0
SMALL
GASTEIGER

@<TRIPOS>ATOM
      1  PB        61.2240    4.4620    5.1320 P.3   803  ADP803      0.5373
      2  O1B       61.6770    5.6340    4.3450 O.2   803  ADP803     -0.2221
      3  O2B       61.4210    4.5840    6.5960 O.3   803  ADP803     -0.1143
      4  O3B       59.7850    4.2160    4.6560 O.3   803  ADP803     -0.1143
      5  PA        62.3550    2.5080    3.3820 P.3   803  ADP803      0.2231
      6  O1A       62.2970    1.0980    3.6110 O.3   803  ADP803     -0.4370
      7  O2A       61.5890    3.0300    2.2640 O.2   803  ADP803     -0.5169
      8  O3A       62.0910    3.2110    4.7410 O.3   803  ADP803     -0.2261
      9  O5'       63.8720    2.8910    3.0480 O.3   803  ADP803     -0.3111
     10  C5'       65.0180    2.4180    3.7750 C.3   803  ADP803      0.1813
     11  C4'       66.2660    2.5150    2.8980 C.3   803  ADP803      0.1821
     12  O4'       67.4210    2.2930    3.7010 O.3   803  ADP803     -0.3135
     13  C3'       66.2790    1.4460    1.8330 C.3   803  ADP803      0.2184
     14  O3'       66.4010    2.0600    0.5690 O.3   803  ADP803     -0.2174
     15  C2'       67.4810    0.5820    2.1640 C.3   803  ADP803      0.2570
     16  O2'       68.1190    0.1420    0.9890 O.3   803  ADP803     -0.2130
     17  C1'       68.3370    1.5400    2.8980 C.3   803  ADP803      0.3186
     18  N9        69.2950    0.9080    3.8340 N.pl3 803  ADP803     -0.1439
     19  C8        69.0820    0.0000    4.8400 C.3   803  ADP803      0.3377
     20  N7        70.1200   -0.3260    5.5400 N.2   803  ADP803     -0.2095
     21  C5        71.1150    0.4250    4.9400 C.2   803  ADP803      0.2526
     22  C6        72.4810    0.5120    5.1990 C.2   803  ADP803      0.4393
     23  N6        73.0510   -0.1530    6.2020 N.pl3 803  ADP803      0.2180
     24  N1        73.1790    1.3380    4.4010 N.2   803  ADP803      0.0021
     25  C2        72.5900    2.0360    3.4240 C.3   803  ADP803      0.5254
     26  N3        71.3170    2.0340    3.0880 N.2   803  ADP803     -0.0055
     27  C4        70.6330    1.1880    3.9020 C.2   803  ADP803      0.3518
@<TRIPOS>BOND
     1    14    13    1
     2    16    15    1
     3    13    15    1
     4    13    11    1
     5    15    17    1
     6     7     5    2
     7    17    12    1
     8    17    18    1
     9    11    12    1
    10    11    10    1
    11     9     5    1
    12     9    10    1
    13    26    25    1
    14    26    27    2
    15     5     6    1
    16     5     8    1
    17    25    24    1
    18    18    27    1
    19    18    19    1
    20    27    21    1
    21     2     1    2
    22    24    22    2
    23     4     1    1
    24     8     1    1
    25    19    20    1
    26    21    22    1
    27    21    20    2
    28     1     3    1
    29    22    23    1
