@<TRIPOS>MOLECULE
1djr_GLA_D_1.pdb
 12 12 0 0 0
SMALL
GASTEIGER

@<TRIPOS>ATOM
      1  C1        -8.2260   -6.7970   34.8040 C.3   1104  GLA1104     0.3024
      2  C2        -7.7460   -8.2040   35.1050 C.3   1104  GLA1104     0.2434
      3  C3        -6.2640   -8.3940   34.9700 C.3   1104  GLA1104     0.2199
      4  C4        -5.7290   -7.8280   33.6330 C.3   1104  GLA1104     0.2144
      5  C5        -6.2340   -6.3650   33.5150 C.3   1104  GLA1104     0.1836
      6  C6        -5.8700   -5.8520   32.1100 C.3   1104  GLA1104     0.2142
      7  O1        -7.7690   -5.9740   35.8980 O.3   1104  GLA1104    -0.1869
      8  O2        -8.2100   -8.5440   36.4030 O.3   1104  GLA1104    -0.2148
      9  O3        -5.9220   -9.7580   35.1750 O.3   1104  GLA1104    -0.2174
     10  O4        -6.1510   -8.5800   32.5420 O.3   1104  GLA1104    -0.2176
     11  O5        -7.7080   -6.3570   33.5540 O.3   1104  GLA1104    -0.3236
     12  O6        -6.3000   -4.4770   32.0450 O.3   1104  GLA1104    -0.2176
@<TRIPOS>BOND
     1    12     6    1
     2     6     5    1
     3    10     4    1
     4     5    11    1
     5     5     4    1
     6    11     1    1
     7     4     3    1
     8     1     2    1
     9     1     7    1
    10     3     2    1
    11     3     9    1
    12     2     8    1
