@<TRIPOS>MOLECULE
1dju_PLP_A_1.pdb
 15 15 0 0 0
SMALL
GASTEIGER

@<TRIPOS>ATOM
      1  N1        36.6450   56.2010   45.7450 N.ar  400  PLP400     -0.2452
      2  C2        35.5960   56.0060   46.5740 C.ar  400  PLP400      0.0978
      3  C2A       35.3500   54.5400   46.9600 C.3   400  PLP400      0.0555
      4  C3        34.8620   57.1110   46.9860 C.ar  400  PLP400      0.2049
      5  O3        33.7400   56.7910   47.6740 O.3   400  PLP400     -0.2857
      6  C4        35.1760   58.4500   46.5790 C.ar  400  PLP400      0.0182
      7  C4A       34.4370   59.5530   47.0780 C.3   400  PLP400      0.0342
      8  C5        36.2140   58.4930   45.6060 C.ar  400  PLP400      0.0261
      9  C6        36.9160   57.3650   45.1890 C.ar  400  PLP400      0.0965
     10  C5A       36.4680   59.7240   44.7170 C.3   400  PLP400      0.1815
     11  O4P       37.4160   60.6390   45.1700 O.3   400  PLP400     -0.2653
     12  P         37.3900   61.9710   44.5010 P.3   400  PLP400      0.5329
     13  O1P       38.6620   62.5400   44.9940 O.3   400  PLP400     -0.1145
     14  O2P       36.3310   62.8650   44.9960 O.3   400  PLP400     -0.1145
     15  O3P       37.4130   61.9220   43.0200 O.2   400  PLP400     -0.2224
@<TRIPOS>BOND
     1    15    12    2
     2    12    13    1
     3    12    14    1
     4    12    11    1
     5    10    11    1
     6    10     8    1
     7     9     8   ar
     8     9     1   ar
     9     8     6   ar
    10     1     2   ar
    11     2     3    1
    12     2     4   ar
    13     6     4   ar
    14     6     7    1
    15     4     5    1
