@<TRIPOS>MOLECULE
1djw_CIP_A_1.pdb
 15 16 0 0 0
SMALL
GASTEIGER

@<TRIPOS>ATOM
      1  C1       124.9550   40.6820   18.6170 C.3     1  CIP1        0.1599
      2  C2       124.7530   39.1360   18.4590 C.3     1  CIP1        0.0756
      3  C3       125.5020   38.5000   17.2890 C.3     1  CIP1        0.1878
      4  C4       126.9300   39.0020   17.1040 C.3     1  CIP1        0.2149
      5  C5       126.8510   40.5280   16.9330 C.3     1  CIP1        0.2172
      6  C6       126.3680   41.1980   18.2030 C.3     1  CIP1        0.2122
      7  C7       124.9900   38.4730   19.8010 C.3     1  CIP1        0.1233
      8  O1       124.7420   40.9040   20.0160 O.3     1  CIP1       -0.2924
      9  O3       125.4330   37.0940   17.3020 O.3     1  CIP1       -0.2202
     10  O4       127.2120   38.4890   15.7550 O.3     1  CIP1       -0.2176
     11  O5       128.1170   41.0590   16.5970 O.3     1  CIP1       -0.2175
     12  O6       126.3080   42.5550   17.8320 O.3     1  CIP1       -0.2177
     13  P        125.5590   39.7900   20.8640 P.3     1  CIP1        0.3699
     14  O1P      125.1260   39.7010   22.4300 O.3     1  CIP1       -0.1398
     15  O2P      127.1710   39.9970   20.8350 O.2     1  CIP1       -0.2555
@<TRIPOS>BOND
     1    10     4    1
     2    11     5    1
     3     5     4    1
     4     5     6    1
     5     4     3    1
     6     3     9    1
     7     3     2    1
     8    12     6    1
     9     6     1    1
    10     2     1    1
    11     2     7    1
    12     1     8    1
    13     7    13    1
    14     8    13    1
    15    15    13    2
    16    13    14    1
