@<TRIPOS>MOLECULE
1djx_I3P_A_1.pdb
 24 24 0 0 0
SMALL
GASTEIGER

@<TRIPOS>ATOM
      1  C1       125.3830   41.2140   18.7700 C.3     1  I3P1        0.1918
      2  C2       124.8390   39.8350   19.1550 C.3     1  I3P1        0.2147
      3  C3       125.2880   38.7830   18.1190 C.3     1  I3P1        0.2146
      4  C4       126.8150   38.8480   17.8950 C.3     1  I3P1        0.1892
      5  C5       127.3420   40.2690   17.6140 C.3     1  I3P1        0.1891
      6  C6       126.8880   41.2360   18.6900 C.3     1  I3P1        0.2120
      7  O1       125.1370   42.1170   19.8190 O.3     1  I3P1       -0.2673
      8  O2       125.3360   39.4810   20.4200 O.3     1  I3P1       -0.2176
      9  O3       124.8640   37.4450   18.4760 O.3     1  I3P1       -0.2176
     10  O4       127.1320   38.0330   16.7670 O.3     1  I3P1       -0.2674
     11  O5       128.7590   40.2230   17.8120 O.3     1  I3P1       -0.2674
     12  O6       127.3150   42.5790   18.4020 O.3     1  I3P1       -0.2177
     13  P1       123.7480   42.1400   20.5190 P.3     1  I3P1        0.5327
     14  O11      123.6980   41.0020   21.5260 O.3     1  I3P1       -0.1145
     15  O12      122.5450   42.0800   19.5620 O.2     1  I3P1       -0.2224
     16  O13      123.6800   43.4060   21.3430 O.3     1  I3P1       -0.1145
     17  P4       128.5320   37.3200   16.5170 P.3     1  I3P1        0.5327
     18  O41      129.4810   38.1550   15.6620 O.2     1  I3P1       -0.2224
     19  O42      128.2060   36.0410   15.7490 O.3     1  I3P1       -0.1145
     20  O43      129.2990   37.0640   17.8090 O.3     1  I3P1       -0.1145
     21  P5       129.7690   41.2100   17.0750 P.3     1  I3P1        0.5327
     22  O51      129.2110   42.6000   16.7440 O.3     1  I3P1       -0.1145
     23  O52      131.0610   41.4300   17.8630 O.3     1  I3P1       -0.1145
     24  O53      130.0450   40.5610   15.7350 O.2     1  I3P1       -0.2224
@<TRIPOS>BOND
     1    18    17    2
     2    24    21    2
     3    19    17    1
     4    17    10    1
     5    17    20    1
     6    22    21    1
     7    10     4    1
     8    21    11    1
     9    21    23    1
    10     5    11    1
    11     5     4    1
    12     5     6    1
    13     4     3    1
    14     3     9    1
    15     3     2    1
    16    12     6    1
    17     6     1    1
    18     1     2    1
    19     1     7    1
    20     2     8    1
    21    15    13    2
    22     7    13    1
    23    13    16    1
    24    13    14    1
