@<TRIPOS>MOLECULE
1djy_I2P_A_1.pdb
 24 24 0 0 0
SMALL
GASTEIGER

@<TRIPOS>ATOM
      1  C1       126.1160   41.0290   17.5740 C.3     1  I2P1        0.2147
      2  C2       125.3080   39.9220   18.2760 C.3     1  I2P1        0.1918
      3  C3       125.7300   38.6170   17.6080 C.3     1  I2P1        0.2120
      4  C4       127.2290   38.4450   17.6970 C.3     1  I2P1        0.1891
      5  C5       127.9420   39.7370   17.2900 C.3     1  I2P1        0.1892
      6  C6       127.5160   40.9660   18.0740 C.3     1  I2P1        0.2146
      7  O1       125.7830   42.3920   17.6590 O.3     1  I2P1       -0.2176
      8  O2       125.7530   39.8810   19.6170 O.3     1  I2P1       -0.2673
      9  O3       125.0450   37.5060   18.1660 O.3     1  I2P1       -0.2177
     10  O4       127.3960   37.7870   16.4820 O.3     1  I2P1       -0.2674
     11  O5       129.2970   39.5110   17.5860 O.3     1  I2P1       -0.2674
     12  O6       128.1800   42.1200   17.6000 O.3     1  I2P1       -0.2176
     13  P2       124.8850   40.7730   20.6080 P.3     1  I2P1        0.5327
     14  O21      125.3890   42.2060   20.1720 O.2     1  I2P1       -0.2224
     15  O22      125.1220   40.4640   22.1950 O.3     1  I2P1       -0.1145
     16  O23      123.3260   40.9130   20.2340 O.3     1  I2P1       -0.1145
     17  P4       128.6690   36.8810   16.0800 P.3     1  I2P1        0.5327
     18  O41      129.6440   37.6720   15.1200 O.2     1  I2P1       -0.2224
     19  O42      128.1640   35.7240   15.1600 O.3     1  I2P1       -0.1145
     20  O43      129.4290   36.3590   17.4520 O.3     1  I2P1       -0.1145
     21  P5       130.5190   40.2800   16.7410 P.3     1  I2P1        0.5327
     22  O51      130.2470   40.6100   15.1530 O.2     1  I2P1       -0.2224
     23  O52      130.6950   41.6400   17.4490 O.3     1  I2P1       -0.1145
     24  O53      131.8530   39.3460   16.9270 O.3     1  I2P1       -0.1145
@<TRIPOS>BOND
     1    18    17    2
     2    22    21    2
     3    19    17    1
     4    17    10    1
     5    17    20    1
     6    10     4    1
     7    21    24    1
     8    21    23    1
     9    21    11    1
    10     5    11    1
    11     5     4    1
    12     5     6    1
    13     1     7    1
    14     1     6    1
    15     1     2    1
    16    12     6    1
    17     3     4    1
    18     3     9    1
    19     3     2    1
    20     2     8    1
    21     8    13    1
    22    14    13    2
    23    16    13    1
    24    13    15    1
