@<TRIPOS>MOLECULE
1djz_IP2_A_1.pdb
 20 20 0 0 0
SMALL
GASTEIGER

@<TRIPOS>ATOM
      1  C1       124.2070   40.9670   18.9080 C.3     1  IP21        0.2174
      2  C2       124.2830   39.4820   19.2640 C.3     1  IP21        0.2174
      3  C3       124.6850   38.7580   17.9390 C.3     1  IP21        0.2147
      4  C4       126.1940   38.9400   17.6250 C.3     1  IP21        0.1892
      5  C5       126.4720   40.4880   17.5490 C.3     1  IP21        0.1892
      6  C6       125.6530   41.4330   18.5160 C.3     1  IP21        0.2147
      7  O1       123.7660   41.6310   20.0820 O.3     1  IP21       -0.2175
      8  O2       125.3150   39.4700   20.2600 O.3     1  IP21       -0.2175
      9  O3       124.2310   37.4220   17.8200 O.3     1  IP21       -0.2176
     10  O4       126.6410   38.1910   16.4380 O.3     1  IP21       -0.2674
     11  O5       127.8820   40.7430   17.7370 O.3     1  IP21       -0.2674
     12  O6       125.6410   42.7660   17.9770 O.3     1  IP21       -0.2176
     13  P4       128.0570   37.3460   16.2060 P.3     1  IP21        0.5327
     14  O41      129.3580   38.3060   16.1240 O.3     1  IP21       -0.1145
     15  O42      128.0180   36.5360   14.8100 O.2     1  IP21       -0.2224
     16  O43      128.2840   36.2650   17.3920 O.3     1  IP21       -0.1145
     17  P5       128.6700   42.0040   17.0610 P.3     1  IP21        0.5327
     18  O51      127.6610   42.7620   16.0440 O.2     1  IP21       -0.2224
     19  O52      129.1480   43.0580   18.1940 O.3     1  IP21       -0.1145
     20  O53      129.9980   41.4860   16.2810 O.3     1  IP21       -0.1145
@<TRIPOS>BOND
     1    15    13    2
     2    18    17    2
     3    14    13    1
     4    13    10    1
     5    13    16    1
     6    20    17    1
     7    10     4    1
     8    17    11    1
     9    17    19    1
    10     5     4    1
    11     5    11    1
    12     5     6    1
    13     4     3    1
    14     9     3    1
    15     3     2    1
    16    12     6    1
    17     6     1    1
    18     1     2    1
    19     1     7    1
    20     2     8    1
