@<TRIPOS>MOLECULE
1dk0_HEM_A_1.pdb
 43 50 0 0 0
SMALL
GASTEIGER

@<TRIPOS>ATOM
      1 FE          9.7270    2.3820   25.1500 Fe    200  HEM200      0.0000
      2  CHA       11.5320    2.1140   28.0060 C.2   200  HEM200      0.0000
      3  CHB        6.9130    3.1250   26.9600 C.2   200  HEM200      0.0000
      4  CHC        7.8570    2.2720   22.2690 C.2   200  HEM200      0.0000
      5  CHD       12.5930    2.1090   23.2950 C.2   200  HEM200      0.0000
      6  NA         9.3170    2.5860   27.1060 N.2   200  HEM200      0.0000
      7  C1A       10.2020    2.4250   28.1450 C.2   200  HEM200      0.0000
      8  C2A        9.4810    2.6270   29.3960 C.2   200  HEM200      0.0000
      9  C3A        8.2130    2.8960   29.1070 C.2   200  HEM200      0.0000
     10  C4A        8.0880    2.8990   27.6560 C.2   200  HEM200      0.0000
     11  CMA        7.0630    3.2430   30.0760 C.3   200  HEM200      0.0000
     12  CAA       10.1570    2.5510   30.7810 C.3   200  HEM200      0.0000
     13  CBA        9.9720    1.2160   31.5030 C.3   200  HEM200      0.0000
     14  CGA       10.4730    1.1950   32.9410 C.2   200  HEM200      0.0000
     15  O1A       10.8240    2.3360   33.3870 O.co2 200  HEM200      0.0000
     16  O2A       10.4870    0.0570   33.4690 O.co2 200  HEM200      0.0000
     17  NB         7.7810    2.6200   24.6990 N.ar  200  HEM200      0.0000
     18  C1B        6.7710    2.9300   25.5990 C.ar  200  HEM200      0.0000
     19  C2B        5.5360    3.1000   24.8810 C.ar  200  HEM200      0.0000
     20  C3B        5.7880    2.8340   23.5890 C.ar  200  HEM200      0.0000
     21  C4B        7.2040    2.5660   23.4570 C.ar  200  HEM200      0.0000
     22  CMB        4.1660    3.4620   25.5370 C.3   200  HEM200      0.0000
     23  CAB        4.7770    2.8620   22.4180 C.2   200  HEM200      0.0000
     24  CBB        4.9620    3.7500   21.4520 C.2   200  HEM200      0.0000
     25  NC        10.1310    2.1850   23.1820 N.2   200  HEM200      0.0000
     26  C1C        9.2400    2.2030   22.1520 C.2   200  HEM200      0.0000
     27  C2C        9.9580    2.1750   20.8820 C.2   200  HEM200      0.0000
     28  C3C       11.2490    2.1530   21.1700 C.2   200  HEM200      0.0000
     29  C4C       11.3950    2.1580   22.6200 C.2   200  HEM200      0.0000
     30  CMC        9.2660    2.1740   19.4980 C.3   200  HEM200      0.0000
     31  CAC       12.5030    2.0970   20.2630 C.2   200  HEM200      0.0000
     32  CBC       12.4060    1.4380   19.0950 C.2   200  HEM200      0.0000
     33  ND        11.6830    2.1470   25.5520 N.ar  200  HEM200      0.0000
     34  C1D       12.7260    2.0790   24.6610 C.ar  200  HEM200      0.0000
     35  C2D       13.9810    2.0000   25.3970 C.ar  200  HEM200      0.0000
     36  C3D       13.6860    1.9990   26.6880 C.ar  200  HEM200      0.0000
     37  C4D       12.2470    2.0890   26.8300 C.ar  200  HEM200      0.0000
     38  CMD       15.3670    1.9280   24.7000 C.3   200  HEM200      0.0000
     39  CAD       14.6470    1.9630   27.9130 C.3   200  HEM200      0.0000
     40  CBD       15.0690    0.6270   28.4350 C.3   200  HEM200      0.0000
     41  CGD       16.0970    0.7090   29.5730 C.2   200  HEM200      0.0000
     42  O1D       16.6390   -0.3690   29.7930 O.co2 200  HEM200      0.0000
     43  O2D       16.2440    1.8170   30.1410 O.co2 200  HEM200      0.0000
@<TRIPOS>BOND
     1    32    31    2
     2    30    27    1
     3    31    28    1
     4    27    28    2
     5    27    26    1
     6    28    29    1
     7    24    23    2
     8    26     4    2
     9    26    25    1
    10     4    21    1
    11    23    20    1
    12    29    25    2
    13    29     5    1
    14    25     1    1
    15     5    34    2
    16    21    20   ar
    17    21    17   ar
    18    20    19   ar
    19    34    35   ar
    20    34    33   ar
    21    17     1    1
    22    17    18   ar
    23    38    35    1
    24    19    22    1
    25    19    18   ar
    26     1    33    1
    27     1     6    1
    28    35    36   ar
    29    33    37   ar
    30    18     3    1
    31    36    37   ar
    32    36    39    1
    33    37     2    2
    34     3    10    2
    35     6    10    1
    36     6     7    2
    37    10     9    1
    38    39    40    1
    39     2     7    1
    40     7     8    1
    41    40    41    1
    42     9     8    2
    43     9    11    1
    44     8    12    1
    45    41    42   ar
    46    41    43   ar
    47    12    13    1
    48    13    14    1
    49    14    15   ar
    50    14    16   ar
