@<TRIPOS>MOLECULE
1dka_PLP_A_1.pdb
 15 15 0 0 0
SMALL
GASTEIGER

@<TRIPOS>ATOM
      1  N1        17.7070   53.4200   13.8700 N.ar  437  PLP437     -0.2452
      2  C2        16.4720   53.5360   14.3770 C.ar  437  PLP437      0.0978
      3  C2A       15.5680   54.6100   13.7980 C.3   437  PLP437      0.0555
      4  C3        16.1280   52.6630   15.4250 C.ar  437  PLP437      0.2049
      5  O3        14.8720   52.8110   15.8930 O.3   437  PLP437     -0.2857
      6  C4        17.0260   51.7150   15.9070 C.ar  437  PLP437      0.0182
      7  C4A       16.6230   50.7370   16.8990 C.3   437  PLP437      0.0342
      8  C5        18.2890   51.6860   15.2610 C.ar  437  PLP437      0.0261
      9  C6        18.6210   52.5430   14.2800 C.ar  437  PLP437      0.0965
     10  C5A       19.4240   50.7520   15.7080 C.3   437  PLP437      0.1815
     11  O4P       19.1690   49.3840   15.5760 O.3   437  PLP437     -0.2653
     12  P         19.9970   48.4890   16.5510 P.3   437  PLP437      0.5329
     13  O1P       19.5150   48.7540   17.9180 O.3   437  PLP437     -0.1145
     14  O2P       19.7710   47.1000   16.1180 O.2   437  PLP437     -0.2224
     15  O3P       21.5030   48.8290   16.4220 O.3   437  PLP437     -0.1145
@<TRIPOS>BOND
     1     3     2    1
     2     1     9   ar
     3     1     2   ar
     4     9     8   ar
     5     2     4   ar
     6     8    10    1
     7     8     6   ar
     8     4     5    1
     9     4     6   ar
    10    11    10    1
    11    11    12    1
    12     6     7    1
    13    14    12    2
    14    15    12    1
    15    12    13    1
