@<TRIPOS>MOLECULE
1dke_HEM_A_1.pdb
 43 50 0 0 0
SMALL
GASTEIGER

@<TRIPOS>ATOM
      1 FE         23.3230   12.4830   23.3850 Fe    142  HEM142      0.0000
      2  CHA       26.4180   13.9890   23.9330 C.2   142  HEM142      0.0000
      3  CHB       21.7480   15.0840   25.0630 C.2   142  HEM142      0.0000
      4  CHC       20.3030   10.7520   23.5070 C.2   142  HEM142      0.0000
      5  CHD       24.9190    9.5530   22.7210 C.2   142  HEM142      0.0000
      6  NA        23.9230   14.1650   24.2970 N.2   142  HEM142      0.0000
      7  C1A       25.2540   14.5870   24.4230 C.2   142  HEM142      0.0000
      8  C2A       25.2600   15.8310   25.1790 C.2   142  HEM142      0.0000
      9  C3A       24.0060   16.1390   25.4820 C.2   142  HEM142      0.0000
     10  C4A       23.1410   15.0960   24.9310 C.2   142  HEM142      0.0000
     11  CMA       23.4850   17.3370   26.2860 C.3   142  HEM142      0.0000
     12  CAA       26.5640   16.5950   25.5140 C.3   142  HEM142      0.0000
     13  CBA       27.2290   17.5110   24.4880 C.3   142  HEM142      0.0000
     14  CGA       28.4980   18.1830   25.0440 C.2   142  HEM142      0.0000
     15  O1A       29.5680   17.5200   25.0780 O.co2 142  HEM142      0.0000
     16  O2A       28.3550   19.3500   25.4450 O.co2 142  HEM142      0.0000
     17  NB        21.3950   12.8550   24.1630 N.ar  142  HEM142      0.0000
     18  C1B       20.9170   14.0160   24.7610 C.ar  142  HEM142      0.0000
     19  C2B       19.4860   13.9030   25.0360 C.ar  142  HEM142      0.0000
     20  C3B       19.0940   12.7150   24.5940 C.ar  142  HEM142      0.0000
     21  C4B       20.2820   12.0360   24.0660 C.ar  142  HEM142      0.0000
     22  CMB       18.6130   15.0150   25.6860 C.3   142  HEM142      0.0000
     23  CAB       17.7050   12.0570   24.5990 C.2   142  HEM142      0.0000
     24  CBB       16.6600   12.4110   25.3710 C.2   142  HEM142      0.0000
     25  NC        22.7280   10.5500   23.1740 N.2   142  HEM142      0.0000
     26  C1C       21.4570   10.0350   23.2280 C.2   142  HEM142      0.0000
     27  C2C       21.4990    8.6150   22.9390 C.2   142  HEM142      0.0000
     28  C3C       22.7640    8.2550   22.7420 C.2   142  HEM142      0.0000
     29  C4C       23.5550    9.4680   22.8680 C.2   142  HEM142      0.0000
     30  CMC       20.2360    7.7000   22.9070 C.3   142  HEM142      0.0000
     31  CAC       23.3470    6.8810   22.3970 C.2   142  HEM142      0.0000
     32  CBC       23.2090    5.7640   23.0870 C.2   142  HEM142      0.0000
     33  ND        25.2810   11.8880   23.3560 N.ar  142  HEM142      0.0000
     34  C1D       25.7310   10.6290   23.0070 C.ar  142  HEM142      0.0000
     35  C2D       27.1770   10.6140   23.0160 C.ar  142  HEM142      0.0000
     36  C3D       27.5840   11.8310   23.3450 C.ar  142  HEM142      0.0000
     37  C4D       26.4210   12.6510   23.5710 C.ar  142  HEM142      0.0000
     38  CMD       28.0490    9.3780   22.6820 C.3   142  HEM142      0.0000
     39  CAD       29.0840   12.2990   23.5150 C.3   142  HEM142      0.0000
     40  CBD       29.5940   11.8880   24.9080 C.3   142  HEM142      0.0000
     41  CGD       30.7270   12.6680   25.5380 C.2   142  HEM142      0.0000
     42  O1D       30.6350   13.2810   26.6450 O.co2 142  HEM142      0.0000
     43  O2D       31.7900   12.6730   24.8970 O.co2 142  HEM142      0.0000
@<TRIPOS>BOND
     1    31    28    1
     2    31    32    2
     3    38    35    1
     4     5    29    1
     5     5    34    2
     6    28    29    1
     7    28    27    2
     8    29    25    2
     9    30    27    1
    10    27    26    1
    11    34    35   ar
    12    34    33   ar
    13    35    36   ar
    14    25    26    1
    15    25     1    1
    16    26     4    2
    17    36    39    1
    18    36    37   ar
    19    33     1    1
    20    33    37   ar
    21     1    17    1
    22     1     6    1
    23     4    21    1
    24    39    40    1
    25    37     2    2
    26     2     7    1
    27    21    17   ar
    28    21    20   ar
    29    17    18   ar
    30     6     7    2
    31     6    10    1
    32     7     8    1
    33    13    14    1
    34    13    12    1
    35    20    23    1
    36    20    19   ar
    37    23    24    2
    38    18    19   ar
    39    18     3    1
    40    43    41   ar
    41    40    41    1
    42    10     3    2
    43    10     9    1
    44    19    22    1
    45    14    15   ar
    46    14    16   ar
    47     8     9    2
    48     8    12    1
    49     9    11    1
    50    41    42   ar
