@<TRIPOS>MOLECULE
1dkf_BMS_B_1.pdb
 34 38 0 0 0
SMALL
GASTEIGER

@<TRIPOS>ATOM
      1  C5       -20.8010   80.9800    1.6000 C.ar  600  BMS600      0.0737
      2  C6       -20.6830   79.8690    2.5640 C.ar  600  BMS600      0.0168
      3  C7       -21.2310   78.5490    2.2790 C.ar  600  BMS600      0.0079
      4  C2       -21.9290   78.2640    1.0030 C.ar  600  BMS600      0.0799
      5  C3       -22.0590   79.3960    0.0140 C.ar  600  BMS600      0.0079
      6  C4       -21.4860   80.7380    0.3320 C.ar  600  BMS600      0.0168
      7  C1       -22.4750   76.8750    0.7720 C.2   600  BMS600      0.3878
      8  O1       -23.2700   76.6500   -0.2670 O.co2 600  BMS600     -0.2406
      9  O2       -22.1170   75.9310    1.6330 O.co2 600  BMS600     -0.2406
     10  N1       -20.2690   82.2240    1.9010 N.am  600  BMS600     -0.1754
     11  C8       -18.9210   82.4760    2.1780 C.2   600  BMS600      0.2690
     12  C9       -18.4270   83.7530    1.8290 C.ar  600  BMS600      0.0554
     13  C10      -19.2960   84.7650    1.2250 C.ar  600  BMS600      0.0043
     14  C11      -18.7300   86.1160    0.8550 C.ar  600  BMS600     -0.0041
     15  C12      -17.2330   86.4050    1.1210 C.ar  600  BMS600     -0.0225
     16  C13      -16.3960   85.3350    1.7470 C.ar  600  BMS600     -0.0041
     17  C14      -16.9710   84.0600    2.0880 C.ar  600  BMS600      0.0043
     18  O3       -18.1280   81.6230    2.7080 O.2   600  BMS600     -0.2680
     19  C15      -19.5660   87.2630    0.2100 C.2   600  BMS600     -0.0031
     20  C16      -18.9370   88.3650   -0.4320 C.2   600  BMS600     -0.0258
     21  C17      -17.4470   88.4840   -0.5240 C.3   600  BMS600      0.0301
     22  C18      -16.6670   87.8190    0.7180 C.3   600  BMS600      0.0230
     23  C19      -16.8140   88.7880    1.9260 C.3   600  BMS600      0.0047
     24  C20      -15.1860   87.7190    0.2480 C.3   600  BMS600      0.0047
     25  C21      -20.9640   87.2990    0.2130 C.ar  600  BMS600      0.0189
     26  C22      -21.6010   87.3870    1.5910 C.ar  600  BMS600      0.0988
     27  N2       -22.9850   87.4320    1.7790 N.ar  600  BMS600     -0.2438
     28  C23      -23.8660   87.3890    0.6790 C.ar  600  BMS600      0.0813
     29  C24      -23.2350   87.3030   -0.8040 C.ar  600  BMS600      0.0177
     30  C25      -21.8230   87.2590   -0.9880 C.ar  600  BMS600      0.0030
     31  C26      -25.3040   87.4380    0.8760 C.ar  600  BMS600      0.0191
     32  C27      -26.1650   87.3960   -0.3480 C.ar  600  BMS600      0.0015
     33  C28      -25.5490   87.3130   -1.7790 C.ar  600  BMS600      0.0001
     34  C29      -24.0630   87.2650   -1.9710 C.ar  600  BMS600      0.0015
@<TRIPOS>BOND
     1    34    33   ar
     2    34    29   ar
     3    33    32   ar
     4    30    29   ar
     5    30    25   ar
     6    29    28   ar
     7    21    20    1
     8    21    22    1
     9    20    19    2
    10    32    31   ar
    11     8     7   ar
    12     5     6   ar
    13     5     4   ar
    14    19    25    1
    15    19    14    1
    16    25    26   ar
    17    24    22    1
    18     6     1   ar
    19    28    31   ar
    20    28    27   ar
    21    22    15    1
    22    22    23    1
    23     7     4    1
    24     7     9   ar
    25    14    15   ar
    26    14    13   ar
    27     4     3   ar
    28    15    16   ar
    29    13    12   ar
    30    26    27   ar
    31     1    10    1
    32     1     2   ar
    33    16    17   ar
    34    12    17   ar
    35    12    11    1
    36    10    11   am
    37    11    18    2
    38     3     2   ar
