@<TRIPOS>MOLECULE
1dkh_HEM_A_1.pdb
 43 50 0 0 0
SMALL
GASTEIGER

@<TRIPOS>ATOM
      1 FE         34.2160   50.5980   20.7280 Fe    200  HEM200      0.0000
      2  CHA       31.6050   48.6930   19.9210 C.2   200  HEM200      0.0000
      3  CHB       35.6290   49.9760   17.7200 C.2   200  HEM200      0.0000
      4  CHC       37.2550   51.3410   21.9170 C.2   200  HEM200      0.0000
      5  CHD       32.8400   50.9420   23.8090 C.2   200  HEM200      0.0000
      6  NA        33.7280   49.5890   19.2070 N.ar  200  HEM200      0.0000
      7  C1A       32.5950   48.8370   19.0130 C.ar  200  HEM200      0.0000
      8  C2A       32.4250   48.4760   17.6150 C.ar  200  HEM200      0.0000
      9  C3A       33.5380   48.8760   16.9960 C.ar  200  HEM200      0.0000
     10  C4A       34.3350   49.5830   17.9610 C.ar  200  HEM200      0.0000
     11  CMA       33.9400   48.4820   15.5920 C.3   200  HEM200      0.0000
     12  CAA       31.1930   48.0620   16.8460 C.3   200  HEM200      0.0000
     13  CBA       30.1640   47.0320   17.2710 C.3   200  HEM200      0.0000
     14  CGA       29.1820   46.7480   16.1420 C.2   200  HEM200      0.0000
     15  O1A       28.6630   47.7340   15.5350 O.co2 200  HEM200      0.0000
     16  O2A       28.9390   45.5420   15.8610 O.co2 200  HEM200      0.0000
     17  NB        36.0320   50.5050   20.0340 N.2   200  HEM200      0.0000
     18  C1B       36.4570   50.3500   18.7210 C.2   200  HEM200      0.0000
     19  C2B       37.8900   50.4120   18.5170 C.2   200  HEM200      0.0000
     20  C3B       38.2970   50.5740   19.7630 C.2   200  HEM200      0.0000
     21  C4B       37.1790   50.6840   20.6940 C.2   200  HEM200      0.0000
     22  CMB       38.8080   50.3710   17.2700 C.3   200  HEM200      0.0000
     23  CAB       39.6230   50.7450   20.0250 C.3   200  HEM200      0.0000
     24  CBB       40.2570   52.0350   19.5290 C.3   200  HEM200      0.0000
     25  NC        34.8900   51.2980   22.3890 N.ar  200  HEM200      0.0000
     26  C1C       36.1630   51.6970   22.6890 C.ar  200  HEM200      0.0000
     27  C2C       36.2690   52.1410   24.0850 C.ar  200  HEM200      0.0000
     28  C3C       35.0720   51.8680   24.6750 C.ar  200  HEM200      0.0000
     29  C4C       34.1930   51.3690   23.6100 C.ar  200  HEM200      0.0000
     30  CMC       37.4720   52.8000   24.7740 C.3   200  HEM200      0.0000
     31  CAC       34.7710   51.9770   26.0430 C.3   200  HEM200      0.0000
     32  CBC       33.9500   50.9450   26.8850 C.3   200  HEM200      0.0000
     33  ND        32.5760   50.0180   21.6030 N.2   200  HEM200      0.0000
     34  C1D       32.0870   50.3470   22.8330 C.2   200  HEM200      0.0000
     35  C2D       30.6880   50.0200   22.9330 C.2   200  HEM200      0.0000
     36  C3D       30.2490   49.5960   21.7480 C.2   200  HEM200      0.0000
     37  C4D       31.5270   49.4130   21.0460 C.2   200  HEM200      0.0000
     38  CMD       29.8910   49.7440   24.1650 C.3   200  HEM200      0.0000
     39  CAD       28.7770   49.2660   21.2380 C.3   200  HEM200      0.0000
     40  CBD       27.6370   50.2460   20.8980 C.3   200  HEM200      0.0000
     41  CGD       26.4430   49.5640   20.2490 C.2   200  HEM200      0.0000
     42  O1D       25.8720   48.6150   20.8420 O.co2 200  HEM200      0.0000
     43  O2D       26.0760   49.9810   19.1350 O.co2 200  HEM200      0.0000
@<TRIPOS>BOND
     1    15    14   ar
     2    11     9    1
     3    16    14   ar
     4    14    13    1
     5    12    13    1
     6    12     8    1
     7     9     8   ar
     8     9    10   ar
     9    22    19    1
    10     8     7   ar
    11     3    10    2
    12     3    18    1
    13    10     6   ar
    14    19    18    1
    15    19    20    2
    16    18    17    2
    17     7     6   ar
    18     7     2    2
    19    43    41   ar
    20     6     1    1
    21    24    23    1
    22    20    23    1
    23    20    21    1
    24     2    37    1
    25    17    21    1
    26    17     1    1
    27    41    42   ar
    28    41    40    1
    29    21     4    2
    30     1    33    1
    31     1    25    1
    32    40    39    1
    33    37    33    2
    34    37    36    1
    35    39    36    1
    36    33    34    1
    37    36    35    2
    38     4    26    1
    39    25    26   ar
    40    25    29   ar
    41    26    27   ar
    42    34    35    1
    43    34     5    2
    44    35    38    1
    45    29     5    1
    46    29    28   ar
    47    27    28   ar
    48    27    30    1
    49    28    31    1
    50    31    32    1
