@<TRIPOS>MOLECULE
1dkp_IHP_A_1.pdb
 36 36 0 0 0
SMALL
GASTEIGER

@<TRIPOS>ATOM
      1  C1        -5.1060   38.4150   23.7230 C.3   550  IHP550      0.1863
      2  C2        -4.0190   37.4700   24.3510 C.3   550  IHP550      0.1863
      3  C3        -4.5120   36.8730   25.7280 C.3   550  IHP550      0.1863
      4  C4        -5.8760   36.0790   25.5370 C.3   550  IHP550      0.1863
      5  C5        -6.9420   36.9500   24.7850 C.3   550  IHP550      0.1863
      6  C6        -6.3900   37.5850   23.4840 C.3   550  IHP550      0.1863
      7  O11       -4.6480   38.9540   22.4620 O.3   550  IHP550     -0.2675
      8  P1        -3.7030   40.2420   22.3890 P.3   550  IHP550      0.5327
      9  O21       -4.1880   41.3030   23.4850 O.3   550  IHP550     -0.1145
     10  O31       -3.8030   40.8300   21.0180 O.2   550  IHP550     -0.2224
     11  O41       -2.1770   39.8900   22.6900 O.3   550  IHP550     -0.1145
     12  O12       -3.7410   36.3670   23.4590 O.3   550  IHP550     -0.2675
     13  P2        -2.3150   36.1680   22.7270 P.3   550  IHP550      0.5327
     14  O22       -2.5170   35.8890   21.1670 O.2   550  IHP550     -0.2224
     15  O32       -1.4360   37.3680   22.8910 O.3   550  IHP550     -0.1145
     16  O42       -1.5710   34.9200   23.3600 O.3   550  IHP550     -0.1145
     17  O13       -3.5020   36.0110   26.2700 O.3   550  IHP550     -0.2675
     18  P3        -2.5910   36.5370   27.5080 P.3   550  IHP550      0.5327
     19  O23       -3.4400   36.8690   28.6790 O.3   550  IHP550     -0.1145
     20  O33       -1.7840   37.8340   27.0800 O.2   550  IHP550     -0.2224
     21  O43       -1.5650   35.3950   27.9110 O.3   550  IHP550     -0.1145
     22  O14       -6.4420   35.7080   26.8020 O.3   550  IHP550     -0.2675
     23  P4        -6.8350   34.1600   27.0570 P.3   550  IHP550      0.5327
     24  O24       -6.0790   33.6800   28.2460 O.3   550  IHP550     -0.1145
     25  O34       -6.5340   33.2020   25.8250 O.2   550  IHP550     -0.2224
     26  O44       -8.3870   34.0780   27.3980 O.3   550  IHP550     -0.1145
     27  O15       -8.1010   36.1820   24.4190 O.3   550  IHP550     -0.2675
     28  P5        -9.5350   36.4830   25.0740 P.3   550  IHP550      0.5327
     29  O25       -9.4380   37.4940   26.1660 O.3   550  IHP550     -0.1145
     30  O35      -10.5250   36.9860   23.9300 O.2   550  IHP550     -0.2224
     31  O45      -10.1080   35.1290   25.6910 O.3   550  IHP550     -0.1145
     32  O16       -7.4410   38.3940   22.9120 O.3   550  IHP550     -0.2675
     33  P6        -8.0260   38.0610   21.4620 P.3   550  IHP550      0.5327
     34  O26       -8.8780   39.3080   20.9550 O.3   550  IHP550     -0.1145
     35  O36       -8.9840   36.7860   21.5360 O.3   550  IHP550     -0.1145
     36  O46       -6.9150   37.7960   20.5020 O.2   550  IHP550     -0.2224
@<TRIPOS>BOND
     1    36    33    2
     2    34    33    1
     3    10     8    2
     4    14    13    2
     5    33    35    1
     6    33    32    1
     7     8     7    1
     8     8    11    1
     9     8     9    1
    10     7     1    1
    11    13    15    1
    12    13    16    1
    13    13    12    1
    14    32     6    1
    15    12     2    1
    16     6     1    1
    17     6     5    1
    18     1     2    1
    19    30    28    2
    20     2     3    1
    21    27     5    1
    22    27    28    1
    23     5     4    1
    24    28    31    1
    25    28    29    1
    26     4     3    1
    27     4    22    1
    28     3    17    1
    29    25    23    2
    30    17    18    1
    31    22    23    1
    32    23    26    1
    33    23    24    1
    34    20    18    2
    35    18    21    1
    36    18    19    1
