@<TRIPOS>MOLECULE
1dkq_IHP_A_1.pdb
 36 36 0 0 0
SMALL
GASTEIGER

@<TRIPOS>ATOM
      1  C1        -5.2630   38.1830   23.6200 C.3   550  IHP550      0.1863
      2  C2        -4.1290   37.3020   24.2230 C.3   550  IHP550      0.1863
      3  C3        -4.5610   36.7200   25.6260 C.3   550  IHP550      0.1863
      4  C4        -5.8900   35.8740   25.5000 C.3   550  IHP550      0.1863
      5  C5        -7.0030   36.6840   24.7670 C.3   550  IHP550      0.1863
      6  C6        -6.5190   37.3040   23.4350 C.3   550  IHP550      0.1863
      7  O11       -4.8500   38.7080   22.3440 O.3   550  IHP550     -0.2675
      8  P1        -4.0500   40.0820   22.2510 P.3   550  IHP550      0.5327
      9  O21       -4.6830   41.1050   23.3080 O.3   550  IHP550     -0.1145
     10  O31       -4.1780   40.6170   20.8630 O.2   550  IHP550     -0.2224
     11  O41       -2.5010   39.9020   22.6100 O.3   550  IHP550     -0.1145
     12  O12       -3.8600   36.2010   23.3290 O.3   550  IHP550     -0.2675
     13  P2        -2.4140   35.9550   22.6750 P.3   550  IHP550      0.5327
     14  O22       -2.5390   35.4270   21.1800 O.2   550  IHP550     -0.2224
     15  O32       -1.5980   37.2100   22.6700 O.3   550  IHP550     -0.1145
     16  O42       -1.6550   34.8440   23.5190 O.3   550  IHP550     -0.1145
     17  O13       -3.5110   35.9220   26.1610 O.3   550  IHP550     -0.2675
     18  P3        -2.6840   36.5110   27.4180 P.3   550  IHP550      0.5327
     19  O23       -3.6120   36.8430   28.5300 O.3   550  IHP550     -0.1145
     20  O33       -1.9100   37.8250   26.9880 O.2   550  IHP550     -0.2224
     21  O43       -1.6380   35.4430   27.9130 O.3   550  IHP550     -0.1145
     22  O14       -6.4030   35.5230   26.7790 O.3   550  IHP550     -0.2675
     23  P4        -7.0720   34.0740   26.9780 P.3   550  IHP550      0.5327
     24  O24       -6.4180   33.4340   28.1640 O.3   550  IHP550     -0.1145
     25  O34       -6.9440   33.1060   25.7250 O.2   550  IHP550     -0.2224
     26  O44       -8.6240   34.2800   27.3050 O.3   550  IHP550     -0.1145
     27  O15       -8.1420   35.8720   24.4700 O.3   550  IHP550     -0.2675
     28  P5        -9.5970   36.3830   24.8990 P.3   550  IHP550      0.5327
     29  O25       -9.5000   37.4430   25.9400 O.3   550  IHP550     -0.1145
     30  O35      -10.3510   36.9350   23.6170 O.2   550  IHP550     -0.2224
     31  O45      -10.4120   35.1570   25.4990 O.3   550  IHP550     -0.1145
     32  O16       -7.6200   38.0610   22.8910 O.3   550  IHP550     -0.2675
     33  P6        -8.0570   37.8900   21.3680 P.3   550  IHP550      0.5327
     34  O26       -8.8700   39.1810   20.9200 O.3   550  IHP550     -0.1145
     35  O36       -9.0010   36.6130   21.2120 O.3   550  IHP550     -0.1145
     36  O46       -6.8560   37.7370   20.4990 O.2   550  IHP550     -0.2224
@<TRIPOS>BOND
     1    36    33    2
     2    10     8    2
     3    34    33    1
     4    14    13    2
     5    35    33    1
     6    33    32    1
     7     8     7    1
     8     8    11    1
     9     8     9    1
    10     7     1    1
    11    15    13    1
    12    13    12    1
    13    13    16    1
    14    32     6    1
    15    12     2    1
    16     6     1    1
    17     6     5    1
    18    30    28    2
    19     1     2    1
    20     2     3    1
    21    27     5    1
    22    27    28    1
    23     5     4    1
    24    28    31    1
    25    28    29    1
    26     4     3    1
    27     4    22    1
    28     3    17    1
    29    25    23    2
    30    17    18    1
    31    22    23    1
    32    23    26    1
    33    23    24    1
    34    20    18    2
    35    18    21    1
    36    18    19    1
