@<TRIPOS>MOLECULE
1dkt_V7O_A_1.pdb
 26 25 0 0 0
SMALL
GASTEIGER

@<TRIPOS>ATOM
      1  V1       -31.8840   67.5140   18.9100 V     100  V7O100      0.0000
      2  V2       -30.0330   69.0720   17.1260 V     100  V7O100      0.0000
      3  V3       -28.9560   66.3990   18.3650 V     100  V7O100      0.0000
      4  V4       -26.2010   66.5860   20.2260 V     100  V7O100      0.0000
      5  V5       -26.1770   68.3480   22.7240 V     100  V7O100      0.0000
      6  V6       -24.9340   70.7590   21.2790 V     100  V7O100      0.0000
      7  V7       -26.9090   71.3820   23.1760 V     100  V7O100      0.0000
      8  O1       -33.4070   67.9590   18.5150 O.3   100  V7O100      0.0000
      9  O2       -30.9230   68.5130   19.8990 O.3   100  V7O100      0.0000
     10  O3       -31.7480   66.9120   20.2990 O.3   100  V7O100      0.0000
     11  O4       -30.2380   67.6700   18.3590 O.3   100  V7O100      0.0000
     12  O5       -28.5710   69.6180   17.0580 O.3   100  V7O100      0.0000
     13  O6       -30.0110   70.5530   17.6660 O.3   100  V7O100      0.0000
     14  O7       -29.0490   64.8090   18.9640 O.3   100  V7O100      0.0000
     15  O8       -27.8500   66.5800   17.3030 O.3   100  V7O100      0.0000
     16  O9       -27.4620   67.0080   18.9970 O.3   100  V7O100      0.0000
     17  O10      -25.4280   65.3690   19.8150 O.3   100  V7O100      0.0000
     18  O11      -24.9510   67.0160   19.5570 O.3   100  V7O100      0.0000
     19  O12      -25.3830   67.3600   21.5700 O.3   100  V7O100      0.0000
     20  O13      -25.3740   67.9720   23.9750 O.3   100  V7O100      0.0000
     21  O14      -25.9770   70.0680   22.5510 O.3   100  V7O100      0.0000
     22  O15      -23.7150   69.9980   21.7140 O.3   100  V7O100      0.0000
     23  O16      -24.3620   69.9070   20.1470 O.3   100  V7O100      0.0000
     24  O17      -28.4450   70.7260   22.7480 O.3   100  V7O100      0.0000
     25  O18      -27.3390   72.1840   22.0330 O.3   100  V7O100      0.0000
     26  O19      -27.6150   71.6740   24.5200 O.3   100  V7O100      0.0000
@<TRIPOS>BOND
     1    12     2    1
     2     2    13    1
     3    15     3    1
     4    11     3    1
     5    11     1    1
     6     3    14    1
     7     3    16    1
     8     8     1    1
     9     1     9    1
    10     1    10    1
    11    16     4    1
    12    18    17    1
    13    18     4    1
    14    17     4    1
    15    23     6    1
    16    23    22    1
    17     4    19    1
    18     6    22    1
    19    19     5    1
    20    25     7    1
    21    21     5    1
    22    21     7    1
    23     5    20    1
    24    24     7    1
    25     7    26    1
