@<TRIPOS>MOLECULE
1dku_AP2_A_1.pdb
 27 29 0 0 0
SMALL
GASTEIGER

@<TRIPOS>ATOM
      1  PB        16.9280   57.0840   32.5700 P.3   1002  AP21002     0.1295
      2  O1B       16.9060   58.5200   32.7920 O.3   1002  AP21002    -0.3567
      3  O2B       15.7670   56.4500   31.9770 O.2   1002  AP21002    -0.4595
      4  O3B       18.2200   56.5830   32.1570 O.3   1002  AP21002    -0.3567
      5  C3A       16.7350   56.3940   34.1630 C.3   1002  AP21002     0.1765
      6  PA        17.1420   57.3570   35.5260 P.3   1002  AP21002     0.3770
      7  O1A       16.3490   58.5900   35.4120 O.2   1002  AP21002    -0.2550
      8  O2A       16.9790   56.4160   36.6090 O.3   1002  AP21002    -0.1394
      9  O5'       18.6980   57.6670   35.2740 O.3   1002  AP21002    -0.2897
     10  C5'       19.3320   58.8220   35.7830 C.3   1002  AP21002     0.1836
     11  C4'       19.7560   58.6950   37.2710 C.3   1002  AP21002     0.1822
     12  O4'       20.1370   57.3530   37.6680 O.3   1002  AP21002    -0.3135
     13  C3'       20.9440   59.5820   37.5810 C.3   1002  AP21002     0.2184
     14  O3'       20.5410   60.8880   37.9090 O.3   1002  AP21002    -0.2174
     15  C2'       21.6740   58.8930   38.6980 C.3   1002  AP21002     0.2570
     16  O2'       21.1830   59.3130   39.9850 O.3   1002  AP21002    -0.2130
     17  C1'       21.3420   57.4230   38.4910 C.3   1002  AP21002     0.3186
     18  N9        22.4650   56.7350   37.7980 N.pl3 1002  AP21002    -0.1439
     19  C8        22.4240   55.9810   36.6490 C.3   1002  AP21002     0.3377
     20  N7        23.4790   55.2520   36.4700 N.2   1002  AP21002    -0.2095
     21  C5        24.3880   55.7620   37.3900 C.2   1002  AP21002     0.2526
     22  C6        25.7550   55.5230   37.5760 C.2   1002  AP21002     0.4393
     23  N6        26.4570   54.8020   36.7000 N.pl3 1002  AP21002     0.2180
     24  N1        26.4030   56.2560   38.4990 N.2   1002  AP21002     0.0021
     25  C2        25.6870   57.0830   39.2770 C.3   1002  AP21002     0.5254
     26  N3        24.3770   57.4210   39.1900 N.2   1002  AP21002    -0.0055
     27  C4        23.7960   56.7240   38.1670 C.2   1002  AP21002     0.3518
@<TRIPOS>BOND
     1     3     1    2
     2     4     1    1
     3     1     2    1
     4     1     5    1
     5     5     6    1
     6     9     6    1
     7     9    10    1
     8     7     6    2
     9     6     8    1
    10    10    11    1
    11    20    19    1
    12    20    21    2
    13    19    18    1
    14    23    22    1
    15    11    13    1
    16    11    12    1
    17    21    22    1
    18    21    27    1
    19    22    24    2
    20    13    14    1
    21    13    15    1
    22    12    17    1
    23    18    27    1
    24    18    17    1
    25    27    26    2
    26    17    15    1
    27    24    25    1
    28    15    16    1
    29    26    25    1
