@<TRIPOS>MOLECULE
1dku_ABM_A_1.pdb
 23 25 0 0 0
SMALL
GASTEIGER

@<TRIPOS>ATOM
      1  P         31.6440   65.3510   57.0850 P.3   1003  ABM1003     0.3704
      2  CM        33.1410   65.7030   56.1210 C.3   1003  ABM1003     0.1309
      3  O2P       32.0080   64.2120   58.0790 O.3   1003  ABM1003    -0.1398
      4  O3P       30.5240   65.1140   56.0660 O.2   1003  ABM1003    -0.2555
      5  O5'       31.3770   66.7320   57.8950 O.3   1003  ABM1003    -0.2900
      6  C5'       30.1140   66.9810   58.6200 C.3   1003  ABM1003     0.1836
      7  C4'       30.2510   68.1480   59.6800 C.3   1003  ABM1003     0.1822
      8  O4'       30.8080   69.3910   59.0800 O.3   1003  ABM1003    -0.3135
      9  C3'       28.9180   68.5550   60.3340 C.3   1003  ABM1003     0.2184
     10  O3'       28.5840   67.7170   61.4950 O.3   1003  ABM1003    -0.2174
     11  C2'       29.1580   70.0230   60.7230 C.3   1003  ABM1003     0.2570
     12  O2'       29.8610   70.0800   62.0150 O.3   1003  ABM1003    -0.2130
     13  C1'       30.1410   70.5400   59.6680 C.3   1003  ABM1003     0.3186
     14  N9        29.5200   71.3980   58.6200 N.pl3 1003  ABM1003    -0.1439
     15  C8        28.1690   71.6390   58.3390 C.3   1003  ABM1003     0.3377
     16  N7        27.9690   72.7620   57.6760 N.2   1003  ABM1003    -0.2095
     17  C5        29.2780   73.1760   57.3050 C.2   1003  ABM1003     0.2526
     18  C6        29.7870   74.3660   56.7100 C.2   1003  ABM1003     0.4393
     19  N6        29.1630   75.0460   55.7660 N.pl3 1003  ABM1003     0.2180
     20  N1        31.0260   74.7540   57.0510 N.2   1003  ABM1003     0.0021
     21  C2        31.8210   73.8800   57.6230 C.3   1003  ABM1003     0.5254
     22  N3        31.5330   72.6710   58.0840 N.2   1003  ABM1003    -0.0055
     23  C4        30.2070   72.4110   57.9610 C.2   1003  ABM1003     0.3518
@<TRIPOS>BOND
     1    19    18    1
     2     4     1    2
     3     2     1    1
     4    18    20    2
     5    18    17    1
     6    20    21    1
     7     1     5    1
     8     1     3    1
     9    17    16    2
    10    17    23    1
    11    21    22    1
    12    16    15    1
    13     5     6    1
    14    23    22    2
    15    23    14    1
    16    15    14    1
    17    14    13    1
    18     6     7    1
    19     8    13    1
    20     8     7    1
    21    13    11    1
    22     7     9    1
    23     9    11    1
    24     9    10    1
    25    11    12    1
