@<TRIPOS>MOLECULE
1dky_III_C_1.pdb
 29 28 0 0 0
SMALL
GASTEIGER

@<TRIPOS>ATOM
      1  N         44.9570   29.6690    8.5800 N.3     2  ARG2       -0.1231
      2  CA        44.3770   30.2970    9.8040 C.3     2  ARG2        0.1694
      3  C         43.4060   29.3260   10.4790 C.2     2  ARG2        0.2592
      4  O         42.3400   29.0220    9.9340 O.2     2  ARG2       -0.2718
      5  CB        43.6810   31.5980    9.4450 C.3     2  ARG2        0.0304
      6  N         43.7950   28.8480   11.6620 N.am    3  LEU3       -0.1966
      7  CA        43.0160   27.8730   12.4110 C.3     3  LEU3        0.1728
      8  C         42.2960   28.5470   13.5380 C.2     3  LEU3        0.2616
      9  O         42.6960   29.6270   13.9540 O.2     3  LEU3       -0.2715
     10  CB        43.9310   26.7730   12.9600 C.3     3  LEU3        0.0311
     11  CG        44.9940   26.1780   12.0130 C.3     3  LEU3        0.0022
     12  CD1       45.7510   25.1050   12.7490 C.3     3  LEU3        0.0001
     13  CD2       44.4000   25.6140   10.7270 C.3     3  LEU3        0.0001
     14  N         41.2510   27.8920   14.0330 N.am    4  LEU4       -0.1963
     15  CA        40.4240   28.4020   15.1190 C.3     4  LEU4        0.1728
     16  C         40.3930   27.3310   16.2170 C.2     4  LEU4        0.2616
     17  O         40.7370   26.1870   15.9440 O.2     4  LEU4       -0.2715
     18  CB        39.0020   28.6370   14.5990 C.3     4  LEU4        0.0311
     19  CG        38.7480   29.2220   13.1960 C.3     4  LEU4        0.0022
     20  CD1       37.2930   28.9740   12.7870 C.3     4  LEU4        0.0001
     21  CD2       39.0730   30.6980   13.1410 C.3     4  LEU4        0.0001
     22  N         39.9840   27.6920   17.4380 N.am    5  LEU5       -0.1977
     23  CA        39.8860   26.7440   18.5620 C.3     5  LEU5        0.1596
     24  C         38.4530   26.3210   18.8920 C.2     5  LEU5        0.2287
     25  O         37.5530   27.1770   18.7590 O.2     5  LEU5       -0.2864
     26  CB        40.5300   27.3070   19.8240 C.3     5  LEU5        0.0297
     27  CG        42.0530   27.2320   19.8550 C.3     5  LEU5        0.0022
     28  CD1       42.6020   27.6970   21.2240 C.3     5  LEU5        0.0001
     29  CD2       42.4740   25.7840   19.5610 C.3     5  LEU5        0.0001
@<TRIPOS>BOND
     1     1     2    1
     2     5     2    1
     3     2     3    1
     4     4     3    2
     5     3     6   am
     6    13    11    1
     7     6     7    1
     8    11    12    1
     9    11    10    1
    10     7    10    1
    11     7     8    1
    12    20    19    1
    13    21    19    1
    14    19    18    1
    15     8     9    2
    16     8    14   am
    17    14    15    1
    18    18    15    1
    19    15    16    1
    20    17    16    2
    21    16    22   am
    22    22    23    1
    23    23    24    1
    24    23    26    1
    25    25    24    2
    26    29    27    1
    27    26    27    1
    28    27    28    1
