@<TRIPOS>MOLECULE
1dl2_NAG_A_1.pdb
 14 14 0 0 0
SMALL
GASTEIGER

@<TRIPOS>ATOM
      1  C1         4.4240   79.4530    7.3260 C.3   600  NAG600      0.1665
      2  C2         3.4930   79.8810    6.2140 C.3   600  NAG600      0.1576
      3  C3         4.1460   81.0550    5.4960 C.3   600  NAG600      0.2069
      4  C4         4.5570   82.1690    6.4850 C.3   600  NAG600      0.2134
      5  C5         5.2240   81.6260    7.7650 C.3   600  NAG600      0.1809
      6  C6         5.3240   82.6540    8.8770 C.3   600  NAG600      0.2141
      7  C7         2.1960   78.0120    5.4220 C.2   600  NAG600      0.2420
      8  C8         2.0500   76.8790    4.4280 C.3   600  NAG600      0.0964
      9  N2         3.2780   78.7760    5.3040 N.am  600  NAG600     -0.2019
     10  O3         3.2390   81.5790    4.5410 O.3   600  NAG600     -0.2184
     11  O4         5.5060   83.0260    5.8340 O.3   600  NAG600     -0.2176
     12  O5         4.4910   80.5050    8.2850 O.3   600  NAG600     -0.3489
     13  O6         4.0600   82.9050    9.4730 O.3   600  NAG600     -0.2176
     14  O7         1.3280   78.1930    6.2800 O.2   600  NAG600     -0.2733
@<TRIPOS>BOND
     1     8     7    1
     2    10     3    1
     3     9     7   am
     4     9     2    1
     5     7    14    2
     6     3     2    1
     7     3     4    1
     8    11     4    1
     9     2     1    1
    10     4     5    1
    11     1    12    1
    12     5    12    1
    13     5     6    1
    14     6    13    1
