@<TRIPOS>MOLECULE
1dl5_SAH_A_1.pdb
 26 28 0 0 0
SMALL
GASTEIGER

@<TRIPOS>ATOM
      1  N          8.3210  -23.2530   -2.4870 N.3   699  SAH699     -0.1208
      2  CA         6.9640  -23.8790   -1.9570 C.3   699  SAH699      0.1952
      3  CB         6.1250  -22.7980   -1.2670 C.3   699  SAH699      0.0422
      4  CG         5.3460  -23.7550   -0.2180 C.3   699  SAH699      0.0597
      5  SD         4.2920  -22.8100    0.8620 S.3   699  SAH699     -0.1375
      6  C          6.3840  -24.6370   -3.2920 C.2   699  SAH699      0.3819
      7  O          6.9060  -24.5180   -4.3750 O.co2 699  SAH699     -0.2441
      8  OXT        5.2840  -25.1810   -3.0930 O.co2 699  SAH699     -0.2441
      9  C5'        5.5270  -22.5210    2.1170 C.3   699  SAH699      0.0899
     10  C4'        5.7140  -23.7230    3.2310 C.3   699  SAH699      0.1630
     11  O4'        6.6890  -23.2950    4.1940 O.3   699  SAH699     -0.3153
     12  C3'        4.4430  -24.6330    3.6860 C.3   699  SAH699      0.2168
     13  O3'        4.5110  -25.7420    3.0600 O.3   699  SAH699     -0.2175
     14  C2'        4.8180  -24.6950    5.1230 C.3   699  SAH699      0.2569
     15  O2'        4.5320  -25.7900    5.9490 O.3   699  SAH699     -0.2130
     16  C1'        6.4260  -24.2180    5.1640 C.3   699  SAH699      0.3185
     17  N9         6.8850  -23.8560    6.4770 N.pl3 699  SAH699     -0.1439
     18  C8         6.4150  -23.1210    7.5070 C.3   699  SAH699      0.3377
     19  N7         7.0920  -22.9770    8.5560 N.2   699  SAH699     -0.2095
     20  C5         8.1280  -23.4580    8.2340 C.2   699  SAH699      0.2526
     21  C6         9.6130  -23.5940    8.9770 C.2   699  SAH699      0.4393
     22  N6         9.9030  -23.1820   10.1010 N.pl3 699  SAH699      0.2180
     23  N1        10.6150  -24.3240    8.0990 N.2   699  SAH699      0.0021
     24  C2        10.6580  -24.9670    6.8560 C.3   699  SAH699      0.5254
     25  N3         9.3140  -24.8640    6.2350 N.2   699  SAH699     -0.0055
     26  C4         8.0100  -24.0690    6.8900 C.2   699  SAH699      0.3518
@<TRIPOS>BOND
     1     7     6   ar
     2     6     8   ar
     3     6     2    1
     4     1     2    1
     5     2     3    1
     6     3     4    1
     7     4     5    1
     8     5     9    1
     9     9    10    1
    10    13    12    1
    11    10    12    1
    12    10    11    1
    13    12    14    1
    14    11    16    1
    15    14    16    1
    16    14    15    1
    17    16    17    1
    18    25    24    1
    19    25    26    2
    20    17    26    1
    21    17    18    1
    22    24    23    1
    23    26    20    1
    24    18    19    1
    25    23    21    2
    26    20    19    2
    27    20    21    1
    28    21    22    1
