@<TRIPOS>MOLECULE
1dl7_NCH_L_1.pdb
 20 20 0 0 0
SMALL
GASTEIGER

@<TRIPOS>ATOM
      1  O4       106.0490   23.8740   17.7300 O.2   999  NCH999     -0.5082
      2  P1       106.5490   23.7800   19.1090 P.3   999  NCH999      0.2697
      3  O1       107.4320   22.6010   19.2430 O.3   999  NCH999     -0.4274
      4  O3       107.3350   25.0890   19.4760 O.3   999  NCH999     -0.4399
      5  O2       105.3290   23.5560   20.1330 O.3   999  NCH999     -0.3074
      6  C1       104.4020   22.5820   19.6700 C.3   999  NCH999      0.1280
      7  C2       103.8450   21.7860   20.8170 C.3   999  NCH999     -0.0402
      8  N1       102.5080   21.2700   20.3740 N.4   999  NCH999      0.3874
      9  C3       102.6780   20.2140   19.3010 C.3   999  NCH999     -0.0959
     10  C5       101.6490   22.4260   19.9000 C.3   999  NCH999     -0.0959
     11  C4       101.8120   20.4330   21.4370 C.3   999  NCH999     -0.0959
     12  C1A      107.3880   28.2420   16.4320 C.ar  999  NCH999      0.1431
     13  N1A      107.3880   29.2840   15.4390 N.pl3 999  NCH999      0.0577
     14  O1N      108.6020   29.8800   15.0700 O.2   999  NCH999     -0.1261
     15  O2N      106.1330   29.6270   14.9180 O.2   999  NCH999     -0.1261
     16  C2A      108.5520   27.8280   17.0170 C.ar  999  NCH999      0.0272
     17  C3A      108.5220   26.8300   17.9650 C.ar  999  NCH999      0.0390
     18  C4A      107.3380   26.2260   18.3450 C.ar  999  NCH999      0.1447
     19  C5A      106.1800   26.6650   17.7510 C.ar  999  NCH999      0.0390
     20  C6A      106.2120   27.6680   16.7950 C.ar  999  NCH999      0.0272
@<TRIPOS>BOND
     1    15    13    2
     2    14    13    2
     3    13    12    1
     4    12    20   ar
     5    12    16   ar
     6    20    19   ar
     7    16    17   ar
     8     1     2    2
     9    19    18   ar
    10    17    18   ar
    11    18     4    1
    12     2     3    1
    13     2     4    1
    14     2     5    1
    15     9     8    1
    16     6     5    1
    17     6     7    1
    18    10     8    1
    19     8     7    1
    20     8    11    1
