@<TRIPOS>MOLECULE
1dli_NAD_A_1.pdb
 44 48 0 0 0
SMALL
GASTEIGER

@<TRIPOS>ATOM
      1  PA       -17.5270   10.1760   67.8330 P.3   403  NAD403      0.2189
      2  O1A      -16.2310    9.5020   68.1330 O.3   403  NAD403     -0.4371
      3  O2A      -17.6380   11.6520   67.9120 O.2   403  NAD403     -0.5170
      4  O5B      -18.6800    9.6040   68.7590 O.3   403  NAD403     -0.3112
      5  C5B      -18.6870    8.2350   69.1320 C.3   403  NAD403      0.1813
      6  C4B      -19.3130    8.1130   70.4970 C.3   403  NAD403      0.1821
      7  O4B      -19.8010    6.7610   70.6940 O.3   403  NAD403     -0.3135
      8  C3B      -18.2870    8.3890   71.6010 C.3   403  NAD403      0.2184
      9  O3B      -18.8040    9.4330   72.4530 O.3   403  NAD403     -0.2174
     10  C2B      -18.2240    7.0840   72.3980 C.3   403  NAD403      0.2570
     11  O2B      -18.1240    7.3920   73.7980 O.3   403  NAD403     -0.2130
     12  C1B      -19.5830    6.4740   72.0920 C.3   403  NAD403      0.3186
     13  N9A      -19.6570    5.0380   72.3230 N.pl3 403  NAD403     -0.1439
     14  C8A      -18.7320    4.0580   71.9170 C.3   403  NAD403      0.3377
     15  N7A      -19.2540    2.8540   72.1270 N.2   403  NAD403     -0.2095
     16  C5A      -20.5010    3.0940   72.6810 C.2   403  NAD403      0.2526
     17  C6A      -21.3680    2.0830   73.0380 C.2   403  NAD403      0.4393
     18  N6A      -21.0310    0.7960   72.9250 N.pl3 403  NAD403      0.2180
     19  N1A      -22.5790    2.4580   73.5230 N.2   403  NAD403      0.0021
     20  C2A      -22.8800    3.7830   73.6370 C.3   403  NAD403      0.5254
     21  N3A      -21.9760    4.7550   73.2800 N.2   403  NAD403     -0.0055
     22  C4A      -20.7720    4.3940   72.7960 C.2   403  NAD403      0.3518
     23  O3       -17.9210    9.6920   66.3660 O.3   403  NAD403     -0.2703
     24  PN       -18.7620   10.2960   65.1560 P.3   403  NAD403      0.2189
     25  O1N      -17.8890   11.2990   64.4860 O.2   403  NAD403     -0.5170
     26  O2N      -20.0780   10.7030   65.6990 O.3   403  NAD403     -0.4371
     27  O5D      -18.9780    9.0630   64.1650 O.3   403  NAD403     -0.3112
     28  C5D      -19.7780    7.9470   64.5510 C.3   403  NAD403      0.1813
     29  C4D      -20.1420    7.1290   63.3380 C.3   403  NAD403      0.1799
     30  O4D      -20.8640    7.9680   62.3760 O.3   403  NAD403     -0.3327
     31  C3D      -18.8930    6.6240   62.6250 C.3   403  NAD403      0.2158
     32  O3D      -19.2590    5.4130   61.9290 O.3   403  NAD403     -0.2175
     33  C2D      -18.6360    7.7050   61.5960 C.3   403  NAD403      0.2309
     34  O2D      -17.8830    7.1630   60.5100 O.3   403  NAD403     -0.2158
     35  C1D      -20.0610    8.0570   61.1640 C.3   403  NAD403      0.2263
     36  N1N      -20.1510    9.4200   60.6260 N.pl3 403  NAD403     -0.2787
     37  C2N      -19.2730   10.4110   61.0870 C.3   403  NAD403      0.1244
     38  C3N      -19.3420   11.6970   60.5620 C.2   403  NAD403      0.0544
     39  C7N      -18.3650   12.7560   61.0580 C.2   403  NAD403      0.2818
     40  O7N      -18.0450   13.6910   60.3350 O.2   403  NAD403     -0.2670
     41  N7N      -17.8970   12.5740   62.2960 N.am  403  NAD403     -0.0839
     42  C4N      -20.2850   12.0060   59.5780 C.2   403  NAD403      0.0033
     43  C5N      -21.1700   11.0220   59.1130 C.2   403  NAD403      0.0157
     44  C6N      -21.1050    9.7320   59.6330 C.2   403  NAD403      0.0633
@<TRIPOS>BOND
     1    43    42    1
     2    43    44    2
     3    42    38    2
     4    44    36    1
     5    40    39    2
     6    34    33    1
     7    38    39    1
     8    38    37    1
     9    36    37    1
    10    36    35    1
    11    39    41   am
    12    35    33    1
    13    35    30    1
    14    33    31    1
    15    32    31    1
    16    30    29    1
    17    31    29    1
    18    29    28    1
    19    27    28    1
    20    27    24    1
    21    25    24    2
    22    24    26    1
    23    24    23    1
    24    23     1    1
    25     1     3    2
    26     1     2    1
    27     1     4    1
    28     4     5    1
    29     5     6    1
    30     6     7    1
    31     6     8    1
    32     7    12    1
    33     8    10    1
    34     8     9    1
    35    14    15    1
    36    14    13    1
    37    12    13    1
    38    12    10    1
    39    15    16    2
    40    13    22    1
    41    10    11    1
    42    16    22    1
    43    16    17    1
    44    22    21    2
    45    18    17    1
    46    17    19    2
    47    21    20    1
    48    19    20    1
