@<TRIPOS>MOLECULE
1dli_UDX_A_1.pdb
 34 36 0 0 0
SMALL
GASTEIGER

@<TRIPOS>ATOM
      1  C1'      -16.7040   14.7290   55.5470 C.3   404  UDX404      0.2742
      2  C2'      -17.7560   14.8500   54.4690 C.3   404  UDX404      0.2409
      3  O2'      -17.6680   16.1550   53.9340 O.3   404  UDX404     -0.2149
      4  C3'      -19.1600   14.6230   55.0620 C.3   404  UDX404      0.2198
      5  O3'      -20.1470   14.6670   54.0400 O.3   404  UDX404     -0.2174
      6  C4'      -19.1820   13.2570   55.6970 C.3   404  UDX404      0.2143
      7  O4'      -20.4880   12.9740   56.1890 O.3   404  UDX404     -0.2176
      8  C5'      -18.1500   13.2440   56.8180 C.3   404  UDX404      0.1803
      9  O5'      -16.8420   13.5060   56.2690 O.3   404  UDX404     -0.3255
     10  PB       -15.5430   16.2660   57.2920 P.3   404  UDX404      0.2208
     11  O1B      -14.6240   15.1140   57.4020 O.2   404  UDX404     -0.5170
     12  O2B      -16.1060   16.8830   58.5290 O.3   404  UDX404     -0.4371
     13  O3B      -16.7690   15.8500   56.3710 O.3   404  UDX404     -0.2857
     14  O3A      -14.8070   17.4510   56.5300 O.3   404  UDX404     -0.2703
     15  PA       -14.5230   17.8700   55.0210 P.3   404  UDX404      0.2189
     16  O1A      -14.7780   19.3300   54.9830 O.3   404  UDX404     -0.4371
     17  O2A      -15.2640   16.9690   54.1240 O.2   404  UDX404     -0.5170
     18  O5D      -12.9540   17.6280   54.8260 O.3   404  UDX404     -0.3112
     19  C5D      -12.4030   16.3170   54.9090 C.3   404  UDX404      0.1813
     20  C4D      -10.8890   16.3750   54.8170 C.3   404  UDX404      0.1799
     21  O4D      -10.5050   16.7340   53.4570 O.3   404  UDX404     -0.3320
     22  C3D      -10.3360   17.4590   55.7320 C.3   404  UDX404      0.2158
     23  O3D       -9.0530   17.0310   56.2120 O.3   404  UDX404     -0.2175
     24  C2D      -10.1740   18.6540   54.8030 C.3   404  UDX404      0.2319
     25  O2D       -9.1170   19.4880   55.2290 O.3   404  UDX404     -0.2157
     26  C1D       -9.7730   17.9850   53.5050 C.3   404  UDX404      0.2401
     27  N1       -10.0840   18.8930   52.4130 N.am  404  UDX404     -0.1766
     28  C6       -11.3800   19.1320   52.0680 C.2   404  UDX404      0.0929
     29  C2        -9.0480   19.4670   51.7540 C.1   404  UDX404      0.2845
     30  O2        -7.8800   19.2680   52.0710 O.2   404  UDX404     -0.1918
     31  N3        -9.4180   20.2950   50.7150 N.2   404  UDX404     -0.2452
     32  C4       -10.7090   20.5810   50.3160 C.1   404  UDX404      0.2182
     33  O4       -10.9310   21.3560   49.3950 O.2   404  UDX404     -0.2085
     34  C5       -11.7110   19.9330   51.0760 C.2   404  UDX404      0.1242
@<TRIPOS>BOND
     1    33    32    2
     2    32    31    2
     3    32    34    1
     4    31    29    2
     5    34    28    2
     6    29    30    2
     7    29    27   am
     8    28    27    1
     9    27    26    1
    10    21    26    1
    11    21    20    1
    12    26    24    1
    13     3     2    1
    14     5     4    1
    15    17    15    2
    16     2     4    1
    17     2     1    1
    18    24    25    1
    19    24    22    1
    20    20    19    1
    21    20    22    1
    22    18    19    1
    23    18    15    1
    24    16    15    1
    25    15    14    1
    26     4     6    1
    27     1     9    1
    28     1    13    1
    29     6     7    1
    30     6     8    1
    31    22    23    1
    32     9     8    1
    33    13    10    1
    34    14    10    1
    35    10    11    2
    36    10    12    1
