@<TRIPOS>MOLECULE
1dlj_NAI_A_1.pdb
 44 48 0 0 0
SMALL
GASTEIGER

@<TRIPOS>ATOM
      1  PA       -17.5430   10.1480   68.1020 P.3   403  NAI403      0.2189
      2  O1A      -16.2610    9.4520   68.3260 O.3   403  NAI403     -0.4371
      3  O2A      -17.5680   11.6240   68.0860 O.2   403  NAI403     -0.5170
      4  O5B      -18.6490    9.6670   69.1320 O.3   403  NAI403     -0.3112
      5  C5B      -18.8700    8.2840   69.3810 C.3   403  NAI403      0.1813
      6  C4B      -19.5120    8.1750   70.7310 C.3   403  NAI403      0.1821
      7  O4B      -20.0730    6.8480   70.9240 O.3   403  NAI403     -0.3135
      8  C3B      -18.4670    8.3900   71.8320 C.3   403  NAI403      0.2184
      9  O3B      -18.9780    9.3710   72.7720 O.3   403  NAI403     -0.2174
     10  C2B      -18.3610    7.0370   72.5330 C.3   403  NAI403      0.2570
     11  O2B      -18.1320    7.2440   73.9680 O.3   403  NAI403     -0.2130
     12  C1B      -19.7530    6.4800   72.2910 C.3   403  NAI403      0.3186
     13  N9A      -19.8460    5.0350   72.4650 N.pl3 403  NAI403     -0.1439
     14  C8A      -18.8760    4.0520   72.1630 C.3   403  NAI403      0.3377
     15  N7A      -19.4040    2.8490   72.3850 N.2   403  NAI403     -0.2095
     16  C5A      -20.6900    3.0990   72.8290 C.2   403  NAI403      0.2526
     17  C6A      -21.5430    2.1040   73.2310 C.2   403  NAI403      0.4393
     18  N6A      -21.1940    0.8150   73.1950 N.pl3 403  NAI403      0.2180
     19  N1A      -22.7570    2.4920   73.6770 N.2   403  NAI403      0.0021
     20  C2A      -23.0820    3.8190   73.7210 C.3   403  NAI403      0.5254
     21  N3A      -22.1930    4.7750   73.3290 N.2   403  NAI403     -0.0055
     22  C4A      -20.9790    4.3960   72.8820 C.2   403  NAI403      0.3518
     23  O3       -18.0860    9.6410   66.7010 O.3   403  NAI403     -0.2703
     24  PN       -18.7980   10.3500   65.4640 P.3   403  NAI403      0.2189
     25  O1N      -17.8470   11.3270   64.8910 O.2   403  NAI403     -0.5170
     26  O2N      -20.1350   10.7800   65.8910 O.3   403  NAI403     -0.4371
     27  O5D      -19.0110    9.1570   64.4290 O.3   403  NAI403     -0.3112
     28  C5D      -19.8650    8.0660   64.7860 C.3   403  NAI403      0.1813
     29  C4D      -20.2120    7.2460   63.5630 C.3   403  NAI403      0.1799
     30  O4D      -20.9170    8.0960   62.6070 O.3   403  NAI403     -0.3327
     31  C3D      -18.9500    6.7650   62.8580 C.3   403  NAI403      0.2158
     32  O3D      -19.2760    5.5530   62.1400 O.3   403  NAI403     -0.2175
     33  C2D      -18.6840    7.8590   61.8450 C.3   403  NAI403      0.2309
     34  O2D      -17.9480    7.3000   60.7600 O.3   403  NAI403     -0.2158
     35  C1D      -20.1050    8.2090   61.4100 C.3   403  NAI403      0.2263
     36  N1N      -20.2140    9.5750   60.8790 N.pl3 403  NAI403     -0.2787
     37  C2N      -19.4440   10.6150   61.4100 C.3   403  NAI403      0.1244
     38  C3N      -19.5830   11.9050   60.9010 C.2   403  NAI403      0.0544
     39  C7N      -18.7350   13.0500   61.4630 C.2   403  NAI403      0.2818
     40  O7N      -18.6480   14.1060   60.8310 O.2   403  NAI403     -0.2670
     41  N7N      -18.0860   12.7770   62.6000 N.am  403  NAI403     -0.0839
     42  C4N      -20.4940   12.1600   59.8810 C.2   403  NAI403      0.0033
     43  C5N      -21.2730   11.1310   59.3510 C.2   403  NAI403      0.0157
     44  C6N      -21.1310    9.8370   59.8450 C.2   403  NAI403      0.0633
@<TRIPOS>BOND
     1    43    44    2
     2    43    42    1
     3    44    36    1
     4    42    38    2
     5    34    33    1
     6    40    39    2
     7    36    37    1
     8    36    35    1
     9    38    37    1
    10    38    39    1
    11    35    33    1
    12    35    30    1
    13    39    41   am
    14    33    31    1
    15    32    31    1
    16    30    29    1
    17    31    29    1
    18    29    28    1
    19    27    28    1
    20    27    24    1
    21    25    24    2
    22    24    26    1
    23    24    23    1
    24    23     1    1
    25     3     1    2
    26     1     2    1
    27     1     4    1
    28     4     5    1
    29     5     6    1
    30     6     7    1
    31     6     8    1
    32     7    12    1
    33     8    10    1
    34     8     9    1
    35    14    15    1
    36    14    13    1
    37    12    13    1
    38    12    10    1
    39    15    16    2
    40    13    22    1
    41    10    11    1
    42    16    22    1
    43    16    17    1
    44    22    21    2
    45    18    17    1
    46    17    19    2
    47    21    20    1
    48    19    20    1
