@<TRIPOS>MOLECULE
1dlj_UGA_A_1.pdb
 37 39 0 0 0
SMALL
GASTEIGER

@<TRIPOS>ATOM
      1  C1'      -16.9240   14.6940   55.7480 C.3   404  UGA404      0.2746
      2  C2'      -18.0040   14.8830   54.6660 C.3   404  UGA404      0.2409
      3  O2'      -17.8970   16.2000   54.1500 O.3   404  UGA404     -0.2149
      4  C3'      -19.3980   14.6850   55.2640 C.3   404  UGA404      0.2203
      5  O3'      -20.4060   14.8020   54.2480 O.3   404  UGA404     -0.2174
      6  C4'      -19.4740   13.3100   55.9190 C.3   404  UGA404      0.2229
      7  O4'      -20.7590   13.1430   56.5120 O.3   404  UGA404     -0.2171
      8  C5'      -18.3750   13.2420   56.9910 C.3   404  UGA404      0.2529
      9  O5'      -17.0830   13.4440   56.3850 O.3   404  UGA404     -0.3167
     10  C6'      -18.3460   11.8670   57.6510 C.2   404  UGA404      0.3941
     11  O'P      -18.6880   10.8530   56.9830 O.co2 404  UGA404     -0.2429
     12  O'Q      -17.9790   11.7980   58.8500 O.co2 404  UGA404     -0.2429
     13  PB       -15.7640   16.0800   57.6200 P.3   404  UGA404      0.2208
     14  O1B      -15.0170   14.8250   57.9110 O.2   404  UGA404     -0.5170
     15  O2B      -16.2980   16.9010   58.7640 O.3   404  UGA404     -0.4371
     16  O3B      -16.9900   15.7460   56.6600 O.3   404  UGA404     -0.2857
     17  O3A      -14.7650   17.0020   56.7970 O.3   404  UGA404     -0.2703
     18  PA       -14.6200   17.7010   55.3630 P.3   404  UGA404      0.2189
     19  O1A      -14.9700   19.1280   55.4940 O.3   404  UGA404     -0.4371
     20  O2A      -15.3020   16.8640   54.3500 O.2   404  UGA404     -0.5170
     21  O5D      -13.0450   17.5720   55.1050 O.3   404  UGA404     -0.3112
     22  C5D      -12.4280   16.2730   55.1280 C.3   404  UGA404      0.1813
     23  C4D      -10.9220   16.3750   54.9740 C.3   404  UGA404      0.1799
     24  O4D      -10.5880   16.7390   53.6020 O.3   404  UGA404     -0.3320
     25  C3D      -10.3630   17.4710   55.8750 C.3   404  UGA404      0.2158
     26  O3D       -9.1060   17.0310   56.4180 O.3   404  UGA404     -0.2175
     27  C2D      -10.1950   18.6560   54.9240 C.3   404  UGA404      0.2319
     28  O2D       -9.1300   19.5450   55.3490 O.3   404  UGA404     -0.2157
     29  C1D       -9.8270   17.9730   53.6100 C.3   404  UGA404      0.2401
     30  N1       -10.1810   18.8780   52.5140 N.am  404  UGA404     -0.1766
     31  C6       -11.5050   19.1060   52.2000 C.2   404  UGA404      0.0929
     32  C2        -9.1610   19.5120   51.8260 C.1   404  UGA404      0.2845
     33  O2        -7.9660   19.3310   52.0610 O.2   404  UGA404     -0.1918
     34  N3        -9.5810   20.3710   50.8330 N.2   404  UGA404     -0.2452
     35  C4       -10.8860   20.6520   50.4750 C.1   404  UGA404      0.2182
     36  O4       -11.1240   21.4760   49.5930 O.2   404  UGA404     -0.2085
     37  C5       -11.8720   19.9450   51.2300 C.2   404  UGA404      0.1242
@<TRIPOS>BOND
     1    36    35    2
     2    35    34    2
     3    35    37    1
     4    34    32    2
     5    37    31    2
     6    32    33    2
     7    32    30   am
     8    31    30    1
     9    30    29    1
    10    24    29    1
    11    24    23    1
    12    29    27    1
    13     3     2    1
    14     5     4    1
    15    20    18    2
    16     2     4    1
    17     2     1    1
    18    27    28    1
    19    27    25    1
    20    23    22    1
    21    23    25    1
    22    21    22    1
    23    21    18    1
    24     4     6    1
    25    18    19    1
    26    18    17    1
    27     1     9    1
    28     1    16    1
    29    25    26    1
    30     6     7    1
    31     6     8    1
    32     9     8    1
    33    16    13    1
    34    17    13    1
    35    11    10   ar
    36     8    10    1
    37    13    14    2
    38    13    15    1
    39    10    12   ar
