@<TRIPOS>MOLECULE
1dlk_III_E_1.pdb
 30 31 0 0 0
SMALL
GASTEIGER

@<TRIPOS>ATOM
      1  C1        99.8270   43.8730   53.4900 C.3     1  PHQ1        0.3515
      2  O1        99.7680   43.7390   54.7330 O.3     1  PHQ1       -0.1686
      3  O2        99.8860   45.2800   53.4910 O.3     1  PHQ1       -0.3101
      4  C2       100.0490   45.8070   52.1600 C.3     1  PHQ1        0.1727
      5  C3       100.0610   46.3140   50.7530 C.ar    1  PHQ1        0.0074
      6  C4        98.9630   46.0000   49.9010 C.ar    1  PHQ1       -0.0019
      7  C5        98.9850   46.5000   48.5830 C.ar    1  PHQ1       -0.0002
      8  C6       100.0960   47.2610   48.0880 C.ar    1  PHQ1       -0.0000
      9  C7       101.1710   47.5040   48.9960 C.ar    1  PHQ1       -0.0002
     10  C8       101.2360   47.0540   50.3240 C.ar    1  PHQ1       -0.0019
     11  N        100.4980   42.7690   53.0040 N.3     2  GLY2       -0.1526
     12  CA       100.2950   41.4440   53.9530 C.3     2  GLY2        0.1801
     13  C         99.6230   40.0650   53.2820 C.2     2  GLY2        0.2597
     14  O         98.5350   39.6660   53.9200 O.2     2  GLY2       -0.2718
     15  N         99.6950   39.1890   52.2660 N.am    3  GLY3       -0.1942
     16  CA        98.7860   38.1760   51.6370 C.3     3  GLY3        0.2014
     17  C         98.6280   36.9140   52.4220 C.2     3  GLY3        0.2635
     18  O         99.3490   36.5480   53.3060 O.2     3  GLY3       -0.2714
     19  C         96.8230   34.2130   52.9980 C.3     4  HPH4        0.1722
     20  O         97.0420   32.9530   53.6920 O.3     4  HPH4       -0.2213
     21  CA        97.1590   35.5070   53.7290 C.3     4  HPH4        0.1299
     22  N         97.2870   36.6180   52.8050 N.am    4  HPH4       -0.2027
     23  CB        95.8430   35.6750   54.4880 C.3     4  HPH4        0.0506
     24  CG        95.8750   36.6550   55.6240 C.ar    4  HPH4       -0.0204
     25  CD1       94.7700   37.2190   56.1950 C.ar    4  HPH4       -0.0042
     26  CD2       97.2060   37.0260   56.1210 C.ar    4  HPH4       -0.0042
     27  CE1       94.8270   38.1610   57.2680 C.ar    4  HPH4       -0.0003
     28  CE2       97.2080   37.9700   57.1900 C.ar    4  HPH4       -0.0003
     29  CZ        96.1000   38.5550   57.7770 C.ar    4  HPH4       -0.0000
     30  C1        97.8310   33.8500   51.7770 C.3     5  0QE5        0.0374
@<TRIPOS>BOND
     1     8     7   ar
     2     8     9   ar
     3     7     6   ar
     4     9    10   ar
     5     6     5   ar
     6    10     5   ar
     7     5     4    1
     8    16    15    1
     9    16    17    1
    10    30    19    1
    11     4     3    1
    12    15    13   am
    13    17    22   am
    14    17    18    2
    15    22    21    1
    16    19    20    1
    17    19    21    1
    18    11     1    1
    19    11    12    1
    20    13    14    2
    21    13    12    1
    22     1     3    1
    23     1     2    1
    24    21    23    1
    25    23    24    1
    26    24    26   ar
    27    24    25   ar
    28    26    28   ar
    29    25    27   ar
    30    28    29   ar
    31    27    29   ar
