@<TRIPOS>MOLECULE
1dll_LAT_A_1.pdb
 23 24 0 0 0
SMALL
GASTEIGER

@<TRIPOS>ATOM
      1  C1        24.3030   15.4000   77.3620 C.3   2000  LAT2000     0.2695
      2  C2        24.4090   14.9550   75.9270 C.3   2000  LAT2000     0.2406
      3  C3        23.1750   15.3840   75.1360 C.3   2000  LAT2000     0.2198
      4  C4        21.9570   14.8350   75.8670 C.3   2000  LAT2000     0.2144
      5  C5        21.9290   15.3740   77.2890 C.3   2000  LAT2000     0.1835
      6  C6        20.7450   14.8160   78.0480 C.3   2000  LAT2000     0.2142
      7  O1        25.3470   14.8090   78.0970 O.3   2000  LAT2000    -0.3257
      8  O2        25.6010   15.3860   75.2800 O.3   2000  LAT2000    -0.2149
      9  O3        23.2720   14.9570   73.7860 O.3   2000  LAT2000    -0.2174
     10  O4        22.0270   13.4230   75.9590 O.3   2000  LAT2000    -0.2176
     11  O5        23.1130   14.9380   77.9870 O.3   2000  LAT2000    -0.3256
     12  O6        20.9070   15.0960   79.4250 O.3   2000  LAT2000    -0.2176
     13  C1'       27.1950   15.0550   81.7550 C.3   2000  LAT2000     0.3023
     14  C2'       25.6800   15.1870   81.8600 C.3   2000  LAT2000     0.2433
     15  C3'       25.0550   14.7640   80.5160 C.3   2000  LAT2000     0.2168
     16  C4'       25.7090   15.4820   79.3290 C.3   2000  LAT2000     0.1804
     17  C5'       27.2330   15.4290   79.3870 C.3   2000  LAT2000     0.1804
     18  C6'       27.8900   16.3490   78.3740 C.3   2000  LAT2000     0.2141
     19  O1'       27.7850   15.5040   82.9300 O.3   2000  LAT2000    -0.1869
     20  O2'       25.1470   14.3510   82.8530 O.3   2000  LAT2000    -0.2148
     21  O3'       23.6610   14.9720   80.6080 O.3   2000  LAT2000    -0.2175
     22  O5'       27.6680   15.8660   80.6800 O.3   2000  LAT2000    -0.3237
     23  O6'       28.7660   15.6140   77.5330 O.3   2000  LAT2000    -0.2176
@<TRIPOS>BOND
     1     9     3    1
     2     3     4    1
     3     3     2    1
     4     8     2    1
     5     4    10    1
     6     4     5    1
     7     2     1    1
     8     5    11    1
     9     5     6    1
    10     1    11    1
    11     1     7    1
    12    23    18    1
    13     6    12    1
    14     7    16    1
    15    18    17    1
    16    16    17    1
    17    16    15    1
    18    17    22    1
    19    15    21    1
    20    15    14    1
    21    22    13    1
    22    13    14    1
    23    13    19    1
    24    14    20    1
