@<TRIPOS>MOLECULE
1dlr_MXA_A_1.pdb
 24 26 0 0 0
SMALL
GASTEIGER

@<TRIPOS>ATOM
      1  N1        28.7810   13.6060   -4.4550 N.2   188  MXA188     -0.2706
      2  C2        27.6350   12.9610   -4.5190 C.1   188  MXA188      0.2517
      3  N2        27.2130   12.4580   -5.6930 N.pl3 188  MXA188     -0.0226
      4  N3        26.8080   12.7210   -3.5120 N.2   188  MXA188     -0.3061
      5  C4        27.0880   13.1530   -2.3080 C.2   188  MXA188      0.2427
      6  N4        26.1970   12.8770   -1.3170 N.pl3 188  MXA188     -0.0914
      7  C4A       28.2940   13.9040   -2.0670 C.2   188  MXA188      0.1185
      8  C5        28.7150   14.4510   -0.8520 C.2   188  MXA188     -0.0097
      9  C5M       27.8870   14.3230    0.4020 C.3   188  MXA188      0.0316
     10  C6        29.9040   15.1300   -0.8290 C.2   188  MXA188     -0.0009
     11  C7        30.6340   15.2800   -2.0160 C.2   188  MXA188      0.1063
     12  N8        30.2480   14.8060   -3.1940 N.2   188  MXA188     -0.1818
     13  C8A       29.1080   14.0920   -3.2230 C.1   188  MXA188      0.1046
     14  C9        30.3710   15.8000    0.4580 C.3   188  MXA188      0.0571
     15  C1'       31.8550   15.7650    0.6490 C.ar  188  MXA188      0.0192
     16  C2'       32.4490   14.7020    1.3070 C.ar  188  MXA188      0.1352
     17  O2'       31.5400   13.7710    1.7620 O.3   188  MXA188     -0.4717
     18  C21       31.9090   12.4170    1.9370 C.3   188  MXA188      0.2525
     19  C3'       33.8290   14.6920    1.4330 C.ar  188  MXA188      0.0397
     20  C4'       34.5990   15.7380    0.9270 C.ar  188  MXA188      0.0400
     21  C5'       33.9550   16.7830    0.3160 C.ar  188  MXA188      0.1386
     22  O5'       34.5330   17.9410   -0.2710 O.3   188  MXA188     -0.4714
     23  C51       35.9450   17.6830   -0.3370 C.3   188  MXA188      0.2525
     24  C6'       32.5910   16.8100    0.1730 C.ar  188  MXA188      0.0360
@<TRIPOS>BOND
     1     3     2    1
     2     2     1    2
     3     2     4    2
     4     1    13    2
     5     4     5    2
     6    13    12    2
     7    13     7    1
     8    12    11    1
     9     5     7    1
    10     5     6    1
    11     7     8    2
    12    11    10    2
    13     8    10    1
    14     8     9    1
    15    10    14    1
    16    23    22    1
    17    22    21    1
    18    24    21   ar
    19    24    15   ar
    20    21    20   ar
    21    14    15    1
    22    15    16   ar
    23    20    19   ar
    24    16    19   ar
    25    16    17    1
    26    17    18    1
