@<TRIPOS>MOLECULE
1dlr_NDP_A_1.pdb
 48 52 0 0 0
SMALL
GASTEIGER

@<TRIPOS>ATOM
      1  PA        26.5250    8.4560    8.6150 P.3   187  NDP187      0.2189
      2  O1A       27.0280    9.7710    8.1430 O.2   187  NDP187     -0.5170
      3  O2A       25.1710    8.0320    8.2770 O.3   187  NDP187     -0.4371
      4  O5B       26.7370    8.5810   10.2740 O.3   187  NDP187     -0.3112
      5  C5B       26.0200    7.6560   11.1400 C.3   187  NDP187      0.1813
      6  C4B       25.7530    8.5160   12.4150 C.3   187  NDP187      0.1820
      7  O4B       24.8810    9.3480   12.1690 O.3   187  NDP187     -0.3136
      8  C3B       25.0130    7.4290   13.3880 C.3   187  NDP187      0.2157
      9  O3B       26.2590    6.9470   14.0930 O.3   187  NDP187     -0.2175
     10  C2B       24.1130    8.3990   14.1550 C.3   187  NDP187      0.2314
     11  O2B       24.7570    9.2090   15.0360 O.3   187  NDP187     -0.2630
     12  C1B       23.7090    9.3600   12.9950 C.3   187  NDP187      0.3158
     13  N9A       22.5690    8.8370   12.2990 N.pl3 187  NDP187     -0.1439
     14  C8A       22.6680    8.1680   11.1410 C.3   187  NDP187      0.3377
     15  N7A       21.4970    7.7890   10.6920 N.2   187  NDP187     -0.2095
     16  C5A       20.6160    8.3020   11.7070 C.2   187  NDP187      0.2526
     17  C6A       19.0710    8.2750   11.9190 C.2   187  NDP187      0.4393
     18  N6A       18.2990    7.6580   10.9940 N.pl3 187  NDP187      0.2180
     19  N1A       18.5890    8.8540   13.0220 N.2   187  NDP187      0.0021
     20  C2A       19.4830    9.4480   13.8180 C.3   187  NDP187      0.5254
     21  N3A       20.7980    9.5490   13.7670 N.2   187  NDP187     -0.0055
     22  C4A       21.3060    8.9130   12.6460 C.2   187  NDP187      0.3518
     23  O3        27.7440    7.5230    8.3600 O.3   187  NDP187     -0.2703
     24  PN        28.2290    6.3000    7.4590 P.3   187  NDP187      0.2189
     25  O1N       27.1710    5.5120    6.8820 O.2   187  NDP187     -0.5170
     26  O2N       29.1200    5.4760    8.2320 O.3   187  NDP187     -0.4371
     27  O5D       29.0890    6.9740    6.2920 O.3   187  NDP187     -0.3112
     28  C5D       29.9800    8.0880    6.3180 C.3   187  NDP187      0.1813
     29  C4D       30.9470    7.4860    5.2840 C.3   187  NDP187      0.1799
     30  O4D       30.3390    7.5070    3.9320 O.3   187  NDP187     -0.3327
     31  C3D       32.3050    8.2440    5.0530 C.3   187  NDP187      0.2158
     32  O3D       33.0430    7.1940    4.4060 O.3   187  NDP187     -0.2175
     33  C2D       31.8570    9.3960    4.1000 C.3   187  NDP187      0.2309
     34  O2D       33.0050    9.9450    3.4850 O.3   187  NDP187     -0.2158
     35  C1D       30.9910    8.5810    3.1370 C.3   187  NDP187      0.2263
     36  N1N       29.9250    9.2870    2.2700 N.pl3 187  NDP187     -0.2787
     37  C2N       30.0520    9.0800    0.8490 C.3   187  NDP187      0.1244
     38  C3N       29.1340    9.6290    0.0480 C.2   187  NDP187      0.0544
     39  C7N       29.3070    9.3380   -1.4040 C.2   187  NDP187      0.2818
     40  O7N       28.4200    9.9070   -1.9570 O.2   187  NDP187     -0.2670
     41  N7N       30.2380    8.6000   -1.9770 N.am  187  NDP187     -0.0839
     42  C4N       27.9170   10.4910    0.5010 C.2   187  NDP187      0.0033
     43  C5N       27.9820   10.6400    2.0110 C.2   187  NDP187      0.0157
     44  C6N       28.8860   10.0590    2.7810 C.2   187  NDP187      0.0633
     45  P2B       24.8990    8.8860   16.7280 P.3   187  NDP187      0.5328
     46  O1X       25.9050    7.7860   16.7210 O.2   187  NDP187     -0.2224
     47  O2X       23.5450    8.5290   17.0870 O.3   187  NDP187     -0.1145
     48  O3X       25.7090   10.1110   17.0570 O.3   187  NDP187     -0.1145
@<TRIPOS>BOND
     1    41    39   am
     2    40    39    2
     3    39    38    1
     4    38    42    2
     5    38    37    1
     6    42    43    1
     7    37    36    1
     8    43    44    2
     9    36    44    1
    10    36    35    1
    11    35    30    1
    12    35    33    1
    13    34    33    1
    14    30    29    1
    15    33    31    1
    16    32    31    1
    17    31    29    1
    18    29    28    1
    19    27    28    1
    20    27    24    1
    21    25    24    2
    22    24    26    1
    23    24    23    1
    24     2     1    2
    25     3     1    1
    26    23     1    1
    27     1     4    1
    28     4     5    1
    29    15    14    1
    30    15    16    2
    31    18    17    1
    32     5     6    1
    33    14    13    1
    34    16    17    1
    35    16    22    1
    36    17    19    2
    37     7     6    1
    38     7    12    1
    39    13    22    1
    40    13    12    1
    41     6     8    1
    42    22    21    2
    43    12    10    1
    44    19    20    1
    45     8     9    1
    46     8    10    1
    47    21    20    1
    48    10    11    1
    49    11    45    1
    50    46    45    2
    51    45    48    1
    52    45    47    1
