@<TRIPOS>MOLECULE
1dls_NDP_A_1.pdb
 48 52 0 0 0
SMALL
GASTEIGER

@<TRIPOS>ATOM
      1  PA        26.7520    8.8050    8.6740 P.3   187  NDP187      0.2189
      2  O1A       27.2830   10.0020    8.1180 O.2   187  NDP187     -0.5170
      3  O2A       25.5130    8.0670    8.3540 O.3   187  NDP187     -0.4371
      4  O5B       27.0810    8.7680   10.2840 O.3   187  NDP187     -0.3112
      5  C5B       26.3980    7.6430   11.0300 C.3   187  NDP187      0.1813
      6  C4B       26.1930    8.4960   12.3600 C.3   187  NDP187      0.1820
      7  O4B       25.3350    9.4150   12.0500 O.3   187  NDP187     -0.3136
      8  C3B       25.5160    7.4520   13.3570 C.3   187  NDP187      0.2157
      9  O3B       26.6380    7.0300   14.2690 O.3   187  NDP187     -0.2175
     10  C2B       24.5650    8.3810   14.1300 C.3   187  NDP187      0.2314
     11  O2B       25.2320    9.2760   14.9910 O.3   187  NDP187     -0.2630
     12  C1B       24.1700    9.3440   12.9440 C.3   187  NDP187      0.3158
     13  N9A       23.0220    8.8010   12.2860 N.pl3 187  NDP187     -0.1439
     14  C8A       23.0560    8.0960   11.1460 C.3   187  NDP187      0.3377
     15  N7A       21.8320    7.7470   10.7850 N.2   187  NDP187     -0.2095
     16  C5A       21.0280    8.3570   11.8010 C.2   187  NDP187      0.2526
     17  C6A       19.4940    8.4010   12.1080 C.2   187  NDP187      0.4393
     18  N6A       18.6800    7.8070   11.2050 N.pl3 187  NDP187      0.2180
     19  N1A       19.0390    9.0570   13.2210 N.2   187  NDP187      0.0021
     20  C2A       20.0390    9.5760   13.9740 C.3   187  NDP187      0.5254
     21  N3A       21.3710    9.5480   13.8440 N.2   187  NDP187     -0.0055
     22  C4A       21.7890    8.9220   12.7020 C.2   187  NDP187      0.3518
     23  O3        27.8690    7.7330    8.3090 O.3   187  NDP187     -0.2703
     24  PN        28.3660    6.4020    7.5490 P.3   187  NDP187      0.2189
     25  O1N       27.4720    5.7690    6.6110 O.2   187  NDP187     -0.5170
     26  O2N       29.0020    5.5950    8.5210 O.3   187  NDP187     -0.4371
     27  O5D       29.5600    7.0170    6.6730 O.3   187  NDP187     -0.3112
     28  C5D       30.0270    8.0600    5.9350 C.3   187  NDP187      0.1813
     29  C4D       30.9930    7.4290    4.9150 C.3   187  NDP187      0.1799
     30  O4D       30.6790    7.6540    3.5080 O.3   187  NDP187     -0.3327
     31  C3D       32.3100    8.3520    5.1710 C.3   187  NDP187      0.2158
     32  O3D       33.3020    7.3780    4.7850 O.3   187  NDP187     -0.2175
     33  C2D       32.0280    9.5450    4.2650 C.3   187  NDP187      0.2309
     34  O2D       33.1670   10.2140    3.8210 O.3   187  NDP187     -0.2158
     35  C1D       31.4200    8.8730    3.0250 C.3   187  NDP187      0.2263
     36  N1N       30.2760    9.5340    2.2540 N.pl3 187  NDP187     -0.2787
     37  C2N       30.3540    9.3750    0.8130 C.3   187  NDP187      0.1244
     38  C3N       29.2780    9.7710    0.1270 C.2   187  NDP187      0.0544
     39  C7N       29.3960    9.6020   -1.3770 C.2   187  NDP187      0.2818
     40  O7N       28.3950   10.0010   -1.8450 O.2   187  NDP187     -0.2670
     41  N7N       30.3800    8.8920   -1.9130 N.am  187  NDP187     -0.0839
     42  C4N       27.9350   10.3140    0.7210 C.2   187  NDP187      0.0033
     43  C5N       28.1330   10.4470    2.2380 C.2   187  NDP187      0.0157
     44  C6N       29.1440   10.0000    2.8620 C.2   187  NDP187      0.0633
     45  P2B       25.3000    8.9040   16.5950 P.3   187  NDP187      0.5328
     46  O1X       23.9060    8.7900   17.1440 O.3   187  NDP187     -0.1145
     47  O2X       25.9930   10.1390   17.0370 O.3   187  NDP187     -0.1145
     48  O3X       26.1350    7.7600   16.7870 O.2   187  NDP187     -0.2224
@<TRIPOS>BOND
     1    41    39   am
     2    40    39    2
     3    39    38    1
     4    38    42    2
     5    38    37    1
     6    42    43    1
     7    37    36    1
     8    43    44    2
     9    36    44    1
    10    36    35    1
    11    35    30    1
    12    35    33    1
    13    30    29    1
    14    34    33    1
    15    33    31    1
    16    32    31    1
    17    29    31    1
    18    29    28    1
    19    28    27    1
    20    25    24    2
    21    27    24    1
    22    24    23    1
    23    24    26    1
    24     2     1    2
    25    23     1    1
    26     3     1    1
    27     1     4    1
    28     4     5    1
    29    15    14    1
    30    15    16    2
    31     5     6    1
    32    14    13    1
    33    18    17    1
    34    16    17    1
    35    16    22    1
    36     7     6    1
    37     7    12    1
    38    17    19    2
    39    13    22    1
    40    13    12    1
    41     6     8    1
    42    22    21    2
    43    12    10    1
    44    19    20    1
    45     8    10    1
    46     8     9    1
    47    21    20    1
    48    10    11    1
    49    11    45    1
    50    45    48    2
    51    45    47    1
    52    45    46    1
