@<TRIPOS>MOLECULE
1dls_MTX_A_1.pdb
 33 35 0 0 0
SMALL
GASTEIGER

@<TRIPOS>ATOM
      1  N1        28.7910   13.1620   -4.3390 N.2   188  MTX188     -0.2684
      2  C2        27.4620   13.0450   -4.5730 C.1   188  MTX188      0.2519
      3  NA2       27.0740   12.9410   -5.8030 N.pl3 188  MTX188     -0.0226
      4  N3        26.6310   12.8170   -3.5700 N.2   188  MTX188     -0.3033
      5  C4        27.0330   12.9180   -2.3150 C.2   188  MTX188      0.2728
      6  NA4       26.1020   12.7940   -1.3680 N.pl3 188  MTX188     -0.0887
      7  C4A       28.3900   13.1800   -1.9720 C.2   188  MTX188      0.2518
      8  N5        28.8500   13.2490   -0.7170 N.2   188  MTX188     -0.3917
      9  C6        30.1500   13.3100   -0.5390 C.2   188  MTX188      0.1330
     10  C7        31.0420   13.4540   -1.6180 C.3   188  MTX188      0.1930
     11  N8        30.5830   13.3230   -2.8720 N.2   188  MTX188     -0.1998
     12  C8A       29.2990   13.2070   -3.0570 C.1   188  MTX188      0.1314
     13  C9        30.6000   13.4220    0.9150 C.3   188  MTX188      0.1481
     14  N10       31.8210   14.1180    1.2190 N.pl3 188  MTX188     -0.2999
     15  CM        32.6640   13.5830    2.2650 C.3   188  MTX188      0.1125
     16  C11       32.1470   18.1710    0.2630 C.ar  188  MTX188      0.0551
     17  C12       33.3050   17.4490    0.6560 C.ar  188  MTX188      0.0058
     18  C13       33.1370   16.1230    1.0380 C.ar  188  MTX188      0.0147
     19  C14       31.8970   15.4750    0.9710 C.ar  188  MTX188      0.0482
     20  C15       30.7820   16.1830    0.5000 C.ar  188  MTX188      0.0147
     21  C16       30.9030   17.5400    0.1760 C.ar  188  MTX188      0.0058
     22  C         32.2810   19.5740   -0.1440 C.2   188  MTX188      0.2652
     23  O         33.3050   20.1730    0.1990 O.2   188  MTX188     -0.2684
     24  N         31.4290   20.1380   -1.0010 N.am  188  MTX188     -0.1918
     25  CA        31.3720   21.4730   -1.6090 C.3   188  MTX188      0.1986
     26  CT        29.9790   22.0920   -1.6800 C.2   188  MTX188      0.3842
     27  O1        29.8190   23.3160   -1.5280 O.co2 188  MTX188     -0.2437
     28  O2        29.1710   21.2250   -2.0320 O.co2 188  MTX188     -0.2437
     29  CB        31.7650   21.4710   -3.0690 C.3   188  MTX188      0.0451
     30  CG        32.9250   22.3830   -3.3220 C.3   188  MTX188      0.1164
     31  CD        33.7310   21.7300   -4.3510 C.2   188  MTX188      0.3649
     32  OE1       34.6410   20.7890   -4.2250 O.co2 188  MTX188     -0.2457
     33  OE2       33.4780   22.0370   -5.6080 O.co2 188  MTX188     -0.2457
@<TRIPOS>BOND
     1     3     2    1
     2    33    31   ar
     3     2     1    2
     4     2     4    2
     5    31    32   ar
     6    31    30    1
     7     1    12    2
     8     4     5    2
     9    30    29    1
    10    29    25    1
    11    12    11    2
    12    12     7    1
    13    11    10    1
    14     5     7    1
    15     5     6    1
    16    28    26   ar
    17     7     8    2
    18    26    25    1
    19    26    27   ar
    20    10     9    1
    21    25    24    1
    22    24    22   am
    23     8     9    2
    24     9    13    1
    25    22    23    2
    26    22    16    1
    27    21    16   ar
    28    21    20   ar
    29    16    17   ar
    30    20    19   ar
    31    17    18   ar
    32    13    14    1
    33    19    18   ar
    34    19    14    1
    35    14    15    1
