@<TRIPOS>MOLECULE
1dlv_COA_A_1.pdb
 48 50 0 0 0
SMALL
GASTEIGER

@<TRIPOS>ATOM
      1  N1A       36.4350  -28.2400   21.1610 N.2   1001  COA1001     0.0021
      2  C2A       36.5000  -28.2720   22.5610 C.3   1001  COA1001     0.5254
      3  N3A       35.9390  -27.3920   23.4090 N.2   1001  COA1001    -0.0055
      4  C4A       35.3280  -26.4170   22.7470 C.2   1001  COA1001     0.3518
      5  C5A       35.1840  -26.2610   21.3510 C.2   1001  COA1001     0.2526
      6  C6A       35.8090  -27.2580   20.4740 C.2   1001  COA1001     0.4393
      7  N6A       35.7450  -27.1640   19.1630 N.pl3 1001  COA1001     0.2180
      8  N7A       34.5200  -25.1800   21.0440 N.2   1001  COA1001    -0.2095
      9  C8A       34.1780  -24.5930   22.2170 C.3   1001  COA1001     0.3377
     10  N9A       34.6250  -25.3360   23.2890 N.pl3 1001  COA1001    -0.1439
     11  C1B       34.4990  -25.0340   24.7350 C.3   1001  COA1001     0.3185
     12  C2B       34.8440  -23.5900   25.0050 C.3   1001  COA1001     0.2543
     13  O2B       36.2250  -23.5420   25.3120 O.3   1001  COA1001    -0.2131
     14  C3B       34.1390  -23.4290   26.3970 C.3   1001  COA1001     0.1928
     15  O3B       34.8870  -24.0980   27.2950 O.3   1001  COA1001    -0.2673
     16  P3B       34.9340  -23.3790   28.8420 P.3   1001  COA1001     0.5327
     17  O7A       35.8860  -22.1160   28.7030 O.2   1001  COA1001    -0.2224
     18  O8A       33.4710  -22.8860   29.2270 O.3   1001  COA1001    -0.1145
     19  O9A       35.5840  -24.4970   29.7420 O.3   1001  COA1001    -0.1145
     20  C4B       32.7630  -23.9570   25.9280 C.3   1001  COA1001     0.1795
     21  O4B       33.1300  -25.2040   25.1370 O.3   1001  COA1001    -0.3136
     22  C5B       32.2940  -23.1200   24.7110 C.3   1001  COA1001     0.1812
     23  O5B       31.5650  -22.1220   25.4180 O.3   1001  COA1001    -0.3112
     24  P1A       31.7630  -20.5720   25.0790 P.3   1001  COA1001     0.2189
     25  O1A       32.0950  -19.9720   26.3960 O.3   1001  COA1001    -0.4371
     26  O2A       32.6360  -20.3360   23.8740 O.2   1001  COA1001    -0.5170
     27  O3A       30.4020  -20.0700   24.6650 O.3   1001  COA1001    -0.2703
     28  P2A       28.9850  -19.6980   25.3750 P.3   1001  COA1001     0.2188
     29  O4A       28.2280  -20.8770   25.9210 O.2   1001  COA1001    -0.5170
     30  O5A       29.1310  -18.5490   26.2950 O.3   1001  COA1001    -0.4371
     31  O6A       28.3040  -19.3480   23.8730 O.3   1001  COA1001    -0.3138
     32  CBP       27.2120  -20.2060   22.0160 C.3   1001  COA1001     0.0645
     33  CCP       28.3910  -20.5200   22.9860 C.3   1001  COA1001     0.1519
     34  CDP       26.0110  -19.8640   22.9600 C.3   1001  COA1001     0.0056
     35  CEP       27.1530  -21.3160   20.9900 C.3   1001  COA1001     0.0056
     36  CAP       27.7260  -18.9270   21.2400 C.3   1001  COA1001     0.2312
     37  OAP       29.0840  -19.0450   20.9390 O.3   1001  COA1001    -0.2131
     38  C9P       26.8580  -18.6440   20.0850 C.2   1001  COA1001     0.2719
     39  O9P       25.6340  -18.2260   20.5250 O.2   1001  COA1001    -0.2706
     40  N8P       27.2680  -18.6900   18.8460 N.am  1001  COA1001    -0.2028
     41  C7P       26.2560  -18.3120   17.9240 C.3   1001  COA1001     0.1248
     42  C6P       26.4570  -17.7460   16.6180 C.3   1001  COA1001     0.1102
     43  C5P       25.1680  -17.2250   15.9700 C.2   1001  COA1001     0.2432
     44  O5P       23.9740  -17.5410   16.2820 O.2   1001  COA1001    -0.2733
     45  N4P       25.4830  -16.3900   15.0350 N.am  1001  COA1001    -0.2044
     46  C3P       24.5640  -15.7070   14.0150 C.3   1001  COA1001     0.1276
     47  C2P       24.2240  -17.0670   13.4030 C.3   1001  COA1001     0.0920
     48  S1P       22.8440  -16.9750   12.1840 S.3   1001  COA1001    -0.0802
@<TRIPOS>BOND
     1    48    47    1
     2    47    46    1
     3    46    45    1
     4    45    43   am
     5    43    44    2
     6    43    42    1
     7    42    41    1
     8    41    40    1
     9    40    38   am
    10     7     6    1
    11    38    39    2
    12    38    36    1
    13     6     1    2
    14     6     5    1
    15    37    36    1
    16    35    32    1
    17     8     5    2
    18     8     9    1
    19     1     2    1
    20    36    32    1
    21     5     4    1
    22    32    34    1
    23    32    33    1
    24     9    10    1
    25     2     3    1
    26     4    10    1
    27     4     3    2
    28    33    31    1
    29    10    11    1
    30    31    28    1
    31    26    24    2
    32    27    24    1
    33    27    28    1
    34    22    23    1
    35    22    20    1
    36    11    12    1
    37    11    21    1
    38    12    13    1
    39    12    14    1
    40    24    23    1
    41    24    25    1
    42    21    20    1
    43    28    29    2
    44    28    30    1
    45    20    14    1
    46    14    15    1
    47    15    16    1
    48    17    16    2
    49    16    18    1
    50    16    19    1
