@<TRIPOS>MOLECULE
1dlw_HEM_A_1.pdb
 43 50 0 0 0
SMALL
GASTEIGER

@<TRIPOS>ATOM
      1 FE          6.5170   23.3100    8.9530 Fe    144  HEM144      0.0000
      2  CHA        6.8890   20.6540   11.0750 C.2   144  HEM144      0.0000
      3  CHB        5.6450   25.2920   11.5090 C.2   144  HEM144      0.0000
      4  CHC        6.3950   26.0230    6.8050 C.2   144  HEM144      0.0000
      5  CHD        7.9380   21.4530    6.4370 C.2   144  HEM144      0.0000
      6  NA         6.2980   23.0340   10.9270 N.2   144  HEM144      0.0000
      7  C1A        6.5510   21.8720   11.6310 C.2   144  HEM144      0.0000
      8  C2A        6.4130   22.1460   13.0410 C.2   144  HEM144      0.0000
      9  C3A        6.0680   23.4300   13.1790 C.2   144  HEM144      0.0000
     10  C4A        6.0040   24.0080   11.8590 C.2   144  HEM144      0.0000
     11  CMA        5.7990   24.2090   14.4860 C.3   144  HEM144      0.0000
     12  CAA        6.5870   21.0740   14.1460 C.3   144  HEM144      0.0000
     13  CBA        5.2250   20.4140   14.4640 C.3   144  HEM144      0.0000
     14  CGA        5.1830   19.4400   15.5990 C.2   144  HEM144      0.0000
     15  O1A        4.4180   18.4380   15.5030 O.co2 144  HEM144      0.0000
     16  O2A        5.9430   19.7300   16.5510 O.co2 144  HEM144      0.0000
     17  NB         6.0980   25.2710    9.1340 N.ar  144  HEM144      0.0000
     18  C1B        5.6680   25.9080   10.2850 C.ar  144  HEM144      0.0000
     19  C2B        5.2590   27.2550    9.9640 C.ar  144  HEM144      0.0000
     20  C3B        5.4670   27.4470    8.6580 C.ar  144  HEM144      0.0000
     21  C4B        6.0040   26.2100    8.1190 C.ar  144  HEM144      0.0000
     22  CMB        4.7220   28.2180   11.0410 C.3   144  HEM144      0.0000
     23  CAB        5.2070   28.6990    7.8000 C.2   144  HEM144      0.0000
     24  CBB        4.7750   29.8270    8.3750 C.2   144  HEM144      0.0000
     25  NC         7.0450   23.6600    7.0240 N.2   144  HEM144      0.0000
     26  C1C        6.9600   24.8540    6.3350 C.2   144  HEM144      0.0000
     27  C2C        7.4850   24.6840    4.9890 C.2   144  HEM144      0.0000
     28  C3C        7.9090   23.4180    4.8930 C.2   144  HEM144      0.0000
     29  C4C        7.6330   22.7630    6.1520 C.2   144  HEM144      0.0000
     30  CMC        7.5460   25.8110    3.9500 C.3   144  HEM144      0.0000
     31  CAC        8.5560   22.6800    3.7030 C.2   144  HEM144      0.0000
     32  CBC        9.1440   23.3400    2.7120 C.2   144  HEM144      0.0000
     33  ND         7.2580   21.4450    8.7870 N.ar  144  HEM144      0.0000
     34  C1D        7.7780   20.8410    7.6550 C.ar  144  HEM144      0.0000
     35  C2D        8.1750   19.4790    7.9570 C.ar  144  HEM144      0.0000
     36  C3D        7.8800   19.2660    9.2440 C.ar  144  HEM144      0.0000
     37  C4D        7.3020   20.4800    9.7800 C.ar  144  HEM144      0.0000
     38  CMD        8.8150   18.5430    6.9110 C.3   144  HEM144      0.0000
     39  CAD        8.0780   17.9740   10.0660 C.3   144  HEM144      0.0000
     40  CBD        7.2090   16.8010    9.6060 C.3   144  HEM144      0.0000
     41  CGD        7.4520   15.4850   10.2920 C.2   144  HEM144      0.0000
     42  O1D        7.6180   14.4920    9.5420 O.co2 144  HEM144      0.0000
     43  O2D        7.4720   15.4880   11.5530 O.co2 144  HEM144      0.0000
@<TRIPOS>BOND
     1    32    31    2
     2    31    28    1
     3    30    27    1
     4    28    27    2
     5    28    29    1
     6    27    26    1
     7    29     5    1
     8    29    25    2
     9    26     4    2
    10    26    25    1
    11     5    34    2
    12     4    21    1
    13    38    35    1
    14    25     1    1
    15    34    35   ar
    16    34    33   ar
    17    23    24    2
    18    23    20    1
    19    35    36   ar
    20    21    20   ar
    21    21    17   ar
    22    20    19   ar
    23    33     1    1
    24    33    37   ar
    25     1    17    1
    26     1     6    1
    27    17    18   ar
    28    36    37   ar
    29    36    39    1
    30    42    41   ar
    31    40    39    1
    32    40    41    1
    33    37     2    2
    34    19    18   ar
    35    19    22    1
    36    18     3    1
    37    41    43   ar
    38     6     7    2
    39     6    10    1
    40     2     7    1
    41     3    10    2
    42     7     8    1
    43    10     9    1
    44     8     9    2
    45     8    12    1
    46     9    11    1
    47    12    13    1
    48    13    14    1
    49    15    14   ar
    50    14    16   ar
