@<TRIPOS>MOLECULE
1dly_HEM_A_1.pdb
 43 50 0 0 0
SMALL
GASTEIGER

@<TRIPOS>ATOM
      1 FE          0.3610    4.4150   12.5760 Fe    144  HEM144      0.0000
      2  CHA        0.3360    7.4980   11.2240 C.2   144  HEM144      0.0000
      3  CHB       -1.7990    5.4270   15.0470 C.2   144  HEM144      0.0000
      4  CHC        0.2970    1.2190   13.8290 C.2   144  HEM144      0.0000
      5  CHD        2.6160    3.3710   10.1690 C.2   144  HEM144      0.0000
      6  NA        -0.5390    6.0910   13.0350 N.2   144  HEM144      0.0000
      7  C1A       -0.4480    7.2970   12.3630 C.2   144  HEM144      0.0000
      8  C2A       -1.2770    8.3250   13.0100 C.2   144  HEM144      0.0000
      9  C3A       -1.8550    7.7450   14.0920 C.2   144  HEM144      0.0000
     10  C4A       -1.4140    6.3660   14.1030 C.2   144  HEM144      0.0000
     11  CMA       -2.7980    8.4130   15.1020 C.3   144  HEM144      0.0000
     12  CAA       -1.4600    9.7910   12.5580 C.3   144  HEM144      0.0000
     13  CBA       -2.6220    9.9380   11.5500 C.3   144  HEM144      0.0000
     14  CGA       -2.8760   11.3640   11.0960 C.2   144  HEM144      0.0000
     15  O1A       -3.8640   11.9670   11.5580 O.co2 144  HEM144      0.0000
     16  O2A       -2.1010   11.8860   10.2680 O.co2 144  HEM144      0.0000
     17  NB        -0.5200    3.5240   14.0960 N.ar  144  HEM144      0.0000
     18  C1B       -1.3820    4.0860   15.0390 C.ar  144  HEM144      0.0000
     19  C2B       -1.8440    3.1220   15.9830 C.ar  144  HEM144      0.0000
     20  C3B       -1.2830    1.9480   15.6260 C.ar  144  HEM144      0.0000
     21  C4B       -0.4580    2.1940   14.4690 C.ar  144  HEM144      0.0000
     22  CMB       -2.8070    3.3890   17.1710 C.3   144  HEM144      0.0000
     23  CAB       -1.4690    0.5700   16.3140 C.3   144  HEM144      0.0000
     24  CBB       -0.2800   -0.2180   16.8580 C.3   144  HEM144      0.0000
     25  NC         1.2530    2.7010   12.1200 N.2   144  HEM144      0.0000
     26  C1C        1.1060    1.4610   12.7400 C.2   144  HEM144      0.0000
     27  C2C        1.9030    0.4300   12.1110 C.2   144  HEM144      0.0000
     28  C3C        2.5570    1.0460   11.1100 C.2   144  HEM144      0.0000
     29  C4C        2.1540    2.4380   11.1030 C.2   144  HEM144      0.0000
     30  CMC        1.9740   -1.0700   12.5120 C.3   144  HEM144      0.0000
     31  CAC        3.5220    0.4230   10.1360 C.3   144  HEM144      0.0000
     32  CBC        4.8360   -0.1560   10.5940 C.3   144  HEM144      0.0000
     33  ND         1.2940    5.2440   11.0250 N.ar  144  HEM144      0.0000
     34  C1D        2.2070    4.6980   10.1150 C.ar  144  HEM144      0.0000
     35  C2D        2.6570    5.6680    9.1220 C.ar  144  HEM144      0.0000
     36  C3D        1.9690    6.8180    9.4380 C.ar  144  HEM144      0.0000
     37  C4D        1.1610    6.5470   10.5990 C.ar  144  HEM144      0.0000
     38  CMD        3.6540    5.4370    7.9780 C.3   144  HEM144      0.0000
     39  CAD        1.9400    8.2250    8.7770 C.3   144  HEM144      0.0000
     40  CBD        3.2970    8.8000    8.4880 C.3   144  HEM144      0.0000
     41  CGD        3.2220   10.2440    7.9750 C.2   144  HEM144      0.0000
     42  O1D        4.2830   10.7840    7.6850 O.co2 144  HEM144      0.0000
     43  O2D        2.1100   10.8340    7.8550 O.co2 144  HEM144      0.0000
@<TRIPOS>BOND
     1    42    41   ar
     2    43    41   ar
     3    41    40    1
     4    38    35    1
     5    40    39    1
     6    39    36    1
     7    35    36   ar
     8    35    34   ar
     9    36    37   ar
    10    34     5    2
    11    34    33   ar
    12    31    32    1
    13    31    28    1
    14     5    29    1
    15    16    14   ar
    16    37    33   ar
    17    37     2    2
    18    33     1    1
    19    14    13    1
    20    14    15   ar
    21    29    28    1
    22    29    25    2
    23    28    27    2
    24     2     7    1
    25    13    12    1
    26    27    30    1
    27    27    26    1
    28    25     1    1
    29    25    26    1
    30     7     8    1
    31     7     6    2
    32    12     8    1
    33     1     6    1
    34     1    17    1
    35    26     4    2
    36     8     9    2
    37     6    10    1
    38     4    21    1
    39     9    10    1
    40     9    11    1
    41    17    21   ar
    42    17    18   ar
    43    10     3    2
    44    21    20   ar
    45    18     3    1
    46    18    19   ar
    47    20    19   ar
    48    20    23    1
    49    19    22    1
    50    23    24    1
