@<TRIPOS>MOLECULE
1dm1_HEM_A_1.pdb
 43 50 0 0 0
SMALL
GASTEIGER

@<TRIPOS>ATOM
      1 FE        -22.9280   24.4810   -5.2170 Fe    148  HEM148      0.0000
      2  CHA      -21.5820   21.6440   -6.4560 C.2   148  HEM148      0.0000
      3  CHB      -22.5120   23.3740   -2.0230 C.2   148  HEM148      0.0000
      4  CHC      -24.8680   27.0590   -4.0100 C.2   148  HEM148      0.0000
      5  CHD      -23.5660   25.5240   -8.4370 C.2   148  HEM148      0.0000
      6  NA       -22.2800   22.8480   -4.4100 N.2   148  HEM148      0.0000
      7  C1A      -21.6200   21.8190   -5.0910 C.2   148  HEM148      0.0000
      8  C2A      -21.0060   20.9530   -4.1490 C.2   148  HEM148      0.0000
      9  C3A      -21.2470   21.4310   -2.9330 C.2   148  HEM148      0.0000
     10  C4A      -22.0380   22.6060   -3.0620 C.2   148  HEM148      0.0000
     11  CMA      -20.7800   20.8200   -1.5940 C.3   148  HEM148      0.0000
     12  CAA      -20.1880   19.6960   -4.5580 C.2   148  HEM148      0.0000
     13  CBA      -18.8730   19.8120   -4.8080 C.2   148  HEM148      0.0000
     14  CGA      -18.0090   18.7640   -5.2770 C.2   148  HEM148      0.0000
     15  O1A      -18.4300   17.6730   -5.3730 O.co2 148  HEM148      0.0000
     16  O2A      -16.9560   19.0180   -5.6520 O.co2 148  HEM148      0.0000
     17  NB       -23.6180   25.0840   -3.3760 N.ar  148  HEM148      0.0000
     18  C1B      -23.2490   24.5240   -2.1770 C.ar  148  HEM148      0.0000
     19  C2B      -23.8090   25.3130   -1.0870 C.ar  148  HEM148      0.0000
     20  C3B      -24.4770   26.3070   -1.6570 C.ar  148  HEM148      0.0000
     21  C4B      -24.3420   26.1860   -3.1080 C.ar  148  HEM148      0.0000
     22  CMB      -23.6200   24.9670    0.4080 C.3   148  HEM148      0.0000
     23  CAB      -25.2350   27.4370   -0.9580 C.2   148  HEM148      0.0000
     24  CBB      -26.4620   27.6780   -1.3840 C.2   148  HEM148      0.0000
     25  NC       -23.9910   25.9220   -6.0260 N.2   148  HEM148      0.0000
     26  C1C      -24.6410   26.9550   -5.3750 C.2   148  HEM148      0.0000
     27  C2C      -25.1500   27.8780   -6.3370 C.2   148  HEM148      0.0000
     28  C3C      -24.8000   27.4520   -7.5310 C.2   148  HEM148      0.0000
     29  C4C      -24.0760   26.2380   -7.3520 C.2   148  HEM148      0.0000
     30  CMC      -25.9940   29.1250   -6.0040 C.3   148  HEM148      0.0000
     31  CAC      -25.0850   28.0210   -8.9400 C.2   148  HEM148      0.0000
     32  CBC      -26.1170   28.7970   -9.1950 C.2   148  HEM148      0.0000
     33  ND       -22.6550   23.7260   -7.0940 N.ar  148  HEM148      0.0000
     34  C1D      -22.9720   24.3170   -8.2640 C.ar  148  HEM148      0.0000
     35  C2D      -22.6010   23.4230   -9.3650 C.ar  148  HEM148      0.0000
     36  C3D      -22.0490   22.3690   -8.8050 C.ar  148  HEM148      0.0000
     37  C4D      -22.0570   22.5370   -7.3820 C.ar  148  HEM148      0.0000
     38  CMD      -22.8330   23.7690  -10.8380 C.3   148  HEM148      0.0000
     39  CAD      -21.5150   21.1060   -9.5190 C.3   148  HEM148      0.0000
     40  CBD      -22.7030   20.1330   -9.6920 C.3   148  HEM148      0.0000
     41  CGD      -22.3090   18.8110  -10.3020 C.2   148  HEM148      0.0000
     42  O1D      -22.1520   18.8340  -11.5340 O.co2 148  HEM148      0.0000
     43  O2D      -22.2410   17.8190   -9.5510 O.co2 148  HEM148      0.0000
@<TRIPOS>BOND
     1    42    41   ar
     2    38    35    1
     3    41    40    1
     4    41    43   ar
     5    40    39    1
     6    39    36    1
     7    35    36   ar
     8    35    34   ar
     9    32    31    2
    10    31    28    1
    11    36    37   ar
    12     5    34    2
    13     5    29    1
    14    34    33   ar
    15    28    29    1
    16    28    27    2
    17    37    33   ar
    18    37     2    2
    19    29    25    2
    20    33     1    1
    21     2     7    1
    22    27    30    1
    23    27    26    1
    24    25    26    1
    25    25     1    1
    26    16    14   ar
    27    26     4    2
    28    15    14   ar
    29    14    13    1
    30     1     6    1
    31     1    17    1
    32     7     6    2
    33     7     8    1
    34    13    12    2
    35    12     8    1
    36     6    10    1
    37     8     9    2
    38     4    21    1
    39    17    21   ar
    40    17    18   ar
    41    21    20   ar
    42    10     9    1
    43    10     3    2
    44     9    11    1
    45    18     3    1
    46    18    19   ar
    47    20    19   ar
    48    20    23    1
    49    24    23    2
    50    19    22    1
