@<TRIPOS>MOLECULE
1dm2_HMD_A_1.pdb
 19 21 0 0 0
SMALL
GASTEIGER

@<TRIPOS>ATOM
      1 BR1        23.1200   26.8710   28.1360 Br    400  HMD400     -0.0138
      2  O1        25.1840   31.3200   30.2860 O.2   400  HMD400     -0.2196
      3  O2        30.5370   29.9590   25.4670 O.2   400  HMD400     -0.2062
      4  N1        24.5420   29.1570   28.7920 N.2   400  HMD400     -0.3839
      5  N2        26.7440   32.0690   28.7860 N.2   400  HMD400     -0.2004
      6  N3        29.8580   28.1070   24.2840 N.2   400  HMD400     -0.2479
      7  N4        27.9500   27.6500   25.3760 N.2   400  HMD400     -0.3165
      8  N5        28.5480   26.2710   23.6020 N.pl3 400  HMD400     -0.0226
      9  C1        24.5650   28.0270   28.0820 C.2   400  HMD400      0.1659
     10  C2        25.7290   27.9080   27.3810 C.2   400  HMD400      0.0385
     11  C3        26.4900   29.0720   27.6720 C.2   400  HMD400      0.0290
     12  C4        25.6920   29.8330   28.5810 C.2   400  HMD400      0.2101
     13  C5        25.8600   31.1210   29.2680 C.1   400  HMD400      0.1802
     14  C6        27.6150   31.9880   27.6010 C.3   400  HMD400      0.1387
     15  C7        28.5210   30.7700   27.6000 C.3   400  HMD400      0.0396
     16  C8        27.8380   29.5180   27.0570 C.3   400  HMD400      0.0936
     17  C9        28.4320   28.8050   26.0100 C.2   400  HMD400      0.2204
     18  C10       29.7250   29.0460   25.2510 C.1   400  HMD400      0.2428
     19  C11       28.7890   27.3080   24.3810 C.1   400  HMD400      0.2523
@<TRIPOS>BOND
     1     8    19    1
     2     6    19    2
     3     6    18    2
     4    19     7    2
     5    18     3    2
     6    18    17    1
     7     7    17    2
     8    17    16    1
     9    16    15    1
    10    16    11    1
    11    10    11    2
    12    10     9    1
    13    15    14    1
    14    14     5    1
    15    11    12    1
    16     9     1    1
    17     9     4    2
    18    12     4    2
    19    12    13    1
    20     5    13    2
    21    13     2    2
