@<TRIPOS>MOLECULE
1dm6_HEM_A_1.pdb
 43 50 0 0 0
SMALL
GASTEIGER

@<TRIPOS>ATOM
      1  CHA        9.3250    8.8870   35.2540 C.2   1500  HEM1500     0.0000
      2  CHB        4.7620    9.2900   33.6550 C.2   1500  HEM1500     0.0000
      3  CHC        6.1840    7.4950   29.3480 C.2   1500  HEM1500     0.0000
      4  CHD       10.6670    6.8000   31.0760 C.2   1500  HEM1500     0.0000
      5  C1A        7.9790    9.2100   35.1300 C.2   1500  HEM1500     0.0000
      6  C2A        7.2460    9.9950   36.0970 C.2   1500  HEM1500     0.0000
      7  C3A        5.9600   10.0780   35.7010 C.2   1500  HEM1500     0.0000
      8  C4A        5.8960    9.3780   34.4320 C.2   1500  HEM1500     0.0000
      9  CMA        4.8290   10.7580   36.5030 C.3   1500  HEM1500     0.0000
     10  CAA        7.8300   10.6810   37.3370 C.3   1500  HEM1500     0.0000
     11  CBA        8.0810   12.1480   37.0640 C.3   1500  HEM1500     0.0000
     12  CGA        8.7500   12.8600   38.2300 C.2   1500  HEM1500     0.0000
     13  O1A        8.2800   12.7030   39.3720 O.co2 1500  HEM1500     0.0000
     14  O2A        9.7410   13.5890   38.0010 O.co2 1500  HEM1500     0.0000
     15  C1B        4.7380    8.6480   32.4020 C.ar  1500  HEM1500     0.0000
     16  C2B        3.5610    8.6150   31.5690 C.ar  1500  HEM1500     0.0000
     17  C3B        3.9320    8.1140   30.3480 C.ar  1500  HEM1500     0.0000
     18  C4B        5.3620    7.8230   30.4510 C.ar  1500  HEM1500     0.0000
     19  CMB        2.1560    9.0250   31.9800 C.3   1500  HEM1500     0.0000
     20  CAB        3.1150    8.0730   29.2230 C.2   1500  HEM1500     0.0000
     21  CBB        3.0090    7.0210   28.3660 C.2   1500  HEM1500     0.0000
     22  C1C        7.5620    7.2660   29.4270 C.2   1500  HEM1500     0.0000
     23  C2C        8.3980    6.8430   28.3110 C.2   1500  HEM1500     0.0000
     24  C3C        9.6410    6.4940   28.8270 C.2   1500  HEM1500     0.0000
     25  C4C        9.5530    6.7910   30.2420 C.2   1500  HEM1500     0.0000
     26  CMC        8.0070    6.8460   26.8290 C.3   1500  HEM1500     0.0000
     27  CAC       10.8070    5.9920   28.1860 C.2   1500  HEM1500     0.0000
     28  CBC       10.9000    5.3120   27.0010 C.2   1500  HEM1500     0.0000
     29  C1D       10.6600    7.2780   32.3900 C.ar  1500  HEM1500     0.0000
     30  C2D       11.8510    7.3560   33.2190 C.ar  1500  HEM1500     0.0000
     31  C3D       11.4730    7.9040   34.3920 C.ar  1500  HEM1500     0.0000
     32  C4D       10.0500    8.1610   34.3010 C.ar  1500  HEM1500     0.0000
     33  CMD       13.2680    6.8930   32.8630 C.3   1500  HEM1500     0.0000
     34  CAD       12.3660    8.1210   35.6130 C.3   1500  HEM1500     0.0000
     35  CBD       13.1180    9.4390   35.5520 C.3   1500  HEM1500     0.0000
     36  CGD       13.9680    9.6860   36.7880 C.2   1500  HEM1500     0.0000
     37  O1D       14.8400    8.8460   37.1010 O.co2 1500  HEM1500     0.0000
     38  O2D       13.7640   10.7260   37.4470 O.co2 1500  HEM1500     0.0000
     39  NA         7.1520    8.8020   34.0690 N.2   1500  HEM1500     0.0000
     40  NB         5.8260    8.0920   31.7540 N.ar  1500  HEM1500     0.0000
     41  NC         8.2600    7.2500   30.6330 N.2   1500  HEM1500     0.0000
     42  ND         9.5450    7.7480   33.0530 N.ar  1500  HEM1500     0.0000
     43 FE          7.6300    7.6770   32.4780 Fe    1500  HEM1500     0.0000
@<TRIPOS>BOND
     1    26    23    1
     2    28    27    2
     3    27    24    1
     4    23    24    2
     5    23    22    1
     6    21    20    2
     7    24    25    1
     8    20    17    1
     9     3    22    2
    10     3    18    1
    11    22    41    1
    12    25    41    2
    13    25     4    1
    14    17    18   ar
    15    17    16   ar
    16    18    40   ar
    17    41    43    1
    18     4    29    2
    19    16    19    1
    20    16    15   ar
    21    40    15   ar
    22    40    43    1
    23    29    42   ar
    24    29    30   ar
    25    15     2    1
    26    43    42    1
    27    43    39    1
    28    33    30    1
    29    42    32   ar
    30    30    31   ar
    31     2     8    2
    32    39     8    1
    33    39     5    2
    34    32    31   ar
    35    32     1    2
    36    31    34    1
    37     8     7    1
    38     5     1    1
    39     5     6    1
    40    35    34    1
    41    35    36    1
    42     7     6    2
    43     7     9    1
    44     6    10    1
    45    36    37   ar
    46    36    38   ar
    47    11    10    1
    48    11    12    1
    49    14    12   ar
    50    12    13   ar
