@<TRIPOS>MOLECULE
1dm6_PH3_A_1.pdb
 12 12 0 0 0
SMALL
GASTEIGER

@<TRIPOS>ATOM
      1 CL         13.0450   12.2270   33.6920 Cl    1780  PH31780    -0.0822
      2  C1         8.5120   12.4610   32.7440 C.ar  1780  PH31780     0.1592
      3  C2         9.3190   11.1760   32.3320 C.ar  1780  PH31780     0.0380
      4  C3        10.8110   11.1050   32.6500 C.ar  1780  PH31780     0.0144
      5  C4        11.3540   12.2380   33.3090 C.ar  1780  PH31780     0.0579
      6  C5        10.5940   13.3980   33.6780 C.ar  1780  PH31780     0.0144
      7  C6         9.2070   13.4880   33.3940 C.ar  1780  PH31780     0.0380
      8  NE         7.0970   12.5420   32.4440 N.pl3 1780  PH31780    -0.0610
      9  CZ         6.4550   11.9510   31.4200 C.2   1780  PH31780     0.5331
     10  NH1        7.0700   11.3240   30.3810 N.4   1780  PH31780     0.1137
     11  NH2        5.1500   11.9640   31.4670 N.pl3 1780  PH31780     0.1352
     12  OH         6.4780   10.7550   29.3470 O.3   1780  PH31780     0.0294
@<TRIPOS>BOND
     1    12    10    1
     2    10     9    1
     3     9    11    2
     4     9     8    1
     5     3     4   ar
     6     3     2   ar
     7     8     2    1
     8     4     5   ar
     9     2     7   ar
    10     5     6   ar
    11     5     1    1
    12     7     6   ar
