@<TRIPOS>MOLECULE
1dm7_HRG_A_1.pdb
 13 12 0 0 0
SMALL
GASTEIGER

@<TRIPOS>ATOM
      1  N          7.7650   15.2370   35.1290 N.3   1740  HRG1740    -0.1208
      2  CA         8.1910   15.8240   34.0140 C.3   1740  HRG1740     0.1943
      3  CB         8.1940   14.8200   32.8670 C.3   1740  HRG1740     0.0307
      4  CG         8.7330   12.4340   33.2920 C.3   1740  HRG1740     0.0470
      5  CG'        9.2920   13.7970   33.0450 C.3   1740  HRG1740     0.0058
      6  CD         8.0940   11.6540   32.1570 C.3   1740  HRG1740     0.2204
      7  NE         6.7570   11.8650   32.1260 N.pl3 1740  HRG1740    -0.0865
      8  CZ         5.9040   11.4080   31.1920 C.cat 1740  HRG1740     0.5346
      9  NH1        6.3270   10.6720   30.1690 N.pl3 1740  HRG1740     0.1354
     10  NH2        4.6120   11.6940   31.3020 N.pl3 1740  HRG1740     0.1354
     11  C          7.2990   17.0080   33.6550 C.2   1740  HRG1740     0.3819
     12  O          7.5710   17.6860   32.6310 O.co2 1740  HRG1740    -0.2441
     13  OXT        6.3260   17.2570   34.3900 O.co2 1740  HRG1740    -0.2441
@<TRIPOS>BOND
     1     9     8    1
     2     8    10    1
     3     8     7    2
     4     7     6    1
     5     6     4    1
     6    12    11   ar
     7     3     5    1
     8     3     2    1
     9     5     4    1
    10    11     2    1
    11    11    13   ar
    12     2     1    1
