@<TRIPOS>MOLECULE
1dm7_HEM_A_1.pdb
 43 50 0 0 0
SMALL
GASTEIGER

@<TRIPOS>ATOM
      1  CHA        8.9860    8.8070   34.9610 C.2   1500  HEM1500     0.0000
      2  CHB        4.3760    8.8720   33.5720 C.2   1500  HEM1500     0.0000
      3  CHC        5.7710    7.2640   29.2360 C.2   1500  HEM1500     0.0000
      4  CHD       10.2550    6.4830   30.9150 C.2   1500  HEM1500     0.0000
      5  C1A        7.6230    9.0230   34.9250 C.2   1500  HEM1500     0.0000
      6  C2A        6.9270    9.7820   35.9230 C.2   1500  HEM1500     0.0000
      7  C3A        5.6060    9.7820   35.5730 C.2   1500  HEM1500     0.0000
      8  C4A        5.5330    9.0590   34.3240 C.2   1500  HEM1500     0.0000
      9  CMA        4.4880   10.4080   36.4120 C.3   1500  HEM1500     0.0000
     10  CAA        7.5880   10.5910   37.0650 C.3   1500  HEM1500     0.0000
     11  CBA        7.5890   12.0650   36.6930 C.3   1500  HEM1500     0.0000
     12  CGA        8.2630   12.9370   37.7310 C.2   1500  HEM1500     0.0000
     13  O1A        7.9080   12.8250   38.9270 O.co2 1500  HEM1500     0.0000
     14  O2A        9.1370   13.7460   37.3460 O.co2 1500  HEM1500     0.0000
     15  C1B        4.3190    8.2320   32.3300 C.ar  1500  HEM1500     0.0000
     16  C2B        3.1330    8.2060   31.5040 C.ar  1500  HEM1500     0.0000
     17  C3B        3.4930    7.7330   30.2880 C.ar  1500  HEM1500     0.0000
     18  C4B        4.9350    7.5020   30.3470 C.ar  1500  HEM1500     0.0000
     19  CMB        1.8120    8.8690   31.8680 C.3   1500  HEM1500     0.0000
     20  CAB        2.6300    7.6620   29.1920 C.2   1500  HEM1500     0.0000
     21  CBB        2.6630    6.7890   28.1260 C.2   1500  HEM1500     0.0000
     22  C1C        7.1800    7.0620   29.2810 C.2   1500  HEM1500     0.0000
     23  C2C        7.9800    6.5750   28.1840 C.2   1500  HEM1500     0.0000
     24  C3C        9.2090    6.2290   28.6630 C.2   1500  HEM1500     0.0000
     25  C4C        9.1550    6.5540   30.0610 C.2   1500  HEM1500     0.0000
     26  CMC        7.5240    6.4430   26.7290 C.3   1500  HEM1500     0.0000
     27  CAC       10.3430    5.7300   28.0020 C.2   1500  HEM1500     0.0000
     28  CBC       10.4500    5.0930   26.7950 C.2   1500  HEM1500     0.0000
     29  C1D       10.2800    7.0230   32.1850 C.ar  1500  HEM1500     0.0000
     30  C2D       11.5010    7.2060   32.9810 C.ar  1500  HEM1500     0.0000
     31  C3D       11.1540    7.8970   34.0770 C.ar  1500  HEM1500     0.0000
     32  C4D        9.7240    8.1440   33.9610 C.ar  1500  HEM1500     0.0000
     33  CMD       12.9080    6.8150   32.6080 C.3   1500  HEM1500     0.0000
     34  CAD       12.0060    8.4250   35.2170 C.3   1500  HEM1500     0.0000
     35  CBD       12.6500    9.7360   34.8140 C.3   1500  HEM1500     0.0000
     36  CGD       13.3930   10.4020   35.9570 C.2   1500  HEM1500     0.0000
     37  O1D       14.1360    9.7000   36.6710 O.co2 1500  HEM1500     0.0000
     38  O2D       13.2430   11.6290   36.1320 O.co2 1500  HEM1500     0.0000
     39  NA         6.7860    8.5790   33.9320 N.2   1500  HEM1500     0.0000
     40  NB         5.4240    7.7480   31.6330 N.ar  1500  HEM1500     0.0000
     41  NC         7.9060    7.0520   30.4580 N.2   1500  HEM1500     0.0000
     42  ND         9.1820    7.5790   32.7950 N.ar  1500  HEM1500     0.0000
     43 FE          7.2640    7.4680   32.3220 Fe    1500  HEM1500     0.0000
@<TRIPOS>BOND
     1    26    23    1
     2    28    27    2
     3    27    24    1
     4    21    20    2
     5    23    24    2
     6    23    22    1
     7    24    25    1
     8    20    17    1
     9     3    22    2
    10     3    18    1
    11    22    41    1
    12    25    41    2
    13    25     4    1
    14    17    18   ar
    15    17    16   ar
    16    18    40   ar
    17    41    43    1
    18     4    29    2
    19    16    19    1
    20    16    15   ar
    21    40    43    1
    22    40    15   ar
    23    29    42   ar
    24    29    30   ar
    25    43    42    1
    26    43    39    1
    27    15     2    1
    28    33    30    1
    29    42    32   ar
    30    30    31   ar
    31     2     8    2
    32    39     8    1
    33    39     5    2
    34    32    31   ar
    35    32     1    2
    36    31    34    1
    37     8     7    1
    38    35    34    1
    39    35    36    1
    40     5     1    1
    41     5     6    1
    42     7     6    2
    43     7     9    1
    44     6    10    1
    45    36    38   ar
    46    36    37   ar
    47    11    10    1
    48    11    12    1
    49    14    12   ar
    50    12    13   ar
