@<TRIPOS>MOLECULE
1dm8_H4B_A_1.pdb
 17 18 0 0 0
SMALL
GASTEIGER

@<TRIPOS>ATOM
      1  N1         8.3430   11.8070   42.8030 N.2   1600  H4B1600    -0.2683
      2  C2         8.3210   12.1360   41.4870 C.1   1600  H4B1600     0.2608
      3  N2         7.4750   11.5970   40.6280 N.pl3 1600  H4B1600    -0.0220
      4  N3         9.1900   13.0600   41.0520 N.2   1600  H4B1600    -0.2474
      5  C4        10.1420   13.7110   41.8590 C.1   1600  H4B1600     0.2441
      6  O4        10.8880   14.5370   41.3330 O.2   1600  H4B1600    -0.2063
      7  C4A       10.1110   13.3110   43.2190 C.2   1600  H4B1600     0.2463
      8  C8A        9.2100   12.3870   43.6960 C.1   1600  H4B1600     0.1270
      9  N5        11.0530   13.9570   44.1290 N.2   1600  H4B1600    -0.2460
     10  N8         9.1770   11.9900   44.9700 N.2   1600  H4B1600    -0.2054
     11  C6        11.3630   13.1520   45.3880 C.3   1600  H4B1600     0.1627
     12  C7        10.0800   12.5740   45.9790 C.3   1600  H4B1600     0.1643
     13  C9        12.1620   14.1080   46.2950 C.3   1600  H4B1600     0.2063
     14  O9        11.5040   15.3500   46.5740 O.3   1600  H4B1600    -0.2183
     15  C10       12.5480   13.4390   47.6260 C.3   1600  H4B1600     0.1842
     16  C11       13.5060   14.2700   48.4070 C.3   1600  H4B1600     0.0383
     17  O10       13.1630   12.2090   47.2320 O.3   1600  H4B1600    -0.2204
@<TRIPOS>BOND
     1     3     2    1
     2     4     2    2
     3     4     5    2
     4     6     5    2
     5     2     1    2
     6     5     7    1
     7     1     8    2
     8     7     8    1
     9     7     9    2
    10     8    10    2
    11     9    11    1
    12    10    12    1
    13    11    12    1
    14    11    13    1
    15    13    14    1
    16    13    15    1
    17    17    15    1
    18    15    16    1
