@<TRIPOS>MOLECULE
1dm8_HEM_A_1.pdb
 43 50 0 0 0
SMALL
GASTEIGER

@<TRIPOS>ATOM
      1  CHA        9.1880    9.0700   34.9260 C.2   1500  HEM1500     0.0000
      2  CHB        4.5260    9.0140   33.5330 C.2   1500  HEM1500     0.0000
      3  CHC        5.9110    7.1940   29.2620 C.2   1500  HEM1500     0.0000
      4  CHD       10.4320    6.5300   31.0120 C.2   1500  HEM1500     0.0000
      5  C1A        7.8320    9.3800   34.7830 C.2   1500  HEM1500     0.0000
      6  C2A        7.0700   10.1540   35.7160 C.2   1500  HEM1500     0.0000
      7  C3A        5.7540   10.0310   35.4280 C.2   1500  HEM1500     0.0000
      8  C4A        5.7060    9.2240   34.2450 C.2   1500  HEM1500     0.0000
      9  CMA        4.5810   10.5770   36.2610 C.3   1500  HEM1500     0.0000
     10  CAA        7.6850   10.9380   36.8710 C.3   1500  HEM1500     0.0000
     11  CBA        7.9390   12.3290   36.3410 C.3   1500  HEM1500     0.0000
     12  CGA        8.5220   13.2460   37.3850 C.2   1500  HEM1500     0.0000
     13  O1A        8.0690   13.1760   38.5470 O.co2 1500  HEM1500     0.0000
     14  O2A        9.4180   14.0440   37.0390 O.co2 1500  HEM1500     0.0000
     15  C1B        4.5140    8.4260   32.2860 C.ar  1500  HEM1500     0.0000
     16  C2B        3.3260    8.4250   31.4710 C.ar  1500  HEM1500     0.0000
     17  C3B        3.6500    7.8570   30.2670 C.ar  1500  HEM1500     0.0000
     18  C4B        5.0910    7.5140   30.3630 C.ar  1500  HEM1500     0.0000
     19  CMB        1.9580    8.9150   31.9530 C.3   1500  HEM1500     0.0000
     20  CAB        2.7310    7.7480   29.2110 C.2   1500  HEM1500     0.0000
     21  CBB        2.7300    6.8970   28.1420 C.2   1500  HEM1500     0.0000
     22  C1C        7.2960    7.0130   29.3340 C.2   1500  HEM1500     0.0000
     23  C2C        8.1030    6.5680   28.2140 C.2   1500  HEM1500     0.0000
     24  C3C        9.3450    6.2880   28.7210 C.2   1500  HEM1500     0.0000
     25  C4C        9.3180    6.6040   30.1390 C.2   1500  HEM1500     0.0000
     26  CMC        7.6580    6.3900   26.7560 C.3   1500  HEM1500     0.0000
     27  CAC       10.4720    5.8060   28.0380 C.2   1500  HEM1500     0.0000
     28  CBC       10.5020    5.0830   26.8800 C.2   1500  HEM1500     0.0000
     29  C1D       10.4550    7.0590   32.2980 C.ar  1500  HEM1500     0.0000
     30  C2D       11.6570    7.2250   33.0960 C.ar  1500  HEM1500     0.0000
     31  C3D       11.3240    8.0100   34.1210 C.ar  1500  HEM1500     0.0000
     32  C4D        9.9110    8.3050   34.0070 C.ar  1500  HEM1500     0.0000
     33  CMD       13.0720    6.7240   32.8550 C.3   1500  HEM1500     0.0000
     34  CAD       12.2600    8.5640   35.1640 C.3   1500  HEM1500     0.0000
     35  CBD       12.6930    9.9800   34.8220 C.3   1500  HEM1500     0.0000
     36  CGD       13.5380   10.5970   35.9190 C.2   1500  HEM1500     0.0000
     37  O1D       14.1310    9.8220   36.6990 O.co2 1500  HEM1500     0.0000
     38  O2D       13.6250   11.8420   35.9890 O.co2 1500  HEM1500     0.0000
     39  NA         6.9970    8.8240   33.8460 N.2   1500  HEM1500     0.0000
     40  NB         5.6180    7.8530   31.6280 N.ar  1500  HEM1500     0.0000
     41  NC         8.0620    7.0710   30.5210 N.2   1500  HEM1500     0.0000
     42  ND         9.3700    7.6910   32.8850 N.ar  1500  HEM1500     0.0000
     43 FE          7.4840    7.6270   32.3320 Fe    1500  HEM1500     0.0000
@<TRIPOS>BOND
     1    26    23    1
     2    28    27    2
     3    27    24    1
     4    21    20    2
     5    23    24    2
     6    23    22    1
     7    24    25    1
     8    20    17    1
     9     3    22    2
    10     3    18    1
    11    22    41    1
    12    25    41    2
    13    25     4    1
    14    17    18   ar
    15    17    16   ar
    16    18    40   ar
    17    41    43    1
    18     4    29    2
    19    16    19    1
    20    16    15   ar
    21    40    15   ar
    22    40    43    1
    23    15     2    1
    24    29    42   ar
    25    29    30   ar
    26    43    42    1
    27    43    39    1
    28    33    30    1
    29    42    32   ar
    30    30    31   ar
    31     2     8    2
    32    39     8    1
    33    39     5    2
    34    32    31   ar
    35    32     1    2
    36    31    34    1
    37     8     7    1
    38     5     1    1
    39     5     6    1
    40    35    34    1
    41    35    36    1
    42     7     6    2
    43     7     9    1
    44     6    10    1
    45    36    38   ar
    46    36    37   ar
    47    11    10    1
    48    11    12    1
    49    14    12   ar
    50    12    13   ar
