@<TRIPOS>MOLECULE
1dma_AMP_B_1.pdb
 23 25 0 0 0
SMALL
GASTEIGER

@<TRIPOS>ATOM
      1  P         24.3650   82.2990    8.5540 P.3   701  AMP701      0.5327
      2  O1P       23.9610   82.0000    7.1630 O.2   701  AMP701     -0.2224
      3  O2P       24.7540   81.1100    9.4260 O.3   701  AMP701     -0.1145
      4  O3P       23.1920   83.2860    9.1700 O.3   701  AMP701     -0.1145
      5  O5'       25.5240   83.4720    8.3890 O.3   701  AMP701     -0.2675
      6  C5'       25.7550   83.9330    7.0510 C.3   701  AMP701      0.1860
      7  C4'       25.1840   85.2960    6.8380 C.3   701  AMP701      0.1823
      8  O4'       26.1230   86.0530    7.5900 O.3   701  AMP701     -0.3135
      9  C3'       25.3630   85.9100    5.4990 C.3   701  AMP701      0.2184
     10  O3'       24.5520   87.0730    5.4090 O.3   701  AMP701     -0.2174
     11  C2'       26.7930   86.3830    5.4820 C.3   701  AMP701      0.2570
     12  O2'       26.9190   87.4580    4.5760 O.3   701  AMP701     -0.2130
     13  C1'       26.9090   86.9660    6.8410 C.3   701  AMP701      0.3186
     14  N9        28.3040   86.9290    7.3220 N.pl3 701  AMP701     -0.1439
     15  C8        28.8800   87.8730    8.0620 C.3   701  AMP701      0.3377
     16  N7        30.0500   87.3780    8.4890 N.2   701  AMP701     -0.2095
     17  C5        30.1590   86.1460    7.9970 C.2   701  AMP701      0.2526
     18  C6        31.3210   85.3940    7.9420 C.2   701  AMP701      0.4393
     19  N6        32.4590   85.8840    8.4280 N.pl3 701  AMP701      0.2180
     20  N1        31.3180   84.2840    7.1960 N.2   701  AMP701      0.0021
     21  C2        30.2370   83.9370    6.5040 C.3   701  AMP701      0.5254
     22  N3        29.1380   84.6830    6.5260 N.2   701  AMP701     -0.0055
     23  C4        29.0780   85.8270    7.2510 C.2   701  AMP701      0.3518
@<TRIPOS>BOND
     1    12    11    1
     2    10     9    1
     3    11     9    1
     4    11    13    1
     5     9     7    1
     6    21    22    1
     7    21    20    1
     8    22    23    2
     9     7     6    1
    10     7     8    1
    11    13    14    1
    12    13     8    1
    13     6     5    1
    14     2     1    2
    15    20    18    2
    16    23    14    1
    17    23    17    1
    18    14    15    1
    19    18    17    1
    20    18    19    1
    21    17    16    2
    22    15    16    1
    23     5     1    1
    24     1     4    1
    25     1     3    1
