@<TRIPOS>MOLECULE
1dmi_HEM_A_1.pdb
 43 50 0 0 0
SMALL
GASTEIGER

@<TRIPOS>ATOM
      1  CHA        9.1670    9.0800   35.0590 C.2   1500  HEM1500     0.0000
      2  CHB        4.5620    8.9990   33.5710 C.2   1500  HEM1500     0.0000
      3  CHC        5.9910    7.2880   29.3130 C.2   1500  HEM1500     0.0000
      4  CHD       10.4570    6.6820   31.0590 C.2   1500  HEM1500     0.0000
      5  C1A        7.7870    9.3540   34.9280 C.2   1500  HEM1500     0.0000
      6  C2A        6.9840   10.1740   35.8360 C.2   1500  HEM1500     0.0000
      7  C3A        5.6860   10.0350   35.5170 C.2   1500  HEM1500     0.0000
      8  C4A        5.6780    9.1770   34.3460 C.2   1500  HEM1500     0.0000
      9  CMA        4.4870   10.5720   36.3480 C.3   1500  HEM1500     0.0000
     10  CAA        7.5160   11.0130   36.9680 C.3   1500  HEM1500     0.0000
     11  CBA        7.9970   12.3540   36.4720 C.3   1500  HEM1500     0.0000
     12  CGA        8.7190   13.1130   37.5480 C.2   1500  HEM1500     0.0000
     13  O1A        8.1510   13.2470   38.6470 O.co2 1500  HEM1500     0.0000
     14  O2A        9.8520   13.5720   37.2970 O.co2 1500  HEM1500     0.0000
     15  C1B        4.5430    8.3890   32.3360 C.ar  1500  HEM1500     0.0000
     16  C2B        3.3320    8.3930   31.4970 C.ar  1500  HEM1500     0.0000
     17  C3B        3.6930    7.8590   30.2980 C.ar  1500  HEM1500     0.0000
     18  C4B        5.1470    7.5370   30.4130 C.ar  1500  HEM1500     0.0000
     19  CMB        1.9680    8.9090   31.9180 C.3   1500  HEM1500     0.0000
     20  CAB        2.8450    7.8360   29.1840 C.2   1500  HEM1500     0.0000
     21  CBB        2.8090    6.9060   28.1840 C.2   1500  HEM1500     0.0000
     22  C1C        7.3800    7.1180   29.3840 C.2   1500  HEM1500     0.0000
     23  C2C        8.1880    6.6720   28.2730 C.2   1500  HEM1500     0.0000
     24  C3C        9.4030    6.3590   28.7790 C.2   1500  HEM1500     0.0000
     25  C4C        9.3520    6.6770   30.2010 C.2   1500  HEM1500     0.0000
     26  CMC        7.7090    6.5210   26.8370 C.3   1500  HEM1500     0.0000
     27  CAC       10.5390    5.8470   28.1120 C.2   1500  HEM1500     0.0000
     28  CBC       10.6710    5.1680   26.9230 C.2   1500  HEM1500     0.0000
     29  C1D       10.4990    7.2150   32.3420 C.ar  1500  HEM1500     0.0000
     30  C2D       11.6930    7.3070   33.1660 C.ar  1500  HEM1500     0.0000
     31  C3D       11.3330    7.9990   34.2510 C.ar  1500  HEM1500     0.0000
     32  C4D        9.9290    8.3230   34.1340 C.ar  1500  HEM1500     0.0000
     33  CMD       13.0690    6.7390   32.8690 C.3   1500  HEM1500     0.0000
     34  CAD       12.2390    8.4210   35.3870 C.3   1500  HEM1500     0.0000
     35  CBD       12.7420    9.8240   35.0720 C.3   1500  HEM1500     0.0000
     36  CGD       13.5740   10.3980   36.1930 C.2   1500  HEM1500     0.0000
     37  O1D       14.1900    9.6020   36.9350 O.co2 1500  HEM1500     0.0000
     38  O2D       13.6190   11.6430   36.3230 O.co2 1500  HEM1500     0.0000
     39  NA         6.9650    8.7570   33.9590 N.2   1500  HEM1500     0.0000
     40  NB         5.6490    7.8360   31.6920 N.ar  1500  HEM1500     0.0000
     41  NC         8.1000    7.1270   30.5890 N.2   1500  HEM1500     0.0000
     42  ND         9.4110    7.7670   32.9730 N.ar  1500  HEM1500     0.0000
     43 FE          7.4950    7.5990   32.4210 Fe    1500  HEM1500     0.0000
@<TRIPOS>BOND
     1    26    23    1
     2    28    27    2
     3    27    24    1
     4    21    20    2
     5    23    24    2
     6    23    22    1
     7    24    25    1
     8    20    17    1
     9     3    22    2
    10     3    18    1
    11    22    41    1
    12    25    41    2
    13    25     4    1
    14    17    18   ar
    15    17    16   ar
    16    18    40   ar
    17    41    43    1
    18     4    29    2
    19    16    19    1
    20    16    15   ar
    21    40    15   ar
    22    40    43    1
    23    15     2    1
    24    29    42   ar
    25    29    30   ar
    26    43    42    1
    27    43    39    1
    28    33    30    1
    29    42    32   ar
    30    30    31   ar
    31     2     8    2
    32    39     8    1
    33    39     5    2
    34    32    31   ar
    35    32     1    2
    36    31    34    1
    37     8     7    1
    38     5     1    1
    39     5     6    1
    40    35    34    1
    41    35    36    1
    42     7     6    2
    43     7     9    1
    44     6    10    1
    45    36    38   ar
    46    36    37   ar
    47    11    10    1
    48    11    12    1
    49    14    12   ar
    50    12    13   ar
