@<TRIPOS>MOLECULE
1dmi_BHS_A_1.pdb
 17 18 0 0 0
SMALL
GASTEIGER

@<TRIPOS>ATOM
      1  N1         8.0790   11.7630   42.7590 N.2   1610  BHS1610    -0.2683
      2  C2         8.0680   12.1290   41.4540 C.1   1610  BHS1610     0.2608
      3  N2         7.2270   11.5870   40.6220 N.pl3 1610  BHS1610    -0.0220
      4  N3         8.9730   13.0780   41.0340 N.2   1610  BHS1610    -0.2474
      5  C4         9.9220   13.7150   41.9160 C.1   1610  BHS1610     0.2441
      6  O4        10.6890   14.5450   41.4490 O.2   1610  BHS1610    -0.2063
      7  C4A        9.8790   13.2770   43.2640 C.2   1610  BHS1610     0.2463
      8  C8A        8.9590   12.3090   43.6900 C.1   1610  BHS1610     0.1270
      9  N5        10.7540   13.8310   44.1700 N.2   1610  BHS1610    -0.2460
     10  C6        11.1040   12.9840   45.2960 C.3   1610  BHS1610     0.1627
     11  C7         9.9380   12.1710   45.8590 C.3   1610  BHS1610     0.1643
     12  N8         8.8790   11.8720   44.9660 N.2   1610  BHS1610    -0.2054
     13  C1'       11.6250   13.7080   46.5570 C.3   1610  BHS1610     0.2063
     14  O1'       11.9000   15.0920   46.2640 O.3   1610  BHS1610    -0.2183
     15  C2'       12.8650   12.9950   47.1210 C.3   1610  BHS1610     0.1842
     16  O2'       12.5890   11.6030   47.4150 O.3   1610  BHS1610    -0.2204
     17  C3'       13.3910   13.6900   48.3740 C.3   1610  BHS1610     0.0383
@<TRIPOS>BOND
     1     3     2    1
     2     4     2    2
     3     4     5    2
     4     6     5    2
     5     2     1    2
     6     5     7    1
     7     1     8    2
     8     7     8    1
     9     7     9    2
    10     8    12    2
    11     9    10    1
    12    12    11    1
    13    10    11    1
    14    10    13    1
    15    14    13    1
    16    13    15    1
    17    15    16    1
    18    15    17    1
