@<TRIPOS>MOLECULE
1dmj_AP4_A_1.pdb
 16 18 0 0 0
SMALL
GASTEIGER

@<TRIPOS>ATOM
      1  N1         8.3880   11.9530   42.9540 N.2   1650  AP41650    -0.2722
      2  C2         8.3360   12.2850   41.6460 C.1   1650  AP41650     0.2603
      3  N2         7.4510   11.7770   40.8290 N.pl3 1650  AP41650    -0.0221
      4  N3         9.2230   13.1800   41.1340 N.2   1650  AP41650    -0.2512
      5  C4        10.2270   13.7920   41.9320 C.1   1650  AP41650     0.2257
      6  O4        11.0290   14.6130   41.4410 O.2   1650  AP41650    -0.2106
      7  N5        11.2510   13.9730   44.1840 N.am  1650  AP41650    -0.2159
      8  C6        11.4930   13.2980   45.5320 C.3   1650  AP41650     0.1493
      9  C7        10.3340   12.6880   46.0430 C.3   1650  AP41650     0.1607
     10  N8         9.3760   12.1450   45.1570 N.2   1650  AP41650    -0.2089
     11  C10        9.3600   12.5150   43.7990 C.1   1650  AP41650     0.1089
     12  C9        10.2880   13.4460   43.3080 C.3   1650  AP41650     0.2961
     13  C11       12.1540   14.4530   46.3250 C.3   1650  AP41650     0.2319
     14  O12       11.7650   15.6850   45.7640 O.3   1650  AP41650    -0.4326
     15  C13       11.1910   15.4640   44.4750 C.2   1650  AP41650     0.4066
     16  O14       10.8030   16.4320   43.8120 O.2   1650  AP41650    -0.2261
@<TRIPOS>BOND
     1     3     2    1
     2     4     2    2
     3     4     5    2
     4     6     5    2
     5     2     1    2
     6     5    12    1
     7     1    11    2
     8    12    11    1
     9    12     7    1
    10    11    10    2
    11    16    15    2
    12     7    15   am
    13     7     8    1
    14    15    14    1
    15    10     9    1
    16     8     9    1
    17     8    13    1
    18    14    13    1
