@<TRIPOS>MOLECULE
1dmj_HEM_A_1.pdb
 43 50 0 0 0
SMALL
GASTEIGER

@<TRIPOS>ATOM
      1  CHA        9.2510    9.1430   34.9810 C.2   1500  HEM1500     0.0000
      2  CHB        4.6300    9.2210   33.5250 C.2   1500  HEM1500     0.0000
      3  CHC        6.0480    7.4370   29.2920 C.2   1500  HEM1500     0.0000
      4  CHD       10.5130    6.7220   31.0140 C.2   1500  HEM1500     0.0000
      5  C1A        7.8770    9.4370   34.8790 C.2   1500  HEM1500     0.0000
      6  C2A        7.1450   10.2510   35.8180 C.2   1500  HEM1500     0.0000
      7  C3A        5.8380   10.2050   35.4810 C.2   1500  HEM1500     0.0000
      8  C4A        5.7780    9.4370   34.2580 C.2   1500  HEM1500     0.0000
      9  CMA        4.6600   10.7780   36.2830 C.3   1500  HEM1500     0.0000
     10  CAA        7.8020   11.0800   36.9370 C.3   1500  HEM1500     0.0000
     11  CBA        8.3290   12.4050   36.3850 C.3   1500  HEM1500     0.0000
     12  CGA        8.9400   13.2970   37.4530 C.2   1500  HEM1500     0.0000
     13  O1A        8.3880   13.3460   38.5760 O.co2 1500  HEM1500     0.0000
     14  O2A        9.9590   13.9640   37.1600 O.co2 1500  HEM1500     0.0000
     15  C1B        4.5890    8.5640   32.2990 C.ar  1500  HEM1500     0.0000
     16  C2B        3.4250    8.6020   31.4370 C.ar  1500  HEM1500     0.0000
     17  C3B        3.7890    8.0760   30.2410 C.ar  1500  HEM1500     0.0000
     18  C4B        5.2130    7.7540   30.3640 C.ar  1500  HEM1500     0.0000
     19  CMB        2.0430    9.1540   31.8220 C.3   1500  HEM1500     0.0000
     20  CAB        2.9140    7.9360   29.1570 C.2   1500  HEM1500     0.0000
     21  CBB        2.9560    6.9430   28.2170 C.2   1500  HEM1500     0.0000
     22  C1C        7.4230    7.2290   29.3680 C.2   1500  HEM1500     0.0000
     23  C2C        8.2060    6.7670   28.2450 C.2   1500  HEM1500     0.0000
     24  C3C        9.4490    6.4450   28.7530 C.2   1500  HEM1500     0.0000
     25  C4C        9.3990    6.7500   30.1740 C.2   1500  HEM1500     0.0000
     26  CMC        7.7300    6.6160   26.7980 C.3   1500  HEM1500     0.0000
     27  CAC       10.5760    5.9620   28.0670 C.2   1500  HEM1500     0.0000
     28  CBC       10.6130    5.1460   26.9740 C.2   1500  HEM1500     0.0000
     29  C1D       10.5250    7.2360   32.2960 C.ar  1500  HEM1500     0.0000
     30  C2D       11.7260    7.3920   33.0920 C.ar  1500  HEM1500     0.0000
     31  C3D       11.3850    8.0790   34.1870 C.ar  1500  HEM1500     0.0000
     32  C4D        9.9680    8.3600   34.0760 C.ar  1500  HEM1500     0.0000
     33  CMD       13.1510    6.9020   32.8090 C.3   1500  HEM1500     0.0000
     34  CAD       12.3200    8.4650   35.3430 C.3   1500  HEM1500     0.0000
     35  CBD       13.1990    9.6770   35.0530 C.3   1500  HEM1500     0.0000
     36  CGD       13.9870   10.1350   36.2710 C.2   1500  HEM1500     0.0000
     37  O1D       14.6510    9.2880   36.9120 O.co2 1500  HEM1500     0.0000
     38  O2D       13.9440   11.3440   36.5820 O.co2 1500  HEM1500     0.0000
     39  NA         7.0320    8.9330   33.9040 N.2   1500  HEM1500     0.0000
     40  NB         5.6960    8.0190   31.6510 N.ar  1500  HEM1500     0.0000
     41  NC         8.1500    7.2240   30.5600 N.2   1500  HEM1500     0.0000
     42  ND         9.4180    7.7880   32.9240 N.ar  1500  HEM1500     0.0000
     43 FE          7.5090    7.6750   32.4150 Fe    1500  HEM1500     0.0000
@<TRIPOS>BOND
     1    26    23    1
     2    28    27    2
     3    27    24    1
     4    21    20    2
     5    23    24    2
     6    23    22    1
     7    24    25    1
     8    20    17    1
     9     3    22    2
    10     3    18    1
    11    22    41    1
    12    25    41    2
    13    25     4    1
    14    17    18   ar
    15    17    16   ar
    16    18    40   ar
    17    41    43    1
    18     4    29    2
    19    16    19    1
    20    16    15   ar
    21    40    15   ar
    22    40    43    1
    23    29    42   ar
    24    29    30   ar
    25    15     2    1
    26    43    42    1
    27    43    39    1
    28    33    30    1
    29    42    32   ar
    30    30    31   ar
    31     2     8    2
    32    39     8    1
    33    39     5    2
    34    32    31   ar
    35    32     1    2
    36    31    34    1
    37     8     7    1
    38     5     1    1
    39     5     6    1
    40    35    34    1
    41    35    36    1
    42     7     6    2
    43     7     9    1
    44     6    10    1
    45    36    38   ar
    46    36    37   ar
    47    11    10    1
    48    11    12    1
    49    14    12   ar
    50    12    13   ar
