@<TRIPOS>MOLECULE
1dmk_HEM_A_1.pdb
 43 50 0 0 0
SMALL
GASTEIGER

@<TRIPOS>ATOM
      1  CHA        9.2750    9.0500   34.9480 C.2   1500  HEM1500     0.0000
      2  CHB        4.6470    8.9120   33.4630 C.2   1500  HEM1500     0.0000
      3  CHC        6.1220    7.1740   29.2360 C.2   1500  HEM1500     0.0000
      4  CHD       10.5990    6.6280   30.9990 C.2   1500  HEM1500     0.0000
      5  C1A        7.8960    9.3010   34.8400 C.2   1500  HEM1500     0.0000
      6  C2A        7.1150   10.1140   35.7460 C.2   1500  HEM1500     0.0000
      7  C3A        5.8060   10.0020   35.4120 C.2   1500  HEM1500     0.0000
      8  C4A        5.7800    9.1750   34.2310 C.2   1500  HEM1500     0.0000
      9  CMA        4.6570   10.5650   36.2530 C.3   1500  HEM1500     0.0000
     10  CAA        7.6330   10.9530   36.8720 C.3   1500  HEM1500     0.0000
     11  CBA        7.8810   12.3500   36.3490 C.3   1500  HEM1500     0.0000
     12  CGA        8.6680   13.1950   37.3310 C.2   1500  HEM1500     0.0000
     13  O1A        8.2810   13.2510   38.5200 O.co2 1500  HEM1500     0.0000
     14  O2A        9.6740   13.8080   36.9110 O.co2 1500  HEM1500     0.0000
     15  C1B        4.6370    8.2740   32.2270 C.ar  1500  HEM1500     0.0000
     16  C2B        3.4470    8.2140   31.3720 C.ar  1500  HEM1500     0.0000
     17  C3B        3.8390    7.7150   30.1650 C.ar  1500  HEM1500     0.0000
     18  C4B        5.2960    7.4530   30.3010 C.ar  1500  HEM1500     0.0000
     19  CMB        2.0530    8.6750   31.8060 C.3   1500  HEM1500     0.0000
     20  CAB        3.0980    7.6910   28.9750 C.2   1500  HEM1500     0.0000
     21  CBB        3.0940    6.6970   28.0230 C.2   1500  HEM1500     0.0000
     22  C1C        7.5230    7.0320   29.3070 C.2   1500  HEM1500     0.0000
     23  C2C        8.3300    6.6000   28.2020 C.2   1500  HEM1500     0.0000
     24  C3C        9.5840    6.3000   28.7010 C.2   1500  HEM1500     0.0000
     25  C4C        9.5160    6.6360   30.1120 C.2   1500  HEM1500     0.0000
     26  CMC        7.8070    6.5310   26.7520 C.3   1500  HEM1500     0.0000
     27  CAC       10.7070    5.8130   28.0240 C.2   1500  HEM1500     0.0000
     28  CBC       10.7150    5.1080   26.8530 C.2   1500  HEM1500     0.0000
     29  C1D       10.6200    7.1550   32.2800 C.ar  1500  HEM1500     0.0000
     30  C2D       11.8070    7.2790   33.1150 C.ar  1500  HEM1500     0.0000
     31  C3D       11.4450    7.9950   34.2030 C.ar  1500  HEM1500     0.0000
     32  C4D       10.0330    8.2720   34.0620 C.ar  1500  HEM1500     0.0000
     33  CMD       13.2150    6.7710   32.8530 C.3   1500  HEM1500     0.0000
     34  CAD       12.2790    8.5300   35.3400 C.3   1500  HEM1500     0.0000
     35  CBD       12.7660    9.9450   35.0740 C.3   1500  HEM1500     0.0000
     36  CGD       13.6510   10.4900   36.1820 C.2   1500  HEM1500     0.0000
     37  O1D       14.2540    9.6910   36.9310 O.co2 1500  HEM1500     0.0000
     38  O2D       13.7540   11.7270   36.2850 O.co2 1500  HEM1500     0.0000
     39  NA         7.0850    8.7250   33.8640 N.2   1500  HEM1500     0.0000
     40  NB         5.7520    7.7680   31.5920 N.ar  1500  HEM1500     0.0000
     41  NC         8.2140    7.0760   30.4920 N.2   1500  HEM1500     0.0000
     42  ND         9.5410    7.7150   32.8840 N.ar  1500  HEM1500     0.0000
     43 FE          7.5960    7.4970   32.3370 Fe    1500  HEM1500     0.0000
@<TRIPOS>BOND
     1    26    23    1
     2    28    27    2
     3    21    20    2
     4    27    24    1
     5    23    24    2
     6    23    22    1
     7    24    25    1
     8    20    17    1
     9     3    22    2
    10     3    18    1
    11    22    41    1
    12    25    41    2
    13    25     4    1
    14    17    18   ar
    15    17    16   ar
    16    18    40   ar
    17    41    43    1
    18     4    29    2
    19    16    19    1
    20    16    15   ar
    21    40    15   ar
    22    40    43    1
    23    15     2    1
    24    29    42   ar
    25    29    30   ar
    26    43    42    1
    27    43    39    1
    28    33    30    1
    29    42    32   ar
    30    30    31   ar
    31     2     8    2
    32    39     8    1
    33    39     5    2
    34    32    31   ar
    35    32     1    2
    36    31    34    1
    37     8     7    1
    38     5     1    1
    39     5     6    1
    40    35    34    1
    41    35    36    1
    42     7     6    2
    43     7     9    1
    44     6    10    1
    45    36    38   ar
    46    36    37   ar
    47    11    10    1
    48    11    12    1
    49    14    12   ar
    50    12    13   ar
