@<TRIPOS>MOLECULE
1dmk_AP6_A_1.pdb
 18 20 0 0 0
SMALL
GASTEIGER

@<TRIPOS>ATOM
      1  N1         8.2060   11.5830   42.7220 N.2   1660  AP61660    -0.2694
      2  C2         8.0920   12.0920   41.3290 C.1   1660  AP61660     0.2518
      3  N2         7.2400   11.5710   40.4620 N.pl3 1660  AP61660    -0.0226
      4  N3         8.9570   13.1360   40.9970 N.2   1660  AP61660    -0.3045
      5  C4         9.9060   13.7510   41.8630 C.2   1660  AP61660     0.2604
      6  N4        10.7700   14.8610   41.4200 N.pl3 1660  AP61660    -0.0897
      7  C9         9.9530   13.1920   43.1890 C.2   1660  AP61660     0.1988
      8  C10        9.1160   12.1260   43.6270 C.1   1660  AP61660     0.1184
      9  N5        10.8910   13.7740   44.0580 N.2   1660  AP61660    -0.2517
     10  C6        10.5960   13.5730   45.4340 C.3   1660  AP61660     0.1515
     11  C7        10.2850   12.0930   45.7670 C.3   1660  AP61660     0.1660
     12  N8         9.1800   11.6300   44.8870 N.2   1660  AP61660    -0.2056
     13  C11       11.7360   14.0870   46.3170 C.ar  1660  AP61660     0.0018
     14  C12       12.2840   13.2620   47.5360 C.ar  1660  AP61660    -0.0023
     15  C16       12.3180   15.3400   46.0590 C.ar  1660  AP61660    -0.0023
     16  C13       13.3160   13.8020   48.3090 C.ar  1660  AP61660    -0.0003
     17  C15       13.3730   15.8420   46.8820 C.ar  1660  AP61660    -0.0003
     18  C14       13.8560   15.0750   47.9910 C.ar  1660  AP61660    -0.0000
@<TRIPOS>BOND
     1     3     2    1
     2     4     2    2
     3     4     5    2
     4     2     1    2
     5     6     5    1
     6     5     7    1
     7     1     8    2
     8     7     8    1
     9     7     9    2
    10     8    12    2
    11     9    10    1
    12    12    11    1
    13    10    11    1
    14    10    13    1
    15    15    13   ar
    16    15    17   ar
    17    13    14   ar
    18    17    18   ar
    19    14    16   ar
    20    18    16   ar
