@<TRIPOS>MOLECULE
1dmp_DMQ_B_1.pdb
 40 44 0 0 0
SMALL
GASTEIGER

@<TRIPOS>ATOM
      1  C1        -8.8900   15.3220   27.7390 C.2   450  DMQ450      0.3077
      2  O1        -8.4080   14.2130   27.6200 O.2   450  DMQ450     -0.2523
      3  N2        -8.6090   16.1690   26.7400 N.am  450  DMQ450     -0.2586
      4  C2        -8.0330   15.5860   25.4850 C.3   450  DMQ450      0.1218
      5  C3        -8.6780   17.6490   26.9140 C.3   450  DMQ450      0.1144
      6  C4       -10.0180   18.2720   27.1610 C.3   450  DMQ450      0.2021
      7  O4        -9.7860   19.6250   26.9240 O.3   450  DMQ450     -0.2186
      8  C5       -10.5910   18.0230   28.5350 C.3   450  DMQ450      0.2021
      9  O5       -11.8230   18.6470   28.5540 O.3   450  DMQ450     -0.2186
     10  C6       -10.8300   16.5590   28.8550 C.3   450  DMQ450      0.1144
     11  C7        -9.4130   14.8750   30.0960 C.3   450  DMQ450      0.1218
     12  N7        -9.6360   15.6470   28.8450 N.am  450  DMQ450     -0.2586
     13  C20       -8.7170   16.0040   24.2210 C.ar  450  DMQ450     -0.0009
     14  C21      -10.1160   15.9180   24.1240 C.ar  450  DMQ450     -0.0025
     15  C22      -10.8140   16.3270   22.9750 C.ar  450  DMQ450      0.0011
     16  C23      -10.0790   16.8490   21.9070 C.ar  450  DMQ450      0.0180
     17  C28       -8.6690   16.9590   21.9960 C.ar  450  DMQ450      0.0888
     18  N29       -7.9810   17.6690   20.9750 N.pl3 450  DMQ450     -0.1281
     19  C29       -7.9820   16.5160   23.1460 C.ar  450  DMQ450      0.0154
     20  C31       -7.5250   18.1310   27.8140 C.3   450  DMQ450      0.0489
     21  C32       -6.2440   18.1380   26.9920 C.ar  450  DMQ450     -0.0204
     22  C33       -5.2230   17.1850   27.2320 C.ar  450  DMQ450     -0.0042
     23  C34       -4.0590   17.1780   26.4540 C.ar  450  DMQ450     -0.0003
     24  C35       -3.9210   18.1180   25.4200 C.ar  450  DMQ450     -0.0000
     25  C36       -4.9270   19.0750   25.1520 C.ar  450  DMQ450     -0.0003
     26  C37       -6.0910   19.0880   25.9470 C.ar  450  DMQ450     -0.0042
     27  C61      -12.0200   15.8570   28.1040 C.3   450  DMQ450      0.0489
     28  C62      -12.5410   14.5960   28.7910 C.ar  450  DMQ450     -0.0204
     29  C63      -13.3710   14.7000   29.9260 C.ar  450  DMQ450     -0.0042
     30  C64      -13.7780   13.5480   30.6210 C.ar  450  DMQ450     -0.0003
     31  C65      -13.3570   12.2800   30.1720 C.ar  450  DMQ450     -0.0000
     32  C66      -12.5360   12.1470   29.0280 C.ar  450  DMQ450     -0.0003
     33  C67      -12.1320   13.3120   28.3390 C.ar  450  DMQ450     -0.0042
     34  C70       -9.5100   15.5830   31.4300 C.ar  450  DMQ450     -0.0009
     35  C71      -10.4550   15.1340   32.3800 C.ar  450  DMQ450      0.0154
     36  C72      -10.4860   15.6970   33.6690 C.ar  450  DMQ450      0.0888
     37  N79      -11.4110   15.2210   34.6490 N.pl3 450  DMQ450     -0.1281
     38  C77       -9.5810   16.7250   34.0020 C.ar  450  DMQ450      0.0180
     39  C78       -8.6410   17.2010   33.0480 C.ar  450  DMQ450      0.0011
     40  C79       -8.6070   16.6220   31.7630 C.ar  450  DMQ450     -0.0025
@<TRIPOS>BOND
     1    18    17    1
     2    16    17   ar
     3    16    15   ar
     4    17    19   ar
     5    15    14   ar
     6    19    13   ar
     7    14    13   ar
     8    13     4    1
     9    25    24   ar
    10    25    26   ar
    11    24    23   ar
    12     4     3    1
    13    26    21   ar
    14    23    22   ar
    15     3     5    1
    16     3     1   am
    17     5     6    1
    18     5    20    1
    19     7     6    1
    20    21    22   ar
    21    21    20    1
    22     6     8    1
    23     2     1    2
    24     1    12   am
    25    27    28    1
    26    27    10    1
    27    33    28   ar
    28    33    32   ar
    29     8     9    1
    30     8    10    1
    31    28    29   ar
    32    12    10    1
    33    12    11    1
    34    32    31   ar
    35    29    30   ar
    36    11    34    1
    37    31    30   ar
    38    34    40   ar
    39    34    35   ar
    40    40    39   ar
    41    35    36   ar
    42    39    38   ar
    43    36    38   ar
    44    36    37    1
