@<TRIPOS>MOLECULE
1dmr_PGD_A_1.pdb
 47 52 0 0 0
SMALL
GASTEIGER

@<TRIPOS>ATOM
      1  PB         3.6440   48.6270   30.6700 P.3   782  PGD782      0.2189
      2  O1B        4.2610   50.1070   31.2930 O.3   782  PGD782     -0.4371
      3  O2B        2.6130   48.7660   29.3540 O.2   782  PGD782     -0.5170
      4  O3B        2.8080   48.0530   31.9450 O.3   782  PGD782     -0.2703
      5  O3A        1.3050   46.8650   33.6710 O.3   782  PGD782     -0.3109
      6  PA         2.2990   46.5300   32.3040 P.3   782  PGD782      0.2189
      7  O1A        1.5420   45.9020   30.9560 O.2   782  PGD782     -0.5170
      8  O2A        3.6980   45.7120   32.8490 O.3   782  PGD782     -0.4371
      9  O5'        4.9660   47.5240   30.4620 O.3   782  PGD782     -0.3112
     10  C5'        5.0860   47.1240   29.1300 C.3   782  PGD782      0.1813
     11  C4'        6.6000   47.0160   28.8610 C.3   782  PGD782      0.1799
     12  O4'        6.7680   46.2830   27.6570 O.3   782  PGD782     -0.3326
     13  C3'        7.2300   48.3820   28.6890 C.3   782  PGD782      0.2158
     14  O3'        8.3520   48.5660   29.5300 O.3   782  PGD782     -0.2175
     15  C2'        7.5850   48.3960   27.2180 C.3   782  PGD782      0.2310
     16  O2'        8.7230   49.1390   26.9270 O.3   782  PGD782     -0.2158
     17  C1'        7.8460   46.9210   26.9680 C.3   782  PGD782      0.2293
     18  N9         7.7190   46.5160   25.5760 N.pl3 782  PGD782     -0.2354
     19  C8         6.8860   47.0310   24.6190 C.3   782  PGD782      0.2246
     20  N7         6.9970   46.3770   23.4220 N.2   782  PGD782     -0.2322
     21  C5         7.9410   45.4410   23.6660 C.2   782  PGD782      0.2182
     22  C6         8.4780   44.4960   22.8030 C.1   782  PGD782      0.2372
     23  O6         8.1300   44.3740   21.6430 O.2   782  PGD782     -0.2069
     24  N1         9.4440   43.6650   23.2980 N.2   782  PGD782     -0.2485
     25  C2         9.8390   43.7670   24.6190 C.1   782  PGD782      0.2531
     26  N2        10.8240   42.8680   25.0790 N.pl3 782  PGD782     -0.0226
     27  N3         9.3240   44.7050   25.4750 N.2   782  PGD782     -0.3074
     28  C4         8.3680   45.5270   24.9470 C.2   782  PGD782      0.2300
     29  C10        0.0280   47.2650   33.2860 C.3   782  PGD782      0.1837
     30  C11       -0.8350   46.8530   34.5010 C.3   782  PGD782      0.1762
     31  O11       -0.6260   47.7810   35.5420 O.3   782  PGD782     -0.3271
     32  C12       -2.2980   46.8280   34.0980 C.2   782  PGD782      0.0473
     33  S12       -2.8100   46.2130   32.4910 S.3   782  PGD782     -0.0526
     34  C13       -3.2620   47.2330   34.9550 C.2   782  PGD782      0.0449
     35  S13       -4.9740   47.3120   34.4450 S.3   782  PGD782     -0.0530
     36  C14       -2.9240   47.6370   36.3530 C.3   782  PGD782      0.1850
     37  N15       -3.3060   49.0550   36.5560 N.2   782  PGD782     -0.2411
     38  C16       -2.9990   49.5070   37.8960 C.2   782  PGD782      0.2467
     39  C17       -3.7880   50.4010   38.6200 C.1   782  PGD782      0.2441
     40  O17       -4.8260   50.8830   38.1910 O.2   782  PGD782     -0.2063
     41  N18       -3.3990   50.7600   39.8740 N.2   782  PGD782     -0.2474
     42  C19       -2.2680   50.2480   40.4360 C.1   782  PGD782      0.2608
     43  N19       -1.8780   50.6370   41.7400 N.pl3 782  PGD782     -0.0220
     44  N20       -1.4920   49.3670   39.7570 N.2   782  PGD782     -0.2682
     45  C21       -1.8440   48.9940   38.4930 C.1   782  PGD782      0.1293
     46  N22       -0.9980   48.0510   37.8320 N.2   782  PGD782     -0.1763
     47  C23       -1.4300   47.3550   36.6250 C.3   782  PGD782      0.2573
@<TRIPOS>BOND
     1    23    22    2
     2    22    24    2
     3    22    21    1
     4    24    25    2
     5    20    21    2
     6    20    19    1
     7    21    28    1
     8    25    26    1
     9    25    27    2
    10    19    18    1
    11    28    27    2
    12    28    18    1
    13    18    17    1
    14    16    15    1
    15    17    15    1
    16    17    12    1
    17    15    13    1
    18    12    11    1
    19    13    11    1
    20    13    14    1
    21    11    10    1
    22    10     9    1
    23     3     1    2
    24     9     1    1
    25     1     2    1
    26     1     4    1
    27     7     6    2
    28     4     6    1
    29     6     8    1
    30     6     5    1
    31    33    32    1
    32    29     5    1
    33    29    30    1
    34    32    30    1
    35    32    34    2
    36    35    34    1
    37    30    31    1
    38    34    36    1
    39    31    47    1
    40    36    37    1
    41    36    47    1
    42    37    38    2
    43    47    46    1
    44    46    45    2
    45    38    45    1
    46    38    39    1
    47    40    39    2
    48    45    44    2
    49    39    41    2
    50    44    42    2
    51    41    42    2
    52    42    43    1
