@<TRIPOS>MOLECULE
1dms_PGD_A_1.pdb
 47 52 0 0 0
SMALL
GASTEIGER

@<TRIPOS>ATOM
      1  PB         8.3780   43.8440   83.9380 P.3   782  PGD782      0.2189
      2  O1B        9.6580   44.3560   83.4460 O.2   782  PGD782     -0.5170
      3  O2B        8.3240   42.9400   85.1030 O.3   782  PGD782     -0.4371
      4  O3B        7.6760   43.1090   82.7320 O.3   782  PGD782     -0.2703
      5  O3A        6.6130   41.6970   80.9940 O.3   782  PGD782     -0.3109
      6  PA         6.2010   42.5850   82.3220 P.3   782  PGD782      0.2189
      7  O1A        5.5090   43.7610   81.8040 O.2   782  PGD782     -0.5170
      8  O2A        5.6600   41.7290   83.3950 O.3   782  PGD782     -0.4371
      9  O5'        7.3640   45.1120   84.2260 O.3   782  PGD782     -0.3112
     10  C5'        6.7470   45.2290   85.4680 C.3   782  PGD782      0.1813
     11  C4'        6.6550   46.7340   85.6750 C.3   782  PGD782      0.1799
     12  O4'        5.9840   46.9430   86.9210 O.3   782  PGD782     -0.3326
     13  C3'        8.0440   47.4120   85.8230 C.3   782  PGD782      0.2158
     14  O3'        8.1910   48.5740   85.0100 O.3   782  PGD782     -0.2175
     15  C2'        8.1020   47.7890   87.3240 C.3   782  PGD782      0.2310
     16  O2'        8.9120   48.8550   87.7330 O.3   782  PGD782     -0.2158
     17  C1'        6.5950   48.0360   87.6160 C.3   782  PGD782      0.2293
     18  N9         6.2340   47.9210   89.0200 N.pl3 782  PGD782     -0.2354
     19  C8         6.7900   47.0980   90.0310 C.3   782  PGD782      0.2246
     20  N7         5.9950   47.0220   91.1030 N.2   782  PGD782     -0.2322
     21  C5         5.0960   48.0850   90.9770 C.2   782  PGD782      0.2182
     22  C6         4.1170   48.7260   91.7720 C.1   782  PGD782      0.2372
     23  O6         3.9240   48.2300   93.0050 O.2   782  PGD782     -0.2069
     24  N1         3.3550   49.7610   91.3610 N.2   782  PGD782     -0.2485
     25  C2         3.4510   50.1060   90.0160 C.1   782  PGD782      0.2531
     26  N2         2.5380   51.0480   89.5010 N.pl3 782  PGD782     -0.0226
     27  N3         4.3770   49.5980   89.1320 N.2   782  PGD782     -0.3074
     28  C4         5.2020   48.6420   89.6280 C.2   782  PGD782      0.2300
     29  C10        7.0130   40.4020   81.1810 C.3   782  PGD782      0.1837
     30  C11        6.4750   39.4910   80.0570 C.3   782  PGD782      0.1762
     31  O11        7.3280   39.6900   78.9130 O.3   782  PGD782     -0.3271
     32  C12        6.4160   38.0610   80.5210 C.2   782  PGD782      0.0473
     33  S12        5.7060   37.7240   82.0130 S.2   782  PGD782     -0.0526
     34  C13        6.8460   37.0710   79.6910 C.2   782  PGD782      0.0449
     35  S13        6.7850   35.4190   80.0710 S.2   782  PGD782     -0.0530
     36  C14        7.2450   37.3250   78.2700 C.3   782  PGD782      0.1850
     37  N15        8.6300   36.9430   78.0530 N.2   782  PGD782     -0.2411
     38  C16        9.0620   37.2240   76.7200 C.2   782  PGD782      0.2467
     39  C17        9.9840   36.4250   75.9780 C.1   782  PGD782      0.2441
     40  O17       10.5060   35.2450   76.4230 O.2   782  PGD782     -0.2063
     41  N18       10.4430   36.7630   74.7350 N.2   782  PGD782     -0.2474
     42  C19        9.9290   37.9140   74.1590 C.1   782  PGD782      0.2608
     43  N19       10.3750   38.2440   72.8540 N.pl3 782  PGD782     -0.0220
     44  N20        9.0440   38.7730   74.7730 N.2   782  PGD782     -0.2682
     45  C21        8.5880   38.3990   76.0170 C.1   782  PGD782      0.1293
     46  N22        7.6090   39.2020   76.6340 N.2   782  PGD782     -0.1763
     47  C23        6.9290   38.8020   77.8480 C.3   782  PGD782      0.2573
@<TRIPOS>BOND
     1    43    42    1
     2    42    41    2
     3    42    44    2
     4    41    39    2
     5    44    45    2
     6    39    40    2
     7    39    38    1
     8    45    46    2
     9    45    38    1
    10    46    47    1
    11    38    37    2
    12    47    36    1
    13    47    31    1
    14    37    36    1
    15    36    34    1
    16    31    30    1
    17    34    35    2
    18    34    32    1
    19    30    32    1
    20    30    29    1
    21    32    33    2
    22     5    29    1
    23     5     6    1
    24     7     6    2
    25     6     4    1
    26     6     8    1
    27     4     1    1
    28     2     1    2
    29     1     9    1
    30     1     3    1
    31     9    10    1
    32    14    13    1
    33    10    11    1
    34    11    13    1
    35    11    12    1
    36    13    15    1
    37    12    17    1
    38    15    17    1
    39    15    16    1
    40    17    18    1
    41    18    28    1
    42    18    19    1
    43    27    28    2
    44    27    25    2
    45    26    25    1
    46    28    21    1
    47    25    24    2
    48    19    20    1
    49    21    20    2
    50    21    22    1
    51    24    22    2
    52    22    23    2
