@<TRIPOS>MOLECULE
1dmt_RDF_A_1.pdb
 37 39 0 0 0
SMALL
GASTEIGER

@<TRIPOS>ATOM
      1  C1        27.2160   41.1930   31.6090 C.3   750  RDF750      0.2770
      2  O1        27.6230   42.2720   30.8190 O.3   750  RDF750     -0.2518
      3  C2        25.6860   41.0020   31.4970 C.3   750  RDF750      0.2410
      4  O2        25.2390   40.0860   32.4720 O.3   750  RDF750     -0.2149
      5  C3        25.2940   40.5440   30.0730 C.3   750  RDF750      0.2197
      6  O3        23.8550   40.4130   29.9470 O.3   750  RDF750     -0.2174
      7  C4        26.0640   39.2580   29.7010 C.3   750  RDF750      0.2118
      8  O4        25.8560   39.0050   28.2870 O.3   750  RDF750     -0.2177
      9  C5        27.5530   39.5560   29.9040 C.3   750  RDF750      0.1508
     10  O5        27.8650   39.9810   31.2330 O.3   750  RDF750     -0.3281
     11  C6        28.4170   38.3850   29.5120 C.3   750  RDF750      0.0350
     12  P         28.9340   43.1570   30.9510 P.3   750  RDF750      0.4552
     13  O1P       30.1380   42.2750   31.0820 O.3   750  RDF750     -0.1258
     14  O2P       28.9360   44.1080   29.8520 O.2   750  RDF750     -0.2359
     15  N         28.8020   44.0060   32.4090 N.3   750  RDF750     -0.1121
     16  CA        29.9980   44.4090   33.2370 C.3   750  RDF750      0.1616
     17  C         30.3850   43.2660   34.1440 C.2   750  RDF750      0.2582
     18  O         31.5050   42.8940   34.4160 O.2   750  RDF750     -0.2718
     19  CB        29.5690   45.5800   34.1480 C.3   750  RDF750      0.0274
     20  CG        30.6210   46.0240   35.1710 C.3   750  RDF750      0.0019
     21  CD1       29.9540   47.1450   35.9840 C.3   750  RDF750      0.0001
     22  CD2       31.9080   46.5460   34.4720 C.3   750  RDF750      0.0001
     23  N1        29.2680   42.5490   34.7520 N.am  750  RDF750     -0.1941
     24  CA1       29.6610   41.4190   35.6340 C.3   750  RDF750      0.2018
     25  C7        28.5050   40.3730   35.6370 C.2   750  RDF750      0.3845
     26  O6        27.4540   40.5900   34.9740 O.co2 750  RDF750     -0.2437
     27  CB1       29.9190   41.9820   37.0740 C.3   750  RDF750      0.0575
     28  CG1       28.5810   42.2780   37.7480 C.2   750  RDF750     -0.0136
     29 CD11       27.6540   43.1960   37.3360 C.2   750  RDF750      0.0907
     30 CD21       28.0300   41.6250   38.9100 C.3   750  RDF750      0.0819
     31  NE1       26.5520   43.1560   38.1730 N.2   750  RDF750     -0.2482
     32  CE2       26.7560   42.1880   39.1630 C.2   750  RDF750      0.0665
     33  CE3       28.5160   40.5890   39.7790 C.2   750  RDF750     -0.0164
     34  CZ2       25.9040   41.7870   40.2420 C.2   750  RDF750      0.0153
     35  CZ3       27.7090   40.1730   40.8470 C.2   750  RDF750     -0.0038
     36  CH2       26.3990   40.7710   41.0780 C.2   750  RDF750      0.0009
     37  OXT       28.6820   39.3600   36.3090 O.co2 750  RDF750     -0.2437
@<TRIPOS>BOND
     1     8     7    1
     2    11     9    1
     3     7     9    1
     4     7     5    1
     5    14    12    2
     6     9    10    1
     7     6     5    1
     8     5     3    1
     9     2    12    1
    10     2     1    1
    11    12    13    1
    12    12    15    1
    13    10     1    1
    14     3     1    1
    15     3     4    1
    16    15    16    1
    17    16    17    1
    18    16    19    1
    19    17    18    2
    20    17    23   am
    21    19    20    1
    22    22    20    1
    23    23    24    1
    24    26    25   ar
    25    20    21    1
    26    24    25    1
    27    24    27    1
    28    25    37   ar
    29    27    28    1
    30    29    28    2
    31    29    31    1
    32    28    30    1
    33    31    32    2
    34    30    32    1
    35    30    33    1
    36    32    34    1
    37    33    35    2
    38    34    36    2
    39    35    36    1
