@<TRIPOS>MOLECULE
1dmw_HBI_A_1.pdb
 17 18 0 0 0
SMALL
GASTEIGER

@<TRIPOS>ATOM
      1  N1        -7.5470   22.6600    7.3220 N.2   700  HBI700     -0.2672
      2  N2        -6.7230   20.5660    7.5890 N.pl3 700  HBI700     -0.0220
      3  C2        -6.4610   21.8960    7.4080 C.1   700  HBI700      0.2609
      4  N3        -5.1800   22.3220    7.3430 N.2   700  HBI700     -0.2466
      5  C4        -4.9250   23.6570    7.1750 C.1   700  HBI700      0.2569
      6  O4        -3.5970   23.9940    7.1230 O.2   700  HBI700     -0.2052
      7  C4A       -6.0590   24.6570    7.0720 C.2   700  HBI700      0.2989
      8  C8A       -7.4060   23.9970    7.1550 C.1   700  HBI700      0.1401
      9  N8        -8.6480   24.7880    7.0690 N.2   700  HBI700     -0.1992
     10  C7        -8.5390   26.3060    6.8920 C.3   700  HBI700      0.1940
     11  C6        -7.1250   26.9730    6.8080 C.2   700  HBI700      0.1466
     12  N5        -5.9870   26.1650    6.8960 N.2   700  HBI700     -0.3830
     13  C9        -7.0730   28.5600    6.6400 C.3   700  HBI700      0.2313
     14  O9        -6.5750   29.1200    7.8470 O.3   700  HBI700     -0.2130
     15  C10       -6.2730   29.0630    5.3040 C.3   700  HBI700      0.1888
     16  O10       -6.2050   30.5670    5.1990 O.3   700  HBI700     -0.2200
     17  C11       -4.7930   28.5030    5.2360 C.3   700  HBI700      0.0387
@<TRIPOS>BOND
     1    16    15    1
     2    17    15    1
     3    15    13    1
     4    13    11    1
     5    13    14    1
     6    11    10    1
     7    11    12    2
     8    10     9    1
     9    12     7    2
    10     9     8    2
    11     7     8    1
    12     7     5    1
    13     6     5    2
    14     8     1    2
    15     5     4    2
    16     1     3    2
    17     4     3    2
    18     3     2    1
