@<TRIPOS>MOLECULE
1dmy_AZM_A_1.pdb
 13 13 0 0 0
SMALL
GASTEIGER

@<TRIPOS>ATOM
      1  C1        46.4080   47.6670   39.4520 C.ar  400  AZM400      0.2590
      2  C2        44.2070   48.5160   40.2260 C.ar  400  AZM400      0.2093
      3  C3        41.9010   49.3330   39.8690 C.2   400  AZM400      0.2478
      4  C4        40.7890   49.8420   40.7870 C.3   400  AZM400      0.0969
      5  N1        48.8860   47.4670   39.9380 N.3   400  AZM400      0.0413
      6  N2        44.6270   47.3630   40.8470 N.ar  400  AZM400     -0.1222
      7  N3        45.8770   46.8890   40.4350 N.ar  400  AZM400     -0.1189
      8  N4        43.0930   49.2830   40.4410 N.am  400  AZM400     -0.1528
      9  O1        48.2030   48.5330   37.7610 O.2   400  AZM400     -0.1483
     10  O2        47.5900   46.2340   38.0020 O.2   400  AZM400     -0.1483
     11  O3        41.7060   49.0080   38.6980 O.2   400  AZM400     -0.2729
     12  S1        47.9320   47.4570   38.7160 S.O2  400  AZM400      0.1178
     13  S2        45.2510   48.7380   39.0000 S.2   400  AZM400     -0.0087
@<TRIPOS>BOND
     1     9    12    2
     2    10    12    2
     3    11     3    2
     4    12     1    1
     5    12     5    1
     6    13     1   ar
     7    13     2   ar
     8     1     7   ar
     9     3     8   am
    10     3     4    1
    11     2     8    1
    12     2     6   ar
    13     7     6   ar
