@<TRIPOS>MOLECULE
1dn2_BMA_A_1.pdb
 11 11 0 0 0
SMALL
GASTEIGER

@<TRIPOS>ATOM
      1  C1        10.3600    7.0940   -7.5060 C.3     3  BMA3        0.1777
      2  C2        11.8610    7.3600   -7.3550 C.3     3  BMA3        0.2141
      3  C3        12.5080    6.2990   -6.4560 C.3     3  BMA3        0.2173
      4  C4        11.7330    6.1810   -5.1450 C.3     3  BMA3        0.2142
      5  C5        10.2140    6.0810   -5.3710 C.3     3  BMA3        0.1810
      6  C6         9.4090    6.1930   -4.0900 C.3     3  BMA3        0.2141
      7  O2        12.0520    8.6540   -6.7950 O.3     3  BMA3       -0.2176
      8  O3        13.8860    6.6600   -6.1670 O.3     3  BMA3       -0.2175
      9  O4        12.1850    5.0210   -4.4590 O.3     3  BMA3       -0.2176
     10  O5         9.7550    7.1390   -6.2250 O.3     3  BMA3       -0.3481
     11  O6         8.0220    5.9060   -4.3670 O.3     3  BMA3       -0.2176
@<TRIPOS>BOND
     1     1     2    1
     2     1    10    1
     3     2     7    1
     4     2     3    1
     5     3     8    1
     6     3     4    1
     7    10     5    1
     8     5     4    1
     9     5     6    1
    10     4     9    1
    11    11     6    1
