@<TRIPOS>MOLECULE
1dn2_MAN_A_1.pdb
 11 11 0 0 0
SMALL
GASTEIGER

@<TRIPOS>ATOM
      1  C1         7.2240    5.9370   -3.2160 C.3     4  MAN4        0.1777
      2  C2         5.8230    5.3790   -3.5320 C.3     4  MAN4        0.2141
      3  C3         5.0540    6.3390   -4.4300 C.3     4  MAN4        0.2173
      4  C4         5.0140    7.7180   -3.7730 C.3     4  MAN4        0.2142
      5  C5         6.4460    8.1990   -3.5090 C.3     4  MAN4        0.1810
      6  C6         6.5140    9.5510   -2.8140 C.3     4  MAN4        0.2141
      7  O2         5.0870    5.1770   -2.3050 O.3     4  MAN4       -0.2176
      8  O3         3.7320    5.8570   -4.6200 O.3     4  MAN4       -0.2175
      9  O4         4.3350    8.6410   -4.6140 O.3     4  MAN4       -0.2176
     10  O5         7.1350    7.2470   -2.6670 O.3     4  MAN4       -0.3481
     11  O6         6.3190    9.4200   -1.4120 O.3     4  MAN4       -0.2176
@<TRIPOS>BOND
     1     8     3    1
     2     9     4    1
     3     3     4    1
     4     3     2    1
     5     4     5    1
     6     2     1    1
     7     2     7    1
     8     5     6    1
     9     5    10    1
    10     1    10    1
    11     6    11    1
