@<TRIPOS>MOLECULE
1dn2_GAL_A_1.pdb
 11 11 0 0 0
SMALL
GASTEIGER

@<TRIPOS>ATOM
      1  C1         3.3740   -0.6280    0.2210 C.3     7  GAL7        0.1777
      2  C2         3.8500   -1.8790    1.0070 C.3     7  GAL7        0.2141
      3  C3         2.6800   -2.7770    1.4500 C.3     7  GAL7        0.2173
      4  C4         1.5490   -1.9490    2.0780 C.3     7  GAL7        0.2142
      5  C5         1.1680   -0.7530    1.1730 C.3     7  GAL7        0.1810
      6  C6         0.1080    0.1830    1.7710 C.3     7  GAL7        0.2141
      7  O2         4.7340   -2.6500    0.1940 O.3     7  GAL7       -0.2176
      8  O3         3.1520   -3.7460    2.3900 O.3     7  GAL7       -0.2175
      9  O4         1.9540   -1.4860    3.3620 O.3     7  GAL7       -0.2176
     10  O5         2.3300    0.0620    0.9220 O.3     7  GAL7       -0.3481
     11  O6        -1.0340   -0.5220    2.2460 O.3     7  GAL7       -0.2176
@<TRIPOS>BOND
     1     7     2    1
     2     1    10    1
     3     1     2    1
     4    10     5    1
     5     2     3    1
     6     5     6    1
     7     5     4    1
     8     3     4    1
     9     3     8    1
    10     6    11    1
    11     4     9    1
