@<TRIPOS>MOLECULE
1dna_CB3_A_1.pdb
 35 37 0 0 0
SMALL
GASTEIGER

@<TRIPOS>ATOM
      1  N1        13.2000   18.8590   30.6640 N.2   601  CB3601     -0.3245
      2  C2        12.9040   19.6650   31.7060 C.1   601  CB3601      0.2518
      3  NA2       11.9320   20.5750   31.5550 N.pl3 601  CB3601     -0.0226
      4  N3        13.6000   19.5490   32.8540 N.2   601  CB3601     -0.2501
      5  C4        14.5680   18.6290   32.9830 C.1   601  CB3601      0.2183
      6  O4        15.3230   18.6410   34.1320 O.2   601  CB3601     -0.2085
      7  C4A       14.8150   17.7100   31.9550 C.ar  601  CB3601      0.1259
      8  C5        15.6950   16.6290   32.1020 C.ar  601  CB3601      0.0166
      9  C6        15.9270   15.7400   31.0320 C.ar  601  CB3601      0.0158
     10  C7        15.3030   15.9860   29.8020 C.ar  601  CB3601      0.0040
     11  C8        14.4060   17.0530   29.6580 C.ar  601  CB3601      0.0339
     12  C8A       14.1370   17.9010   30.7400 C.ar  601  CB3601      0.1570
     13  C9        16.5700   14.4060   31.2070 C.2   601  CB3601      0.0661
     14  N10       16.9270   13.9800   32.5960 N.pl3 601  CB3601     -0.2741
     15  C11       13.9530   13.2590   35.5150 C.ar  601  CB3601      0.0551
     16  C12       13.6690   13.2240   34.1430 C.ar  601  CB3601      0.0058
     17  C13       14.6670   13.4660   33.1980 C.ar  601  CB3601      0.0150
     18  C14       15.9900   13.7620   33.5740 C.ar  601  CB3601      0.0524
     19  C15       16.2680   13.8180   34.9680 C.ar  601  CB3601      0.0150
     20  C16       15.2640   13.5720   35.9380 C.ar  601  CB3601      0.0058
     21  C         12.8710   12.8660   36.4020 C.2   601  CB3601      0.2652
     22  O         11.7950   12.4650   35.9400 O.2   601  CB3601     -0.2684
     23  N         13.0360   12.9160   37.7240 N.am  601  CB3601     -0.1918
     24  CA        12.1430   12.2300   38.6910 C.3   601  CB3601      0.1986
     25  CB        12.5120   10.7480   38.8100 C.3   601  CB3601      0.0451
     26  CG        11.9520    9.8830   37.6890 C.3   601  CB3601      0.1164
     27  CD        12.6480    8.5360   37.5490 C.2   601  CB3601      0.3649
     28  OE1       12.7040    8.0240   36.4090 O.co2 601  CB3601     -0.2457
     29  OE2       13.1260    7.9810   38.5620 O.co2 601  CB3601     -0.2457
     30  CT        12.2770   12.9000   40.0500 C.2   601  CB3601      0.3842
     31  O1        13.3980   13.3460   40.3630 O.co2 601  CB3601     -0.2437
     32  O2        11.2730   12.9520   40.7910 O.co2 601  CB3601     -0.2437
     33  CP1       18.3370   13.7310   32.9210 C.3   601  CB3601      0.1735
     34  CP2       18.8950   14.8890   33.5960 C.1   601  CB3601     -0.0554
     35  CP3       19.2820   15.8740   34.1530 C.1   601  CB3601     -0.0124
@<TRIPOS>BOND
     1    11    10   ar
     2    11    12   ar
     3    10     9   ar
     4     1    12    2
     5     1     2    2
     6    12     7   ar
     7     9    13    2
     8     9     8   ar
     9    13    14    1
    10     3     2    1
    11     2     4    2
    12     7     8   ar
    13     7     5    1
    14    14    33    1
    15    14    18    1
    16     4     5    2
    17    33    34    1
    18     5     6    2
    19    17    18   ar
    20    17    16   ar
    21    18    19   ar
    22    34    35    3
    23    16    15   ar
    24    19    20   ar
    25    15    20   ar
    26    15    21    1
    27    22    21    2
    28    21    23   am
    29    28    27   ar
    30    27    26    1
    31    27    29   ar
    32    26    25    1
    33    23    24    1
    34    24    25    1
    35    24    30    1
    36    30    31   ar
    37    30    32   ar
