@<TRIPOS>MOLECULE
1dna_UMP_A_1.pdb
 20 21 0 0 0
SMALL
GASTEIGER

@<TRIPOS>ATOM
      1  N1        17.7150   20.2840   31.3660 N.am  603  UMP603     -0.2018
      2  C2        18.4000   20.1670   32.5630 C.1   603  UMP603      0.2802
      3  N3        19.2280   19.0700   32.6530 N.2   603  UMP603     -0.2497
      4  C4        19.4250   18.1110   31.6640 C.1   603  UMP603      0.1941
      5  C5        18.7100   18.1640   30.3080 C.3   603  UMP603      0.1579
      6  C6        17.9470   19.4920   30.1120 C.3   603  UMP603      0.1249
      7  O2        18.2420   20.9890   33.4710 O.2   603  UMP603     -0.1922
      8  O4        20.4610   17.4800   31.8000 O.2   603  UMP603     -0.2133
      9  C1'       16.5290   21.1500   31.2370 C.3   603  UMP603      0.2048
     10  C2'       16.8030   22.5520   30.7130 C.3   603  UMP603      0.0871
     11  C3'       15.4080   23.0290   30.3600 C.3   603  UMP603      0.1857
     12  C4'       14.7660   21.8840   29.5730 C.3   603  UMP603      0.1774
     13  O3'       14.6910   23.2160   31.6200 O.3   603  UMP603     -0.2203
     14  O4'       15.4470   20.7380   30.2790 O.3   603  UMP603     -0.3342
     15  C5'       15.2250   21.8930   28.1140 C.3   603  UMP603      0.1858
     16  O5'       14.5010   22.9450   27.4280 O.3   603  UMP603     -0.2675
     17  P         15.1540   24.0310   26.5040 P.3   603  UMP603      0.5327
     18  OP1       15.7780   23.3650   25.3530 O.2   603  UMP603     -0.2224
     19  OP2       14.0920   24.9150   25.9790 O.3   603  UMP603     -0.1145
     20  OP3       16.1410   24.7830   27.3100 O.3   603  UMP603     -0.1145
@<TRIPOS>BOND
     1    18    17    2
     2    19    17    1
     3    17    20    1
     4    17    16    1
     5    16    15    1
     6    15    12    1
     7    12    14    1
     8    12    11    1
     9     6     5    1
    10     6     1    1
    11    14     9    1
    12     5     4    1
    13    11    10    1
    14    11    13    1
    15    10     9    1
    16     9     1    1
    17     1     2   am
    18     4     8    2
    19     4     3    2
    20     2     3    2
    21     2     7    2
