@<TRIPOS>MOLECULE
1dnc_GSH_A_1.pdb
 20 19 0 0 0
SMALL
GASTEIGER

@<TRIPOS>ATOM
      1  N1        64.3090  -22.3650   36.3500 N.3   1029  GSH1029    -0.1208
      2  CA1       64.9080  -23.1620   37.4450 C.3   1029  GSH1029     0.1948
      3  C1        64.3580  -24.5940   37.3540 C.2   1029  GSH1029     0.3819
      4  O11       63.5240  -24.8340   36.4350 O.co2 1029  GSH1029    -0.2441
      5  O12       64.7370  -25.4630   38.1920 O.co2 1029  GSH1029    -0.2441
      6  CB1       64.5700  -22.5820   38.8200 C.3   1029  GSH1029     0.0402
      7  CG1       64.5270  -21.0500   38.9100 C.3   1029  GSH1029     0.0889
      8  CD1       64.2120  -20.6160   40.3210 C.2   1029  GSH1029     0.2418
      9  OE1       64.7730  -21.2030   41.2510 O.2   1029  GSH1029    -0.2733
     10  N2        63.0820  -19.9310   40.4910 N.am  1029  GSH1029    -0.1968
     11  CA2       62.4210  -19.8340   41.8010 C.3   1029  GSH1029     0.1843
     12  C2        61.2540  -20.7870   42.0010 C.2   1029  GSH1029     0.2627
     13  O2        60.4000  -20.5640   42.8580 O.2   1029  GSH1029    -0.2714
     14  CB2       61.9230  -18.4110   42.0610 C.3   1029  GSH1029     0.0997
     15  SG2       63.2000  -17.2270   42.4760 S.3   1029  GSH1029    -0.0797
     16  N3        61.1300  -21.7490   41.1040 N.am  1029  GSH1029    -0.1917
     17  CA3       59.9630  -22.5910   41.1050 C.3   1029  GSH1029     0.2285
     18  C3        59.7420  -23.1420   39.7210 C.2   1029  GSH1029     0.3865
     19  O31       60.4500  -22.6760   38.7810 O.co2 1029  GSH1029    -0.2437
     20  O32       58.8660  -24.0300   39.5830 O.co2 1029  GSH1029    -0.2437
@<TRIPOS>BOND
     1     1     2    1
     2     4     3   ar
     3     3     2    1
     4     3     5   ar
     5     2     6    1
     6    19    18   ar
     7     6     7    1
     8     7     8    1
     9    20    18   ar
    10    18    17    1
    11     8    10   am
    12     8     9    2
    13    10    11    1
    14    16    17    1
    15    16    12   am
    16    11    12    1
    17    11    14    1
    18    12    13    2
    19    14    15    1
