@<TRIPOS>MOLECULE
1dnl_FMN_A_1.pdb
 31 33 0 0 0
SMALL
GASTEIGER

@<TRIPOS>ATOM
      1  N1        53.6130   20.9260    7.4080 N.2   250  FMN250     -0.2890
      2  C2        54.2690   22.0030    6.9550 C.1   250  FMN250      0.3669
      3  O2        53.7370   22.8670    6.2920 O.2   250  FMN250     -0.1744
      4  N3        55.6850   22.1430    7.2360 N.2   250  FMN250     -0.2300
      5  C4        56.4220   21.1540    7.9200 C.1   250  FMN250      0.2513
      6  O4        57.6120   21.2880    8.1540 O.2   250  FMN250     -0.2057
      7  C4A       55.7280   19.9710    8.3660 C.2   250  FMN250      0.2700
      8  N5        56.3670   18.9760    9.0150 N.2   250  FMN250     -0.3878
      9  C5A       55.7320   17.8570    9.5630 C.2   250  FMN250      0.1320
     10  C6        56.4900   16.8880   10.3180 C.2   250  FMN250      0.0250
     11  C7        55.8360   15.8130   10.9460 C.2   250  FMN250     -0.0238
     12  C7M       56.6300   14.7940   11.7710 C.3   250  FMN250      0.0308
     13  C8        54.3530   15.6720   10.8370 C.2   250  FMN250     -0.0280
     14  C8M       53.5370   14.6020   11.5440 C.3   250  FMN250      0.0304
     15  C9        53.6180   16.6140   10.0620 C.2   250  FMN250     -0.0041
     16  C9A       54.2440   17.7160    9.4120 C.3   250  FMN250      0.1497
     17  N10       53.5990   18.7990    8.6370 N.pl3 250  FMN250     -0.2691
     18  C10       54.2430   19.9070    8.1120 C.2   250  FMN250      0.2416
     19  C1'       52.1160   18.7020    8.4300 C.3   250  FMN250      0.1294
     20  C2'       51.3970   19.6340    9.4970 C.3   250  FMN250      0.2044
     21  O2'       51.3260   18.9630   10.7670 O.3   250  FMN250     -0.2185
     22  C3'       49.9910   20.0450    9.0430 C.3   250  FMN250      0.2164
     23  O3'       49.2780   18.8330    8.6560 O.3   250  FMN250     -0.2175
     24  C4'       50.0820   20.9880    7.8050 C.3   250  FMN250      0.2147
     25  O4'       51.1700   21.9270    7.8280 O.3   250  FMN250     -0.2176
     26  C5'       48.8170   21.7970    7.6000 C.3   250  FMN250      0.1892
     27  O5'       48.4630   22.5670    8.9270 O.3   250  FMN250     -0.2674
     28  P         47.4630   23.7140    8.9060 P.3   250  FMN250      0.5327
     29  O1P       47.1950   23.9810   10.3630 O.3   250  FMN250     -0.1145
     30  O2P       47.9980   24.8780    8.2560 O.3   250  FMN250     -0.1145
     31  O3P       46.2530   23.2160    8.1350 O.2   250  FMN250     -0.2224
@<TRIPOS>BOND
     1     3     2    2
     2     2     4    2
     3     2     1    2
     4     4     5    2
     5     1    18    2
     6    26    24    1
     7    26    27    1
     8    24    25    1
     9    24    22    1
    10     5     6    2
    11     5     7    1
    12    18     7    1
    13    18    17    1
    14    31    28    2
    15    30    28    1
    16     7     8    2
    17    19    17    1
    18    19    20    1
    19    17    16    1
    20    23    22    1
    21    28    27    1
    22    28    29    1
    23     8     9    2
    24    22    20    1
    25    16     9    1
    26    16    15    1
    27    20    21    1
    28     9    10    1
    29    15    13    2
    30    10    11    2
    31    13    11    1
    32    13    14    1
    33    11    12    1
