@<TRIPOS>MOLECULE
1dnp_MHF_A_1.pdb
 33 36 0 0 0
SMALL
GASTEIGER

@<TRIPOS>ATOM
      1  N1        40.8910   38.8830   38.6810 N.2   473  MHF473     -0.2726
      2  C2        41.6620   38.2800   39.5800 C.1   473  MHF473      0.2603
      3  NA2       41.2100   38.3120   40.8430 N.pl3 473  MHF473     -0.0221
      4  N3        42.8260   37.6600   39.3390 N.2   473  MHF473     -0.2515
      5  C4        43.2890   37.6550   37.9830 C.1   473  MHF473      0.2219
      6  O4        44.4030   37.1280   37.7480 O.2   473  MHF473     -0.2109
      7  C4A       42.5520   38.2880   36.9500 C.3   473  MHF473      0.2774
      8  N5        43.0060   38.4870   35.6300 N.3   473  MHF473     -0.2275
      9  C6        42.4730   39.6800   34.9800 C.3   473  MHF473      0.1058
     10  C7        40.9990   39.6490   34.9800 C.3   473  MHF473      0.1547
     11  N8        40.5570   39.6210   36.4120 N.2   473  MHF473     -0.2096
     12  C8A       41.3360   38.8960   37.3470 C.1   473  MHF473      0.1050
     13  C9        43.1450   39.7420   33.6680 C.3   473  MHF473      0.1101
     14  N10       43.8440   38.5120   33.6210 N.pl3 473  MHF473     -0.2923
     15  C11       43.4650   37.7750   34.7270 C.3   473  MHF473      0.1706
     16  C12       46.7150   37.9610   30.5870 C.ar  473  MHF473      0.0551
     17  C13       45.5130   38.5850   30.3510 C.ar  473  MHF473      0.0058
     18  C14       44.5750   38.7380   31.3310 C.ar  473  MHF473      0.0147
     19  C15       44.8030   38.2590   32.6450 C.ar  473  MHF473      0.0488
     20  C16       46.0500   37.6050   32.9240 C.ar  473  MHF473      0.0147
     21  C17       46.9840   37.4660   31.8880 C.ar  473  MHF473      0.0058
     22  C         47.7060   37.8230   29.4340 C.2   473  MHF473      0.2655
     23  O         47.3890   38.3020   28.2570 O.2   473  MHF473     -0.2683
     24  N         48.8580   37.2080   29.6340 N.am  473  MHF473     -0.1872
     25  CA        49.5190   36.4270   28.5470 C.3   473  MHF473      0.2202
     26  CB        50.4690   37.4020   27.7550 C.2   473  MHF473      0.0133
     27  CG        51.2970   36.8990   26.5600 C.2   473  MHF473      0.0838
     28  CD        51.8120   37.9530   25.6030 C.2   473  MHF473      0.3877
     29  OE1       52.2870   39.0620   26.0640 O.co2 473  MHF473     -0.2406
     30  OE2       51.7750   37.7160   24.3490 O.co2 473  MHF473     -0.2406
     31  CT        50.2130   35.0970   29.0900 C.2   473  MHF473      0.3884
     32  O1        50.7680   35.0780   30.2480 O.co2 473  MHF473     -0.2434
     33  O2        50.1900   34.0430   28.3690 O.co2 473  MHF473     -0.2434
@<TRIPOS>BOND
     1    30    28   ar
     2    28    29   ar
     3    28    27    1
     4    27    26    2
     5    26    25    1
     6    23    22    2
     7    33    31   ar
     8    25    31    1
     9    25    24    1
    10    31    32   ar
    11    22    24   am
    12    22    16    1
    13    17    16   ar
    14    17    18   ar
    15    16    21   ar
    16    18    19   ar
    17    21    20   ar
    18    19    20   ar
    19    19    14    1
    20    14    13    1
    21    14    15    1
    22    13     9    1
    23    15     8    1
    24     9    10    1
    25     9     8    1
    26    10    11    1
    27     8     7    1
    28    11    12    2
    29     7    12    1
    30     7     5    1
    31    12     1    2
    32     6     5    2
    33     5     4    2
    34     1     2    2
    35     4     2    2
    36     2     3    1
