@<TRIPOS>MOLECULE
1dnu_HEM_B_1.pdb
 43 50 0 0 0
SMALL
GASTEIGER

@<TRIPOS>ATOM
      1  CHA       29.0400    5.9330   37.2500 C.2   107  HEM107      0.0000
      2  CHB       29.4980    7.2460   41.7950 C.2   107  HEM107      0.0000
      3  CHC       29.7950   11.8460   40.4590 C.2   107  HEM107      0.0000
      4  CHD       29.2800   10.5330   35.8960 C.2   107  HEM107      0.0000
      5  C1A       29.3860    5.8770   38.5880 C.2   107  HEM107      0.0000
      6  C2A       29.3420    4.6570   39.3780 C.2   107  HEM107      0.0000
      7  C3A       29.4240    5.0270   40.6540 C.2   107  HEM107      0.0000
      8  C4A       29.5550    6.4740   40.6540 C.2   107  HEM107      0.0000
      9  CMA       29.3970    4.0950   41.8580 C.3   107  HEM107      0.0000
     10  CAA       29.3730    3.2340   38.8640 C.3   107  HEM107      0.0000
     11  CBA       30.7850    2.6570   38.9110 C.3   107  HEM107      0.0000
     12  CGA       30.8940    1.3170   38.2260 C.2   107  HEM107      0.0000
     13  O1A       31.1350    1.2880   37.0090 O.co2 107  HEM107      0.0000
     14  O2A       30.7510    0.2940   38.9030 O.co2 107  HEM107      0.0000
     15  C1B       29.4990    8.6400   41.8210 C.ar  107  HEM107      0.0000
     16  C2B       29.3950    9.4220   43.0400 C.ar  107  HEM107      0.0000
     17  C3B       29.4770   10.7250   42.6740 C.ar  107  HEM107      0.0000
     18  C4B       29.6360   10.7130   41.2270 C.ar  107  HEM107      0.0000
     19  CMB       29.2370    8.8650   44.4440 C.3   107  HEM107      0.0000
     20  CAB       29.4440   11.8860   43.4970 C.3   107  HEM107      0.0000
     21  CBB       28.6350   12.0650   44.6980 C.3   107  HEM107      0.0000
     22  C1C       29.8680   11.8700   39.0750 C.2   107  HEM107      0.0000
     23  C2C       29.9930   13.0840   38.3000 C.2   107  HEM107      0.0000
     24  C3C       29.8290   12.7060   36.9790 C.2   107  HEM107      0.0000
     25  C4C       29.6230   11.2720   37.0020 C.2   107  HEM107      0.0000
     26  CMC       30.3420   14.4640   38.8690 C.3   107  HEM107      0.0000
     27  CAC       29.9320   13.4680   35.7940 C.3   107  HEM107      0.0000
     28  CBC       30.2230   14.8700   35.7140 C.3   107  HEM107      0.0000
     29  C1D       29.0540    9.1760   35.8860 C.ar  107  HEM107      0.0000
     30  C2D       28.5590    8.4240   34.7440 C.ar  107  HEM107      0.0000
     31  C3D       28.4710    7.1360   35.1420 C.ar  107  HEM107      0.0000
     32  C4D       28.9310    7.0960   36.5140 C.ar  107  HEM107      0.0000
     33  CMD       28.1390    8.9770   33.3830 C.3   107  HEM107      0.0000
     34  CAD       27.8250    5.9900   34.3850 C.3   107  HEM107      0.0000
     35  CBD       26.3130    5.9520   34.6240 C.3   107  HEM107      0.0000
     36  CGD       25.6280    4.7770   33.9760 C.2   107  HEM107      0.0000
     37  O1D       25.2160    3.8670   34.7010 O.co2 107  HEM107      0.0000
     38  O2D       25.4960    4.7690   32.7460 O.co2 107  HEM107      0.0000
     39  NA        29.5830    6.9940   39.3760 N.2   107  HEM107      0.0000
     40  NB        29.6270    9.4360   40.7070 N.ar  107  HEM107      0.0000
     41  NC        29.7060   10.7540   38.2810 N.2   107  HEM107      0.0000
     42  ND        29.2570    8.3540   36.9860 N.ar  107  HEM107      0.0000
     43 FE         29.8850    8.8830   38.8050 Fe    107  HEM107      0.0000
@<TRIPOS>BOND
     1    38    36   ar
     2    33    30    1
     3    36    35    1
     4    36    37   ar
     5    34    35    1
     6    34    31    1
     7    30    31   ar
     8    30    29   ar
     9    31    32   ar
    10    28    27    1
    11    27    24    1
    12    29     4    2
    13    29    42   ar
    14     4    25    1
    15    32    42   ar
    16    32     1    2
    17    24    25    1
    18    24    23    2
    19    42    43    1
    20    25    41    2
    21    13    12   ar
    22     1     5    1
    23    12    14   ar
    24    12    11    1
    25    41    43    1
    26    41    22    1
    27    23    26    1
    28    23    22    1
    29     5    39    2
    30     5     6    1
    31    43    39    1
    32    43    40    1
    33    10    11    1
    34    10     6    1
    35    22     3    2
    36    39     8    1
    37     6     7    2
    38     3    18    1
    39     8     7    1
    40     8     2    2
    41     7     9    1
    42    40    18   ar
    43    40    15   ar
    44    18    17   ar
    45     2    15    1
    46    15    16   ar
    47    17    16   ar
    48    17    20    1
    49    16    19    1
    50    20    21    1
