@<TRIPOS>MOLECULE
1dnu_MAN_C_1.pdb
 11 11 0 0 0
SMALL
GASTEIGER

@<TRIPOS>ATOM
      1  C1        32.6470   10.7110   14.0250 C.3   644  MAN644      0.1777
      2  C2        32.0150   11.3920   12.7990 C.3   644  MAN644      0.2141
      3  C3        30.6440   11.9420   13.1950 C.3   644  MAN644      0.2173
      4  C4        29.7660   10.8070   13.7630 C.3   644  MAN644      0.2142
      5  C5        30.4840   10.1360   14.9540 C.3   644  MAN644      0.1810
      6  C6        29.7580    8.9210   15.5300 C.3   644  MAN644      0.2141
      7  O2        31.9000   10.4800   11.7010 O.3   644  MAN644     -0.2176
      8  O3        30.0280   12.5400   12.0650 O.3   644  MAN644     -0.2175
      9  O4        28.5090   11.3350   14.1820 O.3   644  MAN644     -0.2176
     10  O5        31.7990    9.6880   14.5430 O.3   644  MAN644     -0.3481
     11  O6        29.4980    7.9350   14.5410 O.3   644  MAN644     -0.2176
@<TRIPOS>BOND
     1     7     2    1
     2     8     3    1
     3     2     3    1
     4     2     1    1
     5     3     4    1
     6     4     9    1
     7     4     5    1
     8     1    10    1
     9    11     6    1
    10    10     5    1
    11     5     6    1
