@<TRIPOS>MOLECULE
1dnu_FUC_C_1.pdb
 10 10 0 0 0
SMALL
GASTEIGER

@<TRIPOS>ATOM
      1  C1        37.0090    5.3340    7.3670 C.3   645  FUC645      0.1776
      2  C2        36.8920    6.6090    6.5630 C.3   645  FUC645      0.2141
      3  C3        37.9830    6.6100    5.4900 C.3   645  FUC645      0.2172
      4  C4        37.8350    5.3640    4.5980 C.3   645  FUC645      0.2116
      5  C5        37.8040    4.0800    5.4420 C.3   645  FUC645      0.1483
      6  C6        37.4270    2.8430    4.6230 C.3   645  FUC645      0.0349
      7  O2        37.0340    7.7350    7.4230 O.3   645  FUC645     -0.2176
      8  O3        37.8920    7.7920    4.7020 O.3   645  FUC645     -0.2175
      9  O4        36.6450    5.4500    3.8400 O.3   645  FUC645     -0.2177
     10  O5        36.8400    4.1910    6.5250 O.3   645  FUC645     -0.3508
@<TRIPOS>BOND
     1     9     4    1
     2     4     5    1
     3     4     3    1
     4     6     5    1
     5     8     3    1
     6     5    10    1
     7     3     2    1
     8    10     1    1
     9     2     1    1
    10     2     7    1
