@<TRIPOS>MOLECULE
1dnw_HEM_B_1.pdb
 43 50 0 0 0
SMALL
GASTEIGER

@<TRIPOS>ATOM
      1  CHA       29.2520    5.8670   37.2390 C.2   109  HEM109      0.0000
      2  CHB       29.8100    7.1870   41.8020 C.2   109  HEM109      0.0000
      3  CHC       29.8750   11.7900   40.4650 C.2   109  HEM109      0.0000
      4  CHD       29.4260   10.4910   35.8760 C.2   109  HEM109      0.0000
      5  C1A       29.5840    5.7910   38.5940 C.2   109  HEM109      0.0000
      6  C2A       29.6230    4.5640   39.3790 C.2   109  HEM109      0.0000
      7  C3A       29.7260    4.9210   40.6620 C.2   109  HEM109      0.0000
      8  C4A       29.7780    6.3780   40.6710 C.2   109  HEM109      0.0000
      9  CMA       29.6690    3.9700   41.8310 C.3   109  HEM109      0.0000
     10  CAA       29.5560    3.1380   38.8770 C.3   109  HEM109      0.0000
     11  CBA       30.9600    2.5700   38.8630 C.3   109  HEM109      0.0000
     12  CGA       31.0380    1.2300   38.1680 C.2   109  HEM109      0.0000
     13  O1A       31.2520    1.2010   36.9430 O.co2 109  HEM109      0.0000
     14  O2A       30.8870    0.1990   38.8470 O.co2 109  HEM109      0.0000
     15  C1B       29.7090    8.5810   41.8290 C.ar  109  HEM109      0.0000
     16  C2B       29.6260    9.3670   43.0480 C.ar  109  HEM109      0.0000
     17  C3B       29.6230   10.6940   42.7120 C.ar  109  HEM109      0.0000
     18  C4B       29.7030   10.6730   41.2420 C.ar  109  HEM109      0.0000
     19  CMB       29.5380    8.6770   44.4040 C.3   109  HEM109      0.0000
     20  CAB       29.6280   11.8630   43.4940 C.3   109  HEM109      0.0000
     21  CBB       28.7910   12.0730   44.6660 C.3   109  HEM109      0.0000
     22  C1C       29.8850   11.8180   39.0940 C.2   109  HEM109      0.0000
     23  C2C       30.0920   13.0350   38.3470 C.2   109  HEM109      0.0000
     24  C3C       29.9540   12.6860   37.0130 C.2   109  HEM109      0.0000
     25  C4C       29.6720   11.2530   36.9990 C.2   109  HEM109      0.0000
     26  CMC       30.3780   14.3660   39.0330 C.3   109  HEM109      0.0000
     27  CAC       30.0630   13.4270   35.8310 C.3   109  HEM109      0.0000
     28  CBC       30.2150   14.8340   35.6000 C.3   109  HEM109      0.0000
     29  C1D       29.1720    9.1220   35.8670 C.ar  109  HEM109      0.0000
     30  C2D       28.6820    8.3660   34.7060 C.ar  109  HEM109      0.0000
     31  C3D       28.5640    7.0590   35.1130 C.ar  109  HEM109      0.0000
     32  C4D       29.0280    7.0350   36.5030 C.ar  109  HEM109      0.0000
     33  CMD       28.2350    9.0020   33.3890 C.3   109  HEM109      0.0000
     34  CAD       27.8640    5.8790   34.4050 C.3   109  HEM109      0.0000
     35  CBD       26.3500    5.8550   34.6630 C.3   109  HEM109      0.0000
     36  CGD       25.6430    4.6790   34.0030 C.2   109  HEM109      0.0000
     37  O1D       25.3070    3.7120   34.7110 O.co2 109  HEM109      0.0000
     38  O2D       25.3970    4.7260   32.7800 O.co2 109  HEM109      0.0000
     39  NA        29.6950    6.9030   39.3850 N.2   109  HEM109      0.0000
     40  NB        29.7020    9.3870   40.7290 N.ar  109  HEM109      0.0000
     41  NC        29.6950   10.7180   38.2820 N.2   109  HEM109      0.0000
     42  ND        29.3080    8.3030   36.9760 N.ar  109  HEM109      0.0000
     43 FE         29.7130    8.8300   38.8500 Fe    109  HEM109      0.0000
@<TRIPOS>BOND
     1    38    36   ar
     2    33    30    1
     3    36    35    1
     4    36    37   ar
     5    34    35    1
     6    34    31    1
     7    30    31   ar
     8    30    29   ar
     9    31    32   ar
    10    28    27    1
    11    27    24    1
    12    29     4    2
    13    29    42   ar
    14     4    25    1
    15    32    42   ar
    16    32     1    2
    17    13    12   ar
    18    42    43    1
    19    25    24    1
    20    25    41    2
    21    24    23    2
    22     1     5    1
    23    12    14   ar
    24    12    11    1
    25    41    43    1
    26    41    22    1
    27    23    26    1
    28    23    22    1
    29     5     6    1
    30     5    39    2
    31    43    39    1
    32    43    40    1
    33    11    10    1
    34    10     6    1
    35    22     3    2
    36     6     7    2
    37    39     8    1
    38     3    18    1
    39     7     8    1
    40     7     9    1
    41     8     2    2
    42    40    18   ar
    43    40    15   ar
    44    18    17   ar
    45     2    15    1
    46    15    16   ar
    47    17    16   ar
    48    17    20    1
    49    16    19    1
    50    20    21    1
