@<TRIPOS>MOLECULE
1dnw_FUC_C_1.pdb
 10 10 0 0 0
SMALL
GASTEIGER

@<TRIPOS>ATOM
      1  C1        37.0850    5.3650    7.3560 C.3   645  FUC645      0.1776
      2  C2        36.9440    6.6390    6.5580 C.3   645  FUC645      0.2141
      3  C3        38.0460    6.6690    5.5060 C.3   645  FUC645      0.2172
      4  C4        37.9350    5.4290    4.6120 C.3   645  FUC645      0.2116
      5  C5        37.9470    4.1530    5.4560 C.3   645  FUC645      0.1483
      6  C6        37.6140    2.9250    4.6300 C.3   645  FUC645      0.0349
      7  O2        37.0680    7.7450    7.4360 O.3   645  FUC645     -0.2176
      8  O3        37.9380    7.8480    4.7190 O.3   645  FUC645     -0.2175
      9  O4        36.7390    5.4880    3.8450 O.3   645  FUC645     -0.2177
     10  O5        36.9570    4.2340    6.5050 O.3   645  FUC645     -0.3508
@<TRIPOS>BOND
     1     9     4    1
     2     4     5    1
     3     4     3    1
     4     6     5    1
     5     8     3    1
     6     5    10    1
     7     3     2    1
     8    10     1    1
     9     2     1    1
    10     2     7    1
