@<TRIPOS>MOLECULE
1dnw_MAN_C_1.pdb
 11 11 0 0 0
SMALL
GASTEIGER

@<TRIPOS>ATOM
      1  C1        32.6600   10.7430   14.1100 C.3   644  MAN644      0.1777
      2  C2        32.0280   11.3800   12.8700 C.3   644  MAN644      0.2141
      3  C3        30.6580   11.9480   13.2430 C.3   644  MAN644      0.2173
      4  C4        29.7830   10.8330   13.8160 C.3   644  MAN644      0.2142
      5  C5        30.4900   10.1920   15.0160 C.3   644  MAN644      0.1810
      6  C6        29.7480    8.9990   15.6020 C.3   644  MAN644      0.2141
      7  O2        31.8970   10.4130   11.8360 O.3   644  MAN644     -0.2176
      8  O3        30.0310   12.5210   12.1040 O.3   644  MAN644     -0.2175
      9  O4        28.5310   11.3690   14.2180 O.3   644  MAN644     -0.2176
     10  O5        31.8060    9.7290   14.6330 O.3   644  MAN644     -0.3481
     11  O6        29.5060    8.0010   14.6180 O.3   644  MAN644     -0.2176
@<TRIPOS>BOND
     1     7     2    1
     2     8     3    1
     3     2     3    1
     4     2     1    1
     5     3     4    1
     6     4     9    1
     7     4     5    1
     8     1    10    1
     9    11     6    1
    10    10     5    1
    11     5     6    1
