@<TRIPOS>MOLECULE
1do0_ATP_A_1.pdb
 31 33 0 0 0
SMALL
GASTEIGER

@<TRIPOS>ATOM
      1  PG        50.4430   47.8620   53.6620 P.3   900  ATP900      0.5373
      2  O1G       50.6700   46.3660   53.4450 O.3   900  ATP900     -0.1143
      3  O2G       51.6720   48.7380   53.6600 O.3   900  ATP900     -0.1143
      4  O3G       49.3360   48.4200   52.7630 O.2   900  ATP900     -0.2221
      5  PB        50.3920   47.6190   56.6250 P.3   900  ATP900      0.2277
      6  O1B       51.4890   48.5480   56.9820 O.3   900  ATP900     -0.4368
      7  O2B       50.6000   46.1520   56.7070 O.2   900  ATP900     -0.5168
      8  O3B       49.8380   47.9850   55.1650 O.3   900  ATP900     -0.2258
      9  PA        48.6330   49.4880   57.8820 P.3   900  ATP900      0.2189
     10  O1A       49.2950   50.0140   59.1230 O.3   900  ATP900     -0.4371
     11  O2A       48.7170   50.2830   56.6120 O.2   900  ATP900     -0.5170
     12  O3A       49.1990   48.0300   57.5760 O.3   900  ATP900     -0.2700
     13  O5'       47.0680   49.2260   58.1460 O.3   900  ATP900     -0.3112
     14  C5'       46.5600   48.2420   59.0620 C.3   900  ATP900      0.1813
     15  C4'       45.2360   48.6980   59.6900 C.3   900  ATP900      0.1821
     16  O4'       45.2820   48.4430   61.1220 O.3   900  ATP900     -0.3135
     17  C3'       44.9530   50.1910   59.5580 C.3   900  ATP900      0.2184
     18  O3'       43.5630   50.4220   59.3230 O.3   900  ATP900     -0.2174
     19  C2'       45.4090   50.7630   60.8620 C.3   900  ATP900      0.2570
     20  O2'       44.7830   51.9860   61.1600 O.3   900  ATP900     -0.2130
     21  C1'       45.0770   49.6490   61.8490 C.3   900  ATP900      0.3186
     22  N9        45.9780   49.6610   63.0340 N.pl3 900  ATP900     -0.1439
     23  C8        45.9290   50.5220   64.1200 C.3   900  ATP900      0.3377
     24  N7        46.8600   50.3050   65.0170 N.2   900  ATP900     -0.2095
     25  C5        47.5710   49.2460   64.5070 C.2   900  ATP900      0.2526
     26  C6        48.6980   48.5230   64.9770 C.2   900  ATP900      0.4393
     27  N6        49.3270   48.7980   66.1170 N.pl3 900  ATP900      0.2180
     28  N1        49.1710   47.4870   64.2080 N.2   900  ATP900      0.0021
     29  C2        48.5420   47.1940   63.0380 C.3   900  ATP900      0.5254
     30  N3        47.4840   47.8020   62.4960 N.2   900  ATP900     -0.0055
     31  C4        47.0370   48.8230   63.2850 C.2   900  ATP900      0.3518
@<TRIPOS>BOND
     1     4     1    2
     2     2     1    1
     3     3     1    1
     4     1     8    1
     5     8     5    1
     6    11     9    2
     7     5     7    2
     8     5     6    1
     9     5    12    1
    10    12     9    1
    11     9    13    1
    12     9    10    1
    13    13    14    1
    14    14    15    1
    15    18    17    1
    16    17    15    1
    17    17    19    1
    18    15    16    1
    19    19    20    1
    20    19    21    1
    21    16    21    1
    22    21    22    1
    23    30    29    1
    24    30    31    2
    25    22    31    1
    26    22    23    1
    27    29    28    1
    28    31    25    1
    29    23    24    1
    30    28    26    2
    31    25    26    1
    32    25    24    2
    33    26    27    1
