@<TRIPOS>MOLECULE
1do1_GLC_A_1.pdb
 11 11 0 0 0
SMALL
GASTEIGER

@<TRIPOS>ATOM
      1  C1        19.7050   10.3700    0.8150 C.3   349  GLC349      0.1777
      2  C2        19.0360   10.1030   -0.5700 C.3   349  GLC349      0.2141
      3  C3        18.3980    8.7100   -0.5360 C.3   349  GLC349      0.2173
      4  C4        19.5160    7.7100   -0.2330 C.3   349  GLC349      0.2142
      5  C5        20.1710    7.9900    1.1360 C.3   349  GLC349      0.1810
      6  C6        21.5120    7.3530    1.4210 C.3   349  GLC349      0.2141
      7  O2        17.9940   11.0540   -0.8850 O.3   349  GLC349     -0.2176
      8  O3        17.9060    8.3060   -1.8280 O.3   349  GLC349     -0.2175
      9  O4        19.0040    6.4170   -0.1640 O.3   349  GLC349     -0.2176
     10  O5        20.7300    9.3640    1.0730 O.3   349  GLC349     -0.3481
     11  O6        22.0010    7.4790    2.7240 O.3   349  GLC349     -0.2176
@<TRIPOS>BOND
     1     8     3    1
     2     7     2    1
     3     2     3    1
     4     2     1    1
     5     3     4    1
     6     4     9    1
     7     4     5    1
     8     1    10    1
     9    10     5    1
    10     5     6    1
    11     6    11    1
