@<TRIPOS>MOLECULE
1do1_HEM_A_1.pdb
 43 50 0 0 0
SMALL
GASTEIGER

@<TRIPOS>ATOM
      1 FE         34.7410    3.9640   10.2040 Fe    154  HEM154      0.0000
      2  CHA       37.3960    2.1700   11.3480 C.2   154  HEM154      0.0000
      3  CHB       36.6750    5.1280    7.6180 C.2   154  HEM154      0.0000
      4  CHC       32.1630    5.9090    9.0820 C.2   154  HEM154      0.0000
      5  CHD       32.8720    2.9070   12.7940 C.2   154  HEM154      0.0000
      6  NA        36.6240    3.7140    9.6200 N.ar  154  HEM154      0.0000
      7  C1A       37.5920    2.9030   10.1870 C.ar  154  HEM154      0.0000
      8  C2A       38.8200    2.9230    9.4120 C.ar  154  HEM154      0.0000
      9  C3A       38.6160    3.7730    8.3730 C.ar  154  HEM154      0.0000
     10  C4A       37.2630    4.2620    8.5120 C.ar  154  HEM154      0.0000
     11  CMA       39.5850    4.0860    7.2480 C.3   154  HEM154      0.0000
     12  CAA       40.0510    2.0500    9.6500 C.3   154  HEM154      0.0000
     13  CBA       40.1550    0.8470    8.7090 C.3   154  HEM154      0.0000
     14  CGA       38.8940   -0.0120    8.7030 C.2   154  HEM154      0.0000
     15  O1A       38.5850   -0.6510    9.7350 O.co2 154  HEM154      0.0000
     16  O2A       38.2100   -0.0400    7.6620 O.co2 154  HEM154      0.0000
     17  NB        34.4570    5.1750    8.6190 N.2   154  HEM154      0.0000
     18  C1B       35.3670    5.5560    7.6470 C.2   154  HEM154      0.0000
     19  C2B       34.8040    6.5050    6.6850 C.2   154  HEM154      0.0000
     20  C3B       33.5070    6.7160    7.0870 C.2   154  HEM154      0.0000
     21  C4B       33.3150    5.8940    8.2980 C.2   154  HEM154      0.0000
     22  CMB       35.5300    7.0800    5.4560 C.3   154  HEM154      0.0000
     23  CAB       32.5200    7.5410    6.5270 C.3   154  HEM154      0.0000
     24  CBB       32.7130    8.9000    6.0780 C.3   154  HEM154      0.0000
     25  NC        32.9000    4.2990   10.7810 N.ar  154  HEM154      0.0000
     26  C1C       31.9840    5.1970   10.2690 C.ar  154  HEM154      0.0000
     27  C2C       30.8380    5.3710   11.1650 C.ar  154  HEM154      0.0000
     28  C3C       31.0550    4.5320   12.2400 C.ar  154  HEM154      0.0000
     29  C4C       32.3060    3.8430   11.9580 C.ar  154  HEM154      0.0000
     30  CMC       29.6860    6.3450   10.9190 C.3   154  HEM154      0.0000
     31  CAC       30.3560    4.3520   13.4500 C.3   154  HEM154      0.0000
     32  CBC       29.0430    4.8360   13.8200 C.3   154  HEM154      0.0000
     33  ND        35.0420    2.7470   11.7050 N.2   154  HEM154      0.0000
     34  C1D       34.1440    2.3970   12.6830 C.2   154  HEM154      0.0000
     35  C2D       34.7630    1.5690   13.6950 C.2   154  HEM154      0.0000
     36  C3D       36.0600    1.4510   13.3400 C.2   154  HEM154      0.0000
     37  C4D       36.2180    2.1270   12.0690 C.2   154  HEM154      0.0000
     38  CMD       34.0880    0.9670   14.9270 C.3   154  HEM154      0.0000
     39  CAD       37.1800    0.8620   14.1870 C.3   154  HEM154      0.0000
     40  CBD       37.8450    1.9210   15.0590 C.3   154  HEM154      0.0000
     41  CGD       39.0050    1.3700   15.8670 C.2   154  HEM154      0.0000
     42  O1D       38.7960    0.9860   17.0340 O.co2 154  HEM154      0.0000
     43  O2D       40.1310    1.3160   15.3370 O.co2 154  HEM154      0.0000
@<TRIPOS>BOND
     1    22    19    1
     2    24    23    1
     3    23    20    1
     4    19    20    2
     5    19    18    1
     6    20    21    1
     7    11     9    1
     8     3    18    1
     9     3    10    2
    10    18    17    2
    11    16    14   ar
    12    21    17    1
    13    21     4    2
    14     9    10   ar
    15     9     8   ar
    16    10     6   ar
    17    17     1    1
    18    14    13    1
    19    14    15   ar
    20    13    12    1
    21     4    26    1
    22     8    12    1
    23     8     7   ar
    24     6     7   ar
    25     6     1    1
    26     7     2    2
    27     1    25    1
    28     1    33    1
    29    26    25   ar
    30    26    27   ar
    31    25    29   ar
    32    30    27    1
    33    27    28   ar
    34     2    37    1
    35    33    37    2
    36    33    34    1
    37    29    28   ar
    38    29     5    1
    39    37    36    1
    40    28    31    1
    41    34     5    2
    42    34    35    1
    43    36    35    2
    44    36    39    1
    45    31    32    1
    46    35    38    1
    47    39    40    1
    48    40    41    1
    49    43    41   ar
    50    41    42   ar
