@<TRIPOS>MOLECULE
1do2_ANP_A_1.pdb
 31 33 0 0 0
SMALL
GASTEIGER

@<TRIPOS>ATOM
      1  PG       132.5330   60.5700   33.2300 P.3   900  ANP900      0.4884
      2  O1G      132.8810   59.7430   34.4340 O.3   900  ANP900     -0.1240
      3  O2G      131.7080   59.8860   32.1900 O.2   900  ANP900     -0.2331
      4  O3G      131.9840   61.9380   33.5780 O.3   900  ANP900     -0.1240
      5  PB       135.0520   59.9200   31.8830 P.3   900  ANP900      0.4669
      6  O1B      134.4960   59.2300   30.6880 O.2   900  ANP900     -0.2351
      7  O2B      135.6800   59.1240   32.9880 O.3   900  ANP900     -0.1253
      8  N3B      133.9290   60.8770   32.5010 N.3   900  ANP900     -0.0163
      9  PA       135.8600   62.0320   30.2040 P.3   900  ANP900      0.2220
     10  O1A      136.8610   61.8290   29.1010 O.2   900  ANP900     -0.5170
     11  O2A      134.3890   62.0370   29.8840 O.3   900  ANP900     -0.4370
     12  O3A      136.1050   60.9420   31.3210 O.3   900  ANP900     -0.2360
     13  O5'      136.1630   63.3770   30.9960 O.3   900  ANP900     -0.3111
     14  C5'      137.4770   63.7570   31.3580 C.3   900  ANP900      0.1813
     15  C4'      137.8520   65.0270   30.6350 C.3   900  ANP900      0.1821
     16  O4'      139.0990   65.5330   31.1700 O.3   900  ANP900     -0.3135
     17  C3'      138.0570   64.8610   29.1310 C.3   900  ANP900      0.2184
     18  O3'      136.9170   65.3370   28.4140 O.3   900  ANP900     -0.2174
     19  C2'      139.3210   65.6480   28.8100 C.3   900  ANP900      0.2570
     20  O2'      139.0810   66.9290   28.2510 O.3   900  ANP900     -0.2130
     21  C1'      140.0620   65.7150   30.1430 C.3   900  ANP900      0.3186
     22  N9       141.1330   64.6970   30.2850 N.pl3 900  ANP900     -0.1439
     23  C8       142.2480   64.5560   29.4780 C.3   900  ANP900      0.3377
     24  N7       143.0420   63.5720   29.8230 N.2   900  ANP900     -0.2095
     25  C5       142.4230   63.0160   30.9300 C.2   900  ANP900      0.2526
     26  C6       142.7550   61.9220   31.7790 C.2   900  ANP900      0.4393
     27  N6       143.8440   61.1780   31.6170 N.pl3 900  ANP900      0.2180
     28  N1       141.9090   61.6220   32.8190 N.2   900  ANP900      0.0021
     29  C2       140.7950   62.3710   32.9930 C.3   900  ANP900      0.5254
     30  N3       140.3790   63.4190   32.2620 N.2   900  ANP900     -0.0055
     31  C4       141.2410   63.6950   31.2350 C.2   900  ANP900      0.3518
@<TRIPOS>BOND
     1    20    19    1
     2    18    17    1
     3    19    17    1
     4    19    21    1
     5    10     9    2
     6    17    15    1
     7    23    24    1
     8    23    22    1
     9    24    25    2
    10    11     9    1
    11    21    22    1
    12    21    16    1
    13     9    13    1
    14     9    12    1
    15    22    31    1
    16    15    16    1
    17    15    14    1
    18     6     5    2
    19    25    31    1
    20    25    26    1
    21    13    14    1
    22    31    30    2
    23    12     5    1
    24    27    26    1
    25    26    28    2
    26     5     8    1
    27     5     7    1
    28     3     1    2
    29    30    29    1
    30     8     1    1
    31    28    29    1
    32     1     4    1
    33     1     2    1
