@<TRIPOS>MOLECULE
1do3_HEM_A_1.pdb
 43 50 0 0 0
SMALL
GASTEIGER

@<TRIPOS>ATOM
      1 FE         34.7920    4.0200   10.1190 Fe    154  HEM154      0.0000
      2  CHA       37.4920    2.3490   11.3470 C.2   154  HEM154      0.0000
      3  CHB       36.7410    5.2400    7.5630 C.2   154  HEM154      0.0000
      4  CHC       32.3120    6.2280    9.1640 C.2   154  HEM154      0.0000
      5  CHD       32.9990    3.2000   12.8570 C.2   154  HEM154      0.0000
      6  NA        36.7090    3.8480    9.5900 N.ar  154  HEM154      0.0000
      7  C1A       37.6980    3.0650   10.1790 C.ar  154  HEM154      0.0000
      8  C2A       38.9340    3.0660    9.3930 C.ar  154  HEM154      0.0000
      9  C3A       38.7150    3.8880    8.3240 C.ar  154  HEM154      0.0000
     10  C4A       37.3410    4.3740    8.4640 C.ar  154  HEM154      0.0000
     11  CMA       39.6540    4.2060    7.1790 C.3   154  HEM154      0.0000
     12  CAA       40.1800    2.1990    9.6360 C.3   154  HEM154      0.0000
     13  CBA       40.2980    1.0140    8.6730 C.3   154  HEM154      0.0000
     14  CGA       39.0590    0.1340    8.6730 C.2   154  HEM154      0.0000
     15  O1A       38.7710   -0.5080    9.7100 O.co2 154  HEM154      0.0000
     16  O2A       38.3640    0.0990    7.6380 O.co2 154  HEM154      0.0000
     17  NB        34.5640    5.3990    8.6490 N.2   154  HEM154      0.0000
     18  C1B       35.4530    5.7260    7.6350 C.2   154  HEM154      0.0000
     19  C2B       34.9080    6.6830    6.6780 C.2   154  HEM154      0.0000
     20  C3B       33.6440    6.9680    7.1240 C.2   154  HEM154      0.0000
     21  C4B       33.4580    6.1900    8.3690 C.2   154  HEM154      0.0000
     22  CMB       35.6320    7.1620    5.4100 C.3   154  HEM154      0.0000
     23  CAB       32.6640    7.7880    6.5440 C.3   154  HEM154      0.0000
     24  CBB       32.8990    9.1150    5.9970 C.3   154  HEM154      0.0000
     25  NC        33.0130    4.5500   10.8180 N.ar  154  HEM154      0.0000
     26  C1C       32.1030    5.4760   10.3140 C.ar  154  HEM154      0.0000
     27  C2C       30.9420    5.6430   11.1840 C.ar  154  HEM154      0.0000
     28  C3C       31.1520    4.8090   12.2660 C.ar  154  HEM154      0.0000
     29  C4C       32.4310    4.1330   12.0100 C.ar  154  HEM154      0.0000
     30  CMC       29.7780    6.5960   10.9200 C.3   154  HEM154      0.0000
     31  CAC       30.4220    4.5920   13.4520 C.3   154  HEM154      0.0000
     32  CBC       29.1320    5.1140   13.8420 C.3   154  HEM154      0.0000
     33  ND        35.1490    2.9600   11.7270 N.2   154  HEM154      0.0000
     34  C1D       34.2570    2.6420   12.7350 C.2   154  HEM154      0.0000
     35  C2D       34.8460    1.7670   13.7190 C.2   154  HEM154      0.0000
     36  C3D       36.1430    1.6350   13.3470 C.2   154  HEM154      0.0000
     37  C4D       36.3120    2.3250   12.0870 C.2   154  HEM154      0.0000
     38  CMD       34.1730    1.1280   14.9390 C.3   154  HEM154      0.0000
     39  CAD       37.2440    1.0130   14.1900 C.3   154  HEM154      0.0000
     40  CBD       37.8220    2.0190   15.1800 C.3   154  HEM154      0.0000
     41  CGD       39.0070    1.4670   15.9450 C.2   154  HEM154      0.0000
     42  O1D       38.8650    1.1650   17.1420 O.co2 154  HEM154      0.0000
     43  O2D       40.0900    1.3330   15.3470 O.co2 154  HEM154      0.0000
@<TRIPOS>BOND
     1    22    19    1
     2    24    23    1
     3    23    20    1
     4    19    20    2
     5    19    18    1
     6    20    21    1
     7    11     9    1
     8     3    18    1
     9     3    10    2
    10    18    17    2
    11    16    14   ar
    12     9    10   ar
    13     9     8   ar
    14    21    17    1
    15    21     4    2
    16    10     6   ar
    17    17     1    1
    18    13    14    1
    19    13    12    1
    20    14    15   ar
    21     4    26    1
    22     8    12    1
    23     8     7   ar
    24     6     1    1
    25     6     7   ar
    26     1    25    1
    27     1    33    1
    28     7     2    2
    29    26    25   ar
    30    26    27   ar
    31    25    29   ar
    32    30    27    1
    33    27    28   ar
    34     2    37    1
    35    33    37    2
    36    33    34    1
    37    29    28   ar
    38    29     5    1
    39    37    36    1
    40    28    31    1
    41    34     5    2
    42    34    35    1
    43    36    35    2
    44    36    39    1
    45    31    32    1
    46    35    38    1
    47    39    40    1
    48    40    41    1
    49    43    41   ar
    50    41    42   ar
