@<TRIPOS>MOLECULE
1do3_GLC_A_1.pdb
 11 11 0 0 0
SMALL
GASTEIGER

@<TRIPOS>ATOM
      1  C1        19.6130   10.4190    0.8840 C.3   349  GLC349      0.1777
      2  C2        18.9290   10.1800   -0.5020 C.3   349  GLC349      0.2141
      3  C3        18.3040    8.7820   -0.5000 C.3   349  GLC349      0.2173
      4  C4        19.4410    7.7860   -0.2350 C.3   349  GLC349      0.2142
      5  C5        20.1050    8.0380    1.1380 C.3   349  GLC349      0.1810
      6  C6        21.4550    7.4140    1.3920 C.3   349  GLC349      0.2141
      7  O2        17.8700   11.1300   -0.7820 O.3   349  GLC349     -0.2176
      8  O3        17.8010    8.4080   -1.7940 O.3   349  GLC349     -0.2175
      9  O4        18.9470    6.4850   -0.1970 O.3   349  GLC349     -0.2176
     10  O5        20.6510    9.4210    1.1060 O.3   349  GLC349     -0.3481
     11  O6        21.9370    7.4860    2.6990 O.3   349  GLC349     -0.2176
@<TRIPOS>BOND
     1     8     3    1
     2     7     2    1
     3     2     3    1
     4     2     1    1
     5     3     4    1
     6     4     9    1
     7     4     5    1
     8     1    10    1
     9    10     5    1
    10     5     6    1
    11     6    11    1
