@<TRIPOS>MOLECULE
1do4_GLC_A_1.pdb
 11 11 0 0 0
SMALL
GASTEIGER

@<TRIPOS>ATOM
      1  C1        19.7030   10.3990    0.8700 C.3   347  GLC347      0.1777
      2  C2        19.0170   10.1490   -0.5100 C.3   347  GLC347      0.2141
      3  C3        18.3600    8.7640   -0.4800 C.3   347  GLC347      0.2173
      4  C4        19.4750    7.7500   -0.1990 C.3   347  GLC347      0.2142
      5  C5        20.1480    8.0160    1.1680 C.3   347  GLC347      0.1810
      6  C6        21.4810    7.3660    1.4360 C.3   347  GLC347      0.2141
      7  O2        17.9810   11.1140   -0.8060 O.3   347  GLC347     -0.2176
      8  O3        17.8460    8.3780   -1.7710 O.3   347  GLC347     -0.2175
      9  O4        18.9540    6.4580   -0.1310 O.3   347  GLC347     -0.2176
     10  O5        20.7220    9.3850    1.1120 O.3   347  GLC347     -0.3481
     11  O6        21.9790    7.4910    2.7300 O.3   347  GLC347     -0.2176
@<TRIPOS>BOND
     1     8     3    1
     2     7     2    1
     3     2     3    1
     4     2     1    1
     5     3     4    1
     6     4     9    1
     7     4     5    1
     8     1    10    1
     9    10     5    1
    10     5     6    1
    11     6    11    1
