@<TRIPOS>MOLECULE
1do4_HEM_A_1.pdb
 43 50 0 0 0
SMALL
GASTEIGER

@<TRIPOS>ATOM
      1 FE         34.7530    3.9390   10.1480 Fe    154  HEM154      0.0000
      2  CHA       37.4380    2.2300   11.3130 C.2   154  HEM154      0.0000
      3  CHB       36.7200    5.2290    7.6360 C.2   154  HEM154      0.0000
      4  CHC       32.2700    6.1530    9.2040 C.2   154  HEM154      0.0000
      5  CHD       32.9900    3.1520   12.9140 C.2   154  HEM154      0.0000
      6  NA        36.6710    3.8060    9.6100 N.ar  154  HEM154      0.0000
      7  C1A       37.6430    2.9780   10.1580 C.ar  154  HEM154      0.0000
      8  C2A       38.8680    2.9810    9.3760 C.ar  154  HEM154      0.0000
      9  C3A       38.6640    3.8370    8.3400 C.ar  154  HEM154      0.0000
     10  C4A       37.3160    4.3570    8.5090 C.ar  154  HEM154      0.0000
     11  CMA       39.6190    4.0930    7.1840 C.3   154  HEM154      0.0000
     12  CAA       40.1030    2.1030    9.5990 C.3   154  HEM154      0.0000
     13  CBA       40.2030    0.8880    8.6710 C.3   154  HEM154      0.0000
     14  CGA       38.9510    0.0220    8.6970 C.2   154  HEM154      0.0000
     15  O1A       38.6610   -0.6010    9.7410 O.co2 154  HEM154      0.0000
     16  O2A       38.2440   -0.0220    7.6730 O.co2 154  HEM154      0.0000
     17  NB        34.5230    5.3130    8.6800 N.2   154  HEM154      0.0000
     18  C1B       35.4230    5.6670    7.6840 C.2   154  HEM154      0.0000
     19  C2B       34.8680    6.6210    6.7250 C.2   154  HEM154      0.0000
     20  C3B       33.5940    6.8980    7.1550 C.2   154  HEM154      0.0000
     21  C4B       33.4020    6.0930    8.3890 C.2   154  HEM154      0.0000
     22  CMB       35.5850    7.1300    5.4590 C.3   154  HEM154      0.0000
     23  CAB       32.6330    7.7530    6.5780 C.3   154  HEM154      0.0000
     24  CBB       32.8550    9.1220    6.1520 C.3   154  HEM154      0.0000
     25  NC        32.9870    4.4930   10.8680 N.ar  154  HEM154      0.0000
     26  C1C       32.0860    5.4280   10.3800 C.ar  154  HEM154      0.0000
     27  C2C       30.9450    5.6040   11.2810 C.ar  154  HEM154      0.0000
     28  C3C       31.1430    4.7570   12.3470 C.ar  154  HEM154      0.0000
     29  C4C       32.4060    4.0760   12.0630 C.ar  154  HEM154      0.0000
     30  CMC       29.7800    6.5620   11.0380 C.3   154  HEM154      0.0000
     31  CAC       30.3990    4.5510   13.5280 C.3   154  HEM154      0.0000
     32  CBC       29.0860    5.0520   13.8950 C.3   154  HEM154      0.0000
     33  ND        35.1230    2.8970   11.7610 N.2   154  HEM154      0.0000
     34  C1D       34.2500    2.6070   12.7900 C.2   154  HEM154      0.0000
     35  C2D       34.8560    1.7110   13.7590 C.2   154  HEM154      0.0000
     36  C3D       36.1460    1.5360   13.3630 C.2   154  HEM154      0.0000
     37  C4D       36.2840    2.2230   12.0910 C.2   154  HEM154      0.0000
     38  CMD       34.1580    1.0670   14.9470 C.3   154  HEM154      0.0000
     39  CAD       37.2580    0.8920   14.1850 C.3   154  HEM154      0.0000
     40  CBD       37.9170    1.9160   15.1040 C.3   154  HEM154      0.0000
     41  CGD       39.0690    1.3300   15.8980 C.2   154  HEM154      0.0000
     42  O1D       38.8580    0.9380   17.0600 O.co2 154  HEM154      0.0000
     43  O2D       40.1920    1.2560   15.3630 O.co2 154  HEM154      0.0000
@<TRIPOS>BOND
     1    22    19    1
     2    24    23    1
     3    23    20    1
     4    19    20    2
     5    19    18    1
     6    20    21    1
     7    11     9    1
     8     3    18    1
     9     3    10    2
    10    16    14   ar
    11    18    17    2
    12     9    10   ar
    13     9     8   ar
    14    21    17    1
    15    21     4    2
    16    10     6   ar
    17    13    14    1
    18    13    12    1
    19    17     1    1
    20    14    15   ar
    21     4    26    1
    22     8    12    1
    23     8     7   ar
    24     6     1    1
    25     6     7   ar
    26     1    25    1
    27     1    33    1
    28     7     2    2
    29    26    25   ar
    30    26    27   ar
    31    25    29   ar
    32    30    27    1
    33    27    28   ar
    34     2    37    1
    35    33    37    2
    36    33    34    1
    37    29    28   ar
    38    29     5    1
    39    37    36    1
    40    28    31    1
    41    34     5    2
    42    34    35    1
    43    36    35    2
    44    36    39    1
    45    31    32    1
    46    35    38    1
    47    39    40    1
    48    40    41    1
    49    43    41   ar
    50    41    42   ar
