@<TRIPOS>MOLECULE
1do7_HEM_A_1.pdb
 43 50 0 0 0
SMALL
GASTEIGER

@<TRIPOS>ATOM
      1 FE         34.7360    3.9220   10.2070 Fe    154  HEM154      0.0000
      2  CHA       37.3960    2.1420   11.3530 C.2   154  HEM154      0.0000
      3  CHB       36.6710    5.1260    7.6720 C.2   154  HEM154      0.0000
      4  CHC       32.1730    5.9220    9.1240 C.2   154  HEM154      0.0000
      5  CHD       32.8930    2.9410   12.8320 C.2   154  HEM154      0.0000
      6  NA        36.6170    3.6730    9.6330 N.ar  154  HEM154      0.0000
      7  C1A       37.5890    2.8680   10.1960 C.ar  154  HEM154      0.0000
      8  C2A       38.8230    2.9150    9.4200 C.ar  154  HEM154      0.0000
      9  C3A       38.6080    3.7600    8.3810 C.ar  154  HEM154      0.0000
     10  C4A       37.2580    4.2440    8.5450 C.ar  154  HEM154      0.0000
     11  CMA       39.5000    4.0330    7.1860 C.3   154  HEM154      0.0000
     12  CAA       40.0540    2.0490    9.6540 C.3   154  HEM154      0.0000
     13  CBA       40.1440    0.8480    8.7190 C.3   154  HEM154      0.0000
     14  CGA       38.8950   -0.0220    8.7460 C.2   154  HEM154      0.0000
     15  O1A       38.5930   -0.6290    9.7980 O.co2 154  HEM154      0.0000
     16  O2A       38.2090   -0.0920    7.7090 O.co2 154  HEM154      0.0000
     17  NB        34.4400    5.1330    8.6480 N.2   154  HEM154      0.0000
     18  C1B       35.3580    5.5270    7.6830 C.2   154  HEM154      0.0000
     19  C2B       34.8080    6.4630    6.7090 C.2   154  HEM154      0.0000
     20  C3B       33.5110    6.6860    7.1050 C.2   154  HEM154      0.0000
     21  C4B       33.2990    5.8620    8.3160 C.2   154  HEM154      0.0000
     22  CMB       35.5690    7.0220    5.4990 C.3   154  HEM154      0.0000
     23  CAB       32.5530    7.5380    6.5430 C.3   154  HEM154      0.0000
     24  CBB       32.7630    8.8990    6.0980 C.3   154  HEM154      0.0000
     25  NC        32.9170    4.3060   10.8280 N.ar  154  HEM154      0.0000
     26  C1C       31.9950    5.2130   10.3100 C.ar  154  HEM154      0.0000
     27  C2C       30.8460    5.3850   11.2120 C.ar  154  HEM154      0.0000
     28  C3C       31.0620    4.5480   12.2620 C.ar  154  HEM154      0.0000
     29  C4C       32.3210    3.8670   11.9900 C.ar  154  HEM154      0.0000
     30  CMC       29.7090    6.3960   11.0110 C.3   154  HEM154      0.0000
     31  CAC       30.3730    4.3960   13.4750 C.3   154  HEM154      0.0000
     32  CBC       29.0290    4.8470   13.8470 C.3   154  HEM154      0.0000
     33  ND        35.0410    2.7360   11.7040 N.2   154  HEM154      0.0000
     34  C1D       34.1520    2.3960   12.6900 C.2   154  HEM154      0.0000
     35  C2D       34.7620    1.5700   13.6950 C.2   154  HEM154      0.0000
     36  C3D       36.0600    1.4550   13.3430 C.2   154  HEM154      0.0000
     37  C4D       36.2190    2.1190   12.0830 C.2   154  HEM154      0.0000
     38  CMD       34.0570    0.9500   14.8970 C.3   154  HEM154      0.0000
     39  CAD       37.1670    0.8240   14.1750 C.3   154  HEM154      0.0000
     40  CBD       37.7410    1.8090   15.1840 C.3   154  HEM154      0.0000
     41  CGD       38.9610    1.2640   15.8940 C.2   154  HEM154      0.0000
     42  O1D       38.8430    0.8510   17.0640 O.co2 154  HEM154      0.0000
     43  O2D       40.0430    1.2390   15.2780 O.co2 154  HEM154      0.0000
@<TRIPOS>BOND
     1    22    19    1
     2    24    23    1
     3    23    20    1
     4    19    20    2
     5    19    18    1
     6    20    21    1
     7    11     9    1
     8     3    18    1
     9     3    10    2
    10    18    17    2
    11    16    14   ar
    12    21    17    1
    13    21     4    2
    14     9    10   ar
    15     9     8   ar
    16    10     6   ar
    17    17     1    1
    18    13    14    1
    19    13    12    1
    20    14    15   ar
    21     4    26    1
    22     8    12    1
    23     8     7   ar
    24     6     7   ar
    25     6     1    1
    26     7     2    2
    27     1    25    1
    28     1    33    1
    29    26    25   ar
    30    26    27   ar
    31    25    29   ar
    32    30    27    1
    33    27    28   ar
    34     2    37    1
    35    33    37    2
    36    33    34    1
    37    29    28   ar
    38    29     5    1
    39    37    36    1
    40    28    31    1
    41    34     5    2
    42    34    35    1
    43    36    35    2
    44    36    39    1
    45    31    32    1
    46    35    38    1
    47    39    40    1
    48    40    41    1
    49    43    41   ar
    50    41    42   ar
