@<TRIPOS>MOLECULE
1do7_GLC_A_1.pdb
 11 11 0 0 0
SMALL
GASTEIGER

@<TRIPOS>ATOM
      1  C1        19.6780   10.3750    0.8740 C.3   344  GLC344      0.1777
      2  C2        18.9910   10.1660   -0.5110 C.3   344  GLC344      0.2141
      3  C3        18.2900    8.8020   -0.5040 C.3   344  GLC344      0.2173
      4  C4        19.3710    7.7450   -0.2280 C.3   344  GLC344      0.2142
      5  C5        20.0390    7.9700    1.1500 C.3   344  GLC344      0.1810
      6  C6        21.3540    7.2760    1.4270 C.3   344  GLC344      0.2141
      7  O2        17.9910   11.1700   -0.8010 O.3   344  GLC344     -0.2176
      8  O3        17.7690    8.4510   -1.8070 O.3   344  GLC344     -0.2175
      9  O4        18.8030    6.4730   -0.1840 O.3   344  GLC344     -0.2176
     10  O5        20.6590    9.3190    1.1140 O.3   344  GLC344     -0.3481
     11  O6        21.9350    7.5270    2.6710 O.3   344  GLC344     -0.2176
@<TRIPOS>BOND
     1     8     3    1
     2     7     2    1
     3     2     3    1
     4     2     1    1
     5     3     4    1
     6     4     9    1
     7     4     5    1
     8     1    10    1
     9    10     5    1
    10     5     6    1
    11     6    11    1
