@<TRIPOS>MOLECULE
1do8_NAD_A_1.pdb
 44 48 0 0 0
SMALL
GASTEIGER

@<TRIPOS>ATOM
      1  PA        13.4800   32.2080   31.1280 P.3   601  NAD601      0.2189
      2  O1A       14.5740   33.1960   31.1490 O.3   601  NAD601     -0.4371
      3  O2A       13.1750   31.5240   29.8510 O.2   601  NAD601     -0.5170
      4  O5B       12.1220   32.8860   31.6600 O.3   601  NAD601     -0.3112
      5  C5B       12.1300   33.7490   32.8180 C.3   601  NAD601      0.1813
      6  C4B       10.8380   34.5610   32.8150 C.3   601  NAD601      0.1821
      7  O4B       10.6750   35.2830   34.0880 O.3   601  NAD601     -0.3135
      8  C3B       10.8580   35.5940   31.7360 C.3   601  NAD601      0.2184
      9  O3B        9.5770   35.6350   31.0720 O.3   601  NAD601     -0.2174
     10  C2B       11.1120   36.9010   32.4420 C.3   601  NAD601      0.2570
     11  O2B       10.5620   38.0250   31.7160 O.3   601  NAD601     -0.2130
     12  C1B       10.4690   36.7020   33.7750 C.3   601  NAD601      0.3186
     13  N9A       11.0070   37.6070   34.8440 N.pl3 601  NAD601     -0.1439
     14  C8A       12.3250   37.9100   35.1200 C.3   601  NAD601      0.3377
     15  N7A       12.3590   38.7640   36.1650 N.2   601  NAD601     -0.2095
     16  C5A       11.1010   38.9430   36.4840 C.2   601  NAD601      0.2526
     17  C6A       10.7080   39.7620   37.5400 C.2   601  NAD601      0.4393
     18  N6A       11.5860   40.4330   38.2790 N.pl3 601  NAD601      0.2180
     19  N1A        9.3670   39.8440   37.7920 N.2   601  NAD601      0.0021
     20  C2A        8.4760   39.1520   37.0050 C.3   601  NAD601      0.5254
     21  N3A        8.9190   38.3570   35.9710 N.2   601  NAD601     -0.0055
     22  C4A       10.2570   38.2580   35.7190 C.2   601  NAD601      0.3518
     23  O3        13.7600   31.1290   32.2650 O.3   601  NAD601     -0.2703
     24  PN        13.1080   29.7510   32.6800 P.3   601  NAD601      0.2189
     25  O1N       13.7710   28.6940   31.8900 O.2   601  NAD601     -0.5170
     26  O2N       11.6440   29.8870   32.6020 O.3   601  NAD601     -0.4371
     27  O5D       13.5410   29.5970   34.2290 O.3   601  NAD601     -0.3112
     28  C5D       13.1590   30.5860   35.2070 C.3   601  NAD601      0.1813
     29  C4D       13.3070   30.0290   36.6200 C.3   601  NAD601      0.1799
     30  O4D       12.5860   28.7560   36.7280 O.3   601  NAD601     -0.3327
     31  C3D       14.7590   29.7410   36.9600 C.3   601  NAD601      0.2158
     32  O3D       15.1100   30.3380   38.2190 O.3   601  NAD601     -0.2175
     33  C2D       14.8590   28.2550   37.0760 C.3   601  NAD601      0.2309
     34  O2D       15.8000   27.8730   38.1080 O.3   601  NAD601     -0.2158
     35  C1D       13.4650   27.8190   37.3980 C.3   601  NAD601      0.2263
     36  N1N       13.1980   26.4120   36.9830 N.pl3 601  NAD601     -0.2787
     37  C2N       12.7640   25.4890   37.9780 C.3   601  NAD601      0.1244
     38  C3N       12.5820   24.1280   37.6500 C.2   601  NAD601      0.0544
     39  C7N       12.0440   23.1320   38.7050 C.2   601  NAD601      0.2818
     40  O7N       11.8940   21.9460   38.4270 O.2   601  NAD601     -0.2670
     41  N7N       11.7710   23.6440   39.9090 N.am  601  NAD601     -0.0839
     42  C4N       12.8410   23.6900   36.3080 C.2   601  NAD601      0.0033
     43  C5N       13.2610   24.6070   35.3080 C.2   601  NAD601      0.0157
     44  C6N       13.4420   25.9630   35.6340 C.2   601  NAD601      0.0633
@<TRIPOS>BOND
     1     3     1    2
     2     9     8    1
     3     1     2    1
     4     1     4    1
     5     1    23    1
     6     4     5    1
     7    11    10    1
     8     8    10    1
     9     8     6    1
    10    25    24    2
    11    23    24    1
    12    10    12    1
    13    26    24    1
    14    24    27    1
    15     6     5    1
    16     6     7    1
    17    12     7    1
    18    12    13    1
    19    27    28    1
    20    13    14    1
    21    13    22    1
    22    14    15    1
    23    28    29    1
    24    43    44    2
    25    43    42    1
    26    44    36    1
    27    22    21    2
    28    22    16    1
    29    21    20    1
    30    15    16    2
    31    42    38    2
    32    16    17    1
    33    29    30    1
    34    29    31    1
    35    30    35    1
    36    31    33    1
    37    31    32    1
    38    36    35    1
    39    36    37    1
    40    20    19    1
    41    33    35    1
    42    33    34    1
    43    17    19    2
    44    17    18    1
    45    38    37    1
    46    38    39    1
    47    40    39    2
    48    39    41   am
