@<TRIPOS>MOLECULE
1doa_GER_A_1.pdb
 20 19 0 0 0
SMALL
GASTEIGER

@<TRIPOS>ATOM
      1  C1        61.9110   15.8960   40.3630 C.3   952  GER952      0.0300
      2  C2        61.6870   14.3970   40.3040 C.2   952  GER952     -0.0342
      3  C3        61.7900   13.6120   41.3950 C.2   952  GER952     -0.0478
      4  C4        62.1450   14.3090   42.7000 C.3   952  GER952      0.0260
      5  C5        61.5550   12.0910   41.2860 C.3   952  GER952      0.0263
      6  C6        60.9970   11.3940   40.0500 C.3   952  GER952      0.0297
      7  C7        61.5070    9.9700   39.9290 C.2   952  GER952     -0.0342
      8  C8        61.8190    9.5000   38.7030 C.2   952  GER952     -0.0478
      9  C9        61.6160   10.4910   37.5550 C.3   952  GER952      0.0260
     10  C10       62.3290    8.0280   38.6360 C.3   952  GER952      0.0263
     11  C11       62.5040    7.2580   37.3220 C.3   952  GER952      0.0297
     12  C12       62.6750    5.7670   37.5370 C.2   952  GER952     -0.0342
     13  C13       62.8510    4.9100   36.5020 C.2   952  GER952     -0.0478
     14  C14       62.8740    5.5080   35.0960 C.3   952  GER952      0.0260
     15  C15       63.0290    3.4090   36.7540 C.3   952  GER952      0.0263
     16  C16       64.0260    2.5390   35.9920 C.3   952  GER952      0.0297
     17  C17       64.2670    1.2240   36.7030 C.2   952  GER952     -0.0342
     18  C18       64.1440    0.0700   36.0160 C.2   952  GER952     -0.0478
     19  C19       63.7580    0.2070   34.5390 C.3   952  GER952      0.0260
     20  C20       64.4120   -1.2130   36.8410 C.3   952  GER952      0.0260
@<TRIPOS>BOND
     1    19    18    1
     2    14    13    1
     3    16    17    1
     4    16    15    1
     5    18    17    2
     6    18    20    1
     7    13    15    1
     8    13    12    2
     9    11    12    1
    10    11    10    1
    11     9     8    1
    12    10     8    1
    13     8     7    2
    14     7     6    1
    15     6     5    1
    16     2     1    1
    17     2     3    2
    18     5     3    1
    19     3     4    1
