@<TRIPOS>MOLECULE
1doa_GDP_A_1.pdb
 28 30 0 0 0
SMALL
GASTEIGER

@<TRIPOS>ATOM
      1  PB        60.5070    9.9470   -5.7350 P.3   198  GDP198      0.5373
      2  O1B       60.5570   11.0190   -4.6950 O.3   198  GDP198     -0.1143
      3  O2B       61.5100    8.9660   -5.7600 O.2   198  GDP198     -0.2221
      4  O3B       58.9970    9.3000   -5.7330 O.3   198  GDP198     -0.1143
      5  O3A       60.7180   10.7020   -7.0880 O.3   198  GDP198     -0.2261
      6  PA        61.7840   10.4510   -8.3300 P.3   198  GDP198      0.2231
      7  O1A       63.1960   10.6300   -7.8760 O.3   198  GDP198     -0.4370
      8  O2A       61.4410    9.0750   -8.8820 O.2   198  GDP198     -0.5169
      9  O5'       61.3720   11.6660   -9.2200 O.3   198  GDP198     -0.3111
     10  C5'       60.1480   11.7050  -10.0140 C.3   198  GDP198      0.1813
     11  C4'       60.2900   12.2270  -11.3840 C.3   198  GDP198      0.1799
     12  O4'       61.1510   13.4600  -11.3980 O.3   198  GDP198     -0.3326
     13  C3'       61.0610   11.2920  -12.3920 C.3   198  GDP198      0.2158
     14  O3'       60.3580   11.4100  -13.6770 O.3   198  GDP198     -0.2175
     15  C2'       62.5070   11.8370  -12.5540 C.3   198  GDP198      0.2310
     16  O2'       63.2130   11.5950  -13.7810 O.3   198  GDP198     -0.2158
     17  C1'       62.3320   13.3570  -12.3160 C.3   198  GDP198      0.2293
     18  N9        63.4620   14.0100  -11.6420 N.pl3 198  GDP198     -0.2354
     19  C8        63.9850   13.3960  -10.3940 C.3   198  GDP198      0.2246
     20  N7        64.9660   14.3900  -10.2270 N.2   198  GDP198     -0.2322
     21  C5        65.0900   15.3940  -11.0900 C.2   198  GDP198      0.2182
     22  C6        65.8030   16.5640  -11.4200 C.1   198  GDP198      0.2372
     23  O6        66.7960   16.9150  -10.5780 O.2   198  GDP198     -0.2069
     24  N1        65.5520   17.3320  -12.4950 N.2   198  GDP198     -0.2485
     25  C2        64.4410   16.9090  -13.4020 C.1   198  GDP198      0.2531
     26  N2        64.3570   17.7840  -14.3870 N.pl3 198  GDP198     -0.0226
     27  N3        63.7740   15.8670  -13.1500 N.2   198  GDP198     -0.3074
     28  C4        64.0610   15.1400  -12.0720 C.2   198  GDP198      0.2300
@<TRIPOS>BOND
     1    26    25    1
     2    16    15    1
     3    14    13    1
     4    25    27    2
     5    25    24    2
     6    27    28    2
     7    15    13    1
     8    15    17    1
     9    24    22    2
    10    13    11    1
    11    17    18    1
    12    17    12    1
    13    28    18    1
    14    28    21    1
    15    18    19    1
    16    22    21    1
    17    22    23    2
    18    12    11    1
    19    11    10    1
    20    21    20    2
    21    19    20    1
    22    10     9    1
    23     9     6    1
    24     8     6    2
    25     6     7    1
    26     6     5    1
    27     5     1    1
    28     3     1    2
    29     1     4    1
    30     1     2    1
