@<TRIPOS>MOLECULE
1dod_DOB_A_1.pdb
 11 11 0 0 0
SMALL
GASTEIGER

@<TRIPOS>ATOM
      1  C1'       17.2050   96.8430   45.6760 C.2   396  DOB396      0.3909
      2  O1'       18.0140   97.5190   46.2940 O.co2 396  DOB396     -0.2404
      3  O2'       16.2280   97.4500   45.2610 O.co2 396  DOB396     -0.2404
      4  C1        17.3260   95.4470   45.5460 C.ar  396  DOB396      0.1188
      5  C2        18.3740   94.7420   46.0980 C.ar  396  DOB396      0.2052
      6  C3        18.4170   93.3410   46.1690 C.ar  396  DOB396      0.0842
      7  C4        17.3510   92.6310   45.6570 C.ar  396  DOB396      0.1989
      8  C5        16.2590   93.2740   45.0900 C.ar  396  DOB396      0.0425
      9  C6        16.2650   94.6880   45.0390 C.ar  396  DOB396      0.0131
     10  O2        19.4130   95.3830   46.6800 O.3   396  DOB396     -0.2862
     11  O4        17.4080   91.2960   45.5500 O.3   396  DOB396     -0.2865
@<TRIPOS>BOND
     1     9     8   ar
     2     9     4   ar
     3     8     7   ar
     4     3     1   ar
     5     4     1    1
     6     4     5   ar
     7    11     7    1
     8     7     6   ar
     9     1     2   ar
    10     5     6   ar
    11     5    10    1
