@<TRIPOS>MOLECULE
1doe_DOB_A_1.pdb
 11 11 0 0 0
SMALL
GASTEIGER

@<TRIPOS>ATOM
      1  C1'       17.2820   96.7350   45.7460 C.2   396  DOB396      0.3909
      2  O1'       18.1870   97.3990   46.2440 O.co2 396  DOB396     -0.2404
      3  O2'       16.3060   97.3560   45.3810 O.co2 396  DOB396     -0.2404
      4  C1        17.3190   95.3490   45.6680 C.ar  396  DOB396      0.1188
      5  C2        18.3720   94.6060   46.1770 C.ar  396  DOB396      0.2052
      6  C3        18.3790   93.2090   46.1110 C.ar  396  DOB396      0.0842
      7  C4        17.3180   92.5200   45.5490 C.ar  396  DOB396      0.1989
      8  C5        16.2320   93.2030   45.0190 C.ar  396  DOB396      0.0425
      9  C6        16.2580   94.6110   45.0870 C.ar  396  DOB396      0.0131
     10  O2        19.4210   95.1900   46.8410 O.3   396  DOB396     -0.2862
     11  O4        17.3290   91.1730   45.5430 O.3   396  DOB396     -0.2865
@<TRIPOS>BOND
     1     8     9   ar
     2     8     7   ar
     3     9     4   ar
     4     3     1   ar
     5    11     7    1
     6     7     6   ar
     7     4     1    1
     8     4     5   ar
     9     1     2   ar
    10     6     5   ar
    11     5    10    1
