@<TRIPOS>MOLECULE
1dog_MAN_A_10.pdb
 11 11 0 0 0
SMALL
GASTEIGER

@<TRIPOS>ATOM
      1  C1        30.4520   -4.8840   25.0410 C.3   489  MAN489      0.1777
      2  C2        29.1410   -4.0740   24.9860 C.3   489  MAN489      0.2141
      3  C3        28.4610   -4.1190   26.3500 C.3   489  MAN489      0.2173
      4  C4        28.2620   -5.5580   26.8000 C.3   489  MAN489      0.2142
      5  C5        29.5900   -6.3020   26.7880 C.3   489  MAN489      0.1810
      6  C6        29.5330   -7.7390   27.1960 C.3   489  MAN489      0.2141
      7  O2        28.2580   -4.7000   24.0430 O.3   489  MAN489     -0.2176
      8  O3        27.1600   -3.5320   26.2160 O.3   489  MAN489     -0.2175
      9  O4        27.7260   -5.6040   28.1130 O.3   489  MAN489     -0.2176
     10  O5        30.1210   -6.2320   25.4270 O.3   489  MAN489     -0.3481
     11  O6        28.9900   -8.5920   26.1850 O.3   489  MAN489     -0.2176
@<TRIPOS>BOND
     1     7     2    1
     2     2     1    1
     3     2     3    1
     4     1    10    1
     5    10     5    1
     6    11     6    1
     7     8     3    1
     8     3     4    1
     9     5     4    1
    10     5     6    1
    11     4     9    1
