@<TRIPOS>MOLECULE
1dog_NOJ_A_1.pdb
 11 11 0 0 0
SMALL
GASTEIGER

@<TRIPOS>ATOM
      1  C1        32.8610   20.6210    8.1740 C.3   495  NOJ495      0.1243
      2  C2        34.1240   20.2220    8.9950 C.3   495  NOJ495      0.2020
      3  O2        35.0740   19.4390    8.2150 O.3   495  NOJ495     -0.2188
      4  C3        33.7180   19.3820   10.2060 C.3   495  NOJ495      0.2151
      5  O3        34.8280   19.1660   11.0930 O.3   495  NOJ495     -0.2176
      6  C4        32.6330   20.0990   11.0250 C.3   495  NOJ495      0.2031
      7  O4        32.1880   19.2420   12.1160 O.3   495  NOJ495     -0.2187
      8  C5        31.4400   20.5010   10.1490 C.3   495  NOJ495      0.1386
      9  N5        31.8570   21.1760    8.9670 N.3   495  NOJ495     -0.2113
     10  C6        30.4510   21.4020   10.9210 C.3   495  NOJ495      0.2020
     11  O6        31.0260   22.5860   11.4920 O.3   495  NOJ495     -0.2188
@<TRIPOS>BOND
     1     1     9    1
     2     1     2    1
     3     3     2    1
     4     9     8    1
     5     2     4    1
     6     8    10    1
     7     8     6    1
     8     4     6    1
     9     4     5    1
    10    10    11    1
    11     6     7    1
