@<TRIPOS>MOLECULE
1doh_NDP_A_1.pdb
 48 52 0 0 0
SMALL
GASTEIGER

@<TRIPOS>ATOM
      1  PA        91.5570   75.4490   -6.7850 P.3   500  NDP500      0.2189
      2  O1A       92.3600   76.6790   -6.5820 O.3   500  NDP500     -0.4371
      3  O2A       91.4020   74.8320   -8.1210 O.2   500  NDP500     -0.5170
      4  O5B       90.0890   75.6840   -6.1260 O.3   500  NDP500     -0.3112
      5  C5B       89.9500   75.4010   -4.7280 C.3   500  NDP500      0.1813
      6  C4B       88.5640   75.6010   -4.1410 C.3   500  NDP500      0.1820
      7  O4B       88.6600   76.4460   -2.9890 O.3   500  NDP500     -0.3136
      8  C3B       87.5950   76.2280   -5.1170 C.3   500  NDP500      0.2157
      9  O3B       86.3880   75.4670   -5.2670 O.3   500  NDP500     -0.2175
     10  C2B       87.1770   77.5000   -4.4360 C.3   500  NDP500      0.2314
     11  O2B       85.7770   77.7940   -4.7310 O.3   500  NDP500     -0.2630
     12  C1B       87.4200   77.1470   -2.9940 C.3   500  NDP500      0.3158
     13  N9A       87.3150   78.3690   -2.1280 N.pl3 500  NDP500     -0.1439
     14  C8A       88.1900   79.3950   -2.1650 C.3   500  NDP500      0.3377
     15  N7A       87.8620   80.3140   -1.2720 N.2   500  NDP500     -0.2095
     16  C5A       86.7800   79.8540   -0.6780 C.2   500  NDP500      0.2526
     17  C6A       86.0820   80.5000    0.3460 C.2   500  NDP500      0.4393
     18  N6A       86.4560   81.6890    0.8330 N.pl3 500  NDP500      0.2180
     19  N1A       84.9820   79.8410    0.8290 N.2   500  NDP500      0.0021
     20  C2A       84.6020   78.6410    0.3430 C.3   500  NDP500      0.5254
     21  N3A       85.2920   78.0290   -0.6520 N.2   500  NDP500     -0.0055
     22  C4A       86.3930   78.6220   -1.1860 C.2   500  NDP500      0.3518
     23  O3        92.1120   74.3210   -5.7570 O.3   500  NDP500     -0.2703
     24  PN        92.5070   72.7540   -5.7430 P.3   500  NDP500      0.2189
     25  O1N       91.2900   72.0270   -6.1530 O.3   500  NDP500     -0.4371
     26  O2N       93.7530   72.5700   -6.4820 O.2   500  NDP500     -0.5170
     27  O5D       92.7930   72.4640   -4.2090 O.3   500  NDP500     -0.3112
     28  C5D       91.7380   72.3570   -3.2710 C.3   500  NDP500      0.1813
     29  C4D       92.2850   72.0410   -1.8850 C.3   500  NDP500      0.1799
     30  O4D       93.3300   71.0320   -1.9300 O.3   500  NDP500     -0.3327
     31  C3D       92.9110   73.2500   -1.2410 C.3   500  NDP500      0.2158
     32  O3D       92.5670   73.3220    0.1460 O.3   500  NDP500     -0.2175
     33  C2D       94.4140   73.0860   -1.4800 C.3   500  NDP500      0.2309
     34  O2D       95.2620   73.8420   -0.5900 O.3   500  NDP500     -0.2158
     35  C1D       94.5370   71.5830   -1.3390 C.3   500  NDP500      0.2263
     36  N1N       95.6960   71.0210   -2.0590 N.pl3 500  NDP500     -0.2787
     37  C2N       95.8890   71.1940   -3.4450 C.3   500  NDP500      0.1244
     38  C3N       96.9880   70.6240   -4.0780 C.2   500  NDP500      0.0544
     39  C7N       97.2630   70.7620   -5.5580 C.2   500  NDP500      0.2818
     40  O7N       98.3200   70.3730   -5.9980 O.2   500  NDP500     -0.2670
     41  N7N       96.3290   71.2950   -6.3300 N.am  500  NDP500     -0.0839
     42  C4N       97.8970   69.8770   -3.3280 C.2   500  NDP500      0.0033
     43  C5N       97.7280   69.6910   -1.9460 C.2   500  NDP500      0.0157
     44  C6N       96.6170   70.2650   -1.3000 C.2   500  NDP500      0.0633
     45  P2B       85.3220   79.1230   -5.4930 P.3   500  NDP500      0.5328
     46  O1X       85.3820   78.8960   -6.9580 O.2   500  NDP500     -0.2224
     47  O2X       86.1610   80.2610   -5.0690 O.3   500  NDP500     -0.1145
     48  O3X       83.9070   79.4030   -5.1520 O.3   500  NDP500     -0.1145
@<TRIPOS>BOND
     1     3     1    2
     2    46    45    2
     3     1     2    1
     4     1     4    1
     5     1    23    1
     6    26    24    2
     7    41    39   am
     8    25    24    1
     9     4     5    1
    10    40    39    2
    11    23    24    1
    12    24    27    1
    13    39    38    1
    14    45    48    1
    15    45    47    1
    16    45    11    1
    17     9     8    1
    18     8    10    1
    19     8     6    1
    20    11    10    1
    21     5     6    1
    22    10    12    1
    23    27    28    1
    24     6     7    1
    25    38    37    1
    26    38    42    2
    27    37    36    1
    28    42    43    1
    29    28    29    1
    30    12     7    1
    31    12    13    1
    32    14    13    1
    33    14    15    1
    34    13    22    1
    35    36    35    1
    36    36    44    1
    37    43    44    2
    38    30    29    1
    39    30    35    1
    40    29    31    1
    41    33    35    1
    42    33    31    1
    43    33    34    1
    44    15    16    2
    45    31    32    1
    46    22    16    1
    47    22    21    2
    48    16    17    1
    49    21    20    1
    50    20    19    1
    51    17    19    2
    52    17    18    1
