@<TRIPOS>MOLECULE
1doh_NID_A_1.pdb
 13 14 0 0 0
SMALL
GASTEIGER

@<TRIPOS>ATOM
      1  C2       101.9760   71.8850   -6.2360 C.ar  502  NID502      0.1429
      2  C7       101.1310   72.2900   -5.1990 C.ar  502  NID502      0.0256
      3  C1        99.9970   73.2970   -5.1660 C.2   502  NID502      0.0050
      4  C9        99.4670   73.3590   -3.9360 C.2   502  NID502      0.0421
      5  C8       100.2160   72.4050   -3.0970 C.2   502  NID502      0.1957
      6  O1       100.0200   72.1880   -1.9140 O.2   502  NID502     -0.2866
      7  C6       101.2660   71.7420   -3.9370 C.ar  502  NID502      0.0406
      8  C5       102.2370   70.7740   -3.6380 C.ar  502  NID502      0.0033
      9  C4       103.0990   70.3440   -4.6670 C.ar  502  NID502      0.0018
     10  C3       102.9560   70.9040   -5.9490 C.ar  502  NID502      0.0241
     11  N        101.8610   72.4200   -7.4760 N.pl3 502  NID502      0.0577
     12  ON1      102.5960   72.0620   -8.3680 O.2   502  NID502     -0.1261
     13  ON2      101.0240   73.2690   -7.6990 O.2   502  NID502     -0.1261
@<TRIPOS>BOND
     1    12    11    2
     2    13    11    2
     3    11     1    1
     4     1    10   ar
     5     1     2   ar
     6    10     9   ar
     7     2     3    1
     8     2     7   ar
     9     3     4    2
    10     9     8   ar
    11     7     8   ar
    12     7     5    1
    13     4     5    1
    14     5     6    2
