@<TRIPOS>MOLECULE
1doj_1Z0_A_1.pdb
 42 45 0 0 0
SMALL
GASTEIGER

@<TRIPOS>ATOM
      1  N          9.8060   25.3970   -8.5820 N.3   401  1Z0401     -0.2084
      2  C3        10.9020   26.3160   -8.1460 C.3   401  1Z0401      0.1533
      3  C         11.4970   25.8040   -6.8370 C.2   401  1Z0401      0.2421
      4  O         11.8400   24.6260   -6.7230 O.2   401  1Z0401     -0.2733
      5  C'        11.9810   26.3700   -9.2310 C.3   401  1Z0401      0.0530
      6  C1'       12.9500   27.5190   -9.0370 C.ar  401  1Z0401     -0.0203
      7  C2'       12.4810   28.8260   -9.0200 C.ar  401  1Z0401     -0.0042
      8  C6'       14.3040   27.2650   -8.8800 C.ar  401  1Z0401     -0.0042
      9  C3'       13.3790   29.8780   -8.8450 C.ar  401  1Z0401     -0.0003
     10  C5'       15.1900   28.3250   -8.7050 C.ar  401  1Z0401     -0.0003
     11  C4'       14.7260   29.6280   -8.6880 C.ar  401  1Z0401     -0.0000
     12  C1         9.2080   25.9000   -9.8540 C.3   401  1Z0401      0.1080
     13  N1        11.6410   26.6880   -5.8340 N.am  401  1Z0401     -0.2718
     14  CA        12.1980   26.2640   -4.5430 C.3   401  1Z0401      0.1535
     15  C2        11.3190   25.1920   -3.9100 C.2   401  1Z0401      0.2595
     16  O1        10.0970   25.2250   -4.0440 O.2   401  1Z0401     -0.2716
     17  CB        12.2130   27.5460   -3.7080 C.3   401  1Z0401      0.0310
     18  CG        12.1150   28.6570   -4.6980 C.3   401  1Z0401      0.0237
     19  CD        11.3150   28.1250   -5.8470 C.3   401  1Z0401      0.0939
     20  N2        11.9440   24.2430   -3.2240 N.am  401  1Z0401     -0.2027
     21  CA1       11.2070   23.1720   -2.5740 C.3   401  1Z0401      0.1332
     22  CB1       11.7770   21.8170   -2.9930 C.3   401  1Z0401      0.0284
     23  CG1       11.3090   21.4110   -4.3760 C.3   401  1Z0401      0.0488
     24  CD1       12.1300   20.2820   -4.9720 C.3   401  1Z0401      0.2205
     25  NE        11.4600   19.7380   -6.1480 N.pl3 401  1Z0401     -0.0865
     26  CZ        11.7870   18.5980   -6.7450 C.cat 401  1Z0401      0.5346
     27  NH1       12.7890   17.8600   -6.2820 N.pl3 401  1Z0401      0.1354
     28  NH2       11.1010   18.1940   -7.8010 N.pl3 401  1Z0401      0.1354
     29  N5        11.0870   25.6900   -0.1830 N.2   401  1Z0401     -0.4006
     30  S5         8.7900   24.6430   -0.6100 S.3   401  1Z0401     -0.0734
     31  C5        10.4860   24.5400   -0.6150 C.2   401  1Z0401      0.1666
     32  C61       10.2150   26.6720    0.1570 C.2   401  1Z0401      0.1234
     33  C62        8.8440   26.2860   -0.0110 C.3   401  1Z0401      0.1282
     34  C63        7.8240   27.1730    0.2940 C.2   401  1Z0401     -0.0016
     35  C64        8.1250   28.4420    0.7640 C.2   401  1Z0401      0.0768
     36  C65        9.4520   28.8430    0.9360 C.2   401  1Z0401      0.0086
     37  C66       10.4900   27.9550    0.6300 C.2   401  1Z0401      0.0290
     38  C11        7.0990   29.2950    1.1230 C.2   401  1Z0401      0.3875
     39  O11        7.3430   30.2350    1.9090 O.co2 401  1Z0401     -0.2406
     40  O2         5.9420   29.0480    0.7230 O.co2 401  1Z0401     -0.2406
     41  O3        10.5460   22.2290   -0.4730 O.3   401  1Z0401     -0.2130
     42  C4        11.2510   23.3080   -1.0710 C.3   401  1Z0401      0.2291
@<TRIPOS>BOND
     1    12     1    1
     2     5     6    1
     3     5     2    1
     4     6     7   ar
     5     6     8   ar
     6     7     9   ar
     7     8    10   ar
     8     9    11   ar
     9    10    11   ar
    10     1     2    1
    11     2     3    1
    12    28    26    1
    13     3     4    2
    14     3    13   am
    15    26    27    1
    16    26    25    2
    17    25    24    1
    18    19    13    1
    19    19    18    1
    20    13    14    1
    21    24    23    1
    22    18    17    1
    23    14    15    1
    24    14    17    1
    25    23    22    1
    26    16    15    2
    27    15    20   am
    28    20    21    1
    29    22    21    1
    30    21    42    1
    31    42    31    1
    32    42    41    1
    33    31    30    1
    34    31    29    2
    35    30    33    1
    36    29    32    2
    37    33    32    1
    38    33    34    1
    39    32    37    1
    40    34    35    2
    41    37    36    2
    42    40    38   ar
    43    35    36    1
    44    35    38    1
    45    38    39   ar
