@<TRIPOS>MOLECULE
1dor_FMN_A_1.pdb
 31 33 0 0 0
SMALL
GASTEIGER

@<TRIPOS>ATOM
      1  N1         3.9580   47.8620   17.7940 N.2   312  FMN312     -0.2887
      2  C2         4.9060   48.7360   18.2420 C.1   312  FMN312      0.3669
      3  O2         5.4460   48.6360   19.3260 O.2   312  FMN312     -0.1744
      4  N3         5.2420   49.7530   17.3500 N.2   312  FMN312     -0.2300
      5  C4         4.6570   49.9970   16.1150 C.1   312  FMN312      0.2513
      6  O4         5.0140   51.0130   15.4970 O.2   312  FMN312     -0.2057
      7  C4A        3.6860   48.9780   15.7540 C.2   312  FMN312      0.2703
      8  N5         3.0620   49.1770   14.5430 N.2   312  FMN312     -0.3882
      9  C5A        2.0420   48.3390   14.1690 C.2   312  FMN312      0.1277
     10  C6         1.3990   48.6180   13.0110 C.3   312  FMN312      0.0820
     11  C7         0.2830   47.8570   12.7010 C.2   312  FMN312     -0.0408
     12  C7M       -0.5560   48.1320   11.3910 C.3   312  FMN312      0.0265
     13  C8        -0.1460   46.8330   13.5610 C.2   312  FMN312     -0.0280
     14  C8M       -1.4920   46.1470   13.2960 C.3   312  FMN312      0.0304
     15  C9         0.5320   46.5390   14.6950 C.2   312  FMN312      0.0123
     16  C9A        1.6200   47.2910   15.0230 C.2   312  FMN312      0.0793
     17  N10        2.3030   47.0650   16.2350 N.pl3 312  FMN312     -0.2545
     18  C10        3.3170   47.8980   16.5970 C.2   312  FMN312      0.2449
     19  C1'        2.0210   45.9910   17.0230 C.3   312  FMN312      0.1336
     20  C2'        1.0530   46.3720   18.1620 C.3   312  FMN312      0.2048
     21  O2'        1.1850   47.6050   18.8530 O.3   312  FMN312     -0.2185
     22  C3'        0.4240   45.2340   18.9450 C.3   312  FMN312      0.2165
     23  O3'        1.5450   44.8640   19.7630 O.3   312  FMN312     -0.2175
     24  C4'       -0.1530   44.1200   17.9800 C.3   312  FMN312      0.2147
     25  O4'       -0.8730   44.5240   16.8240 O.3   312  FMN312     -0.2176
     26  C5'       -0.8000   43.0320   18.8190 C.3   312  FMN312      0.1892
     27  O5'       -2.1110   43.5670   19.2080 O.3   312  FMN312     -0.2674
     28  P         -3.4980   43.3420   18.4420 P.3   312  FMN312      0.5327
     29  O1P       -3.7450   41.8730   18.5760 O.3   312  FMN312     -0.1145
     30  O2P       -3.1950   43.7970   17.0340 O.2   312  FMN312     -0.2224
     31  O3P       -4.5590   44.1300   19.1220 O.3   312  FMN312     -0.1145
@<TRIPOS>BOND
     1    12    11    1
     2    11    10    1
     3    11    13    2
     4    10     9    1
     5    14    13    1
     6    13    15    1
     7     9     8    2
     8     9    16    1
     9     8     7    2
    10    15    16    2
    11    16    17    1
    12     6     5    2
    13     7     5    1
    14     7    18    1
    15     5     4    2
    16    17    18    1
    17    17    19    1
    18    18     1    2
    19    25    24    1
    20    19    20    1
    21    30    28    2
    22     4     2    2
    23     1     2    2
    24    24    26    1
    25    24    22    1
    26    20    21    1
    27    20    22    1
    28     2     3    2
    29    28    29    1
    30    28    31    1
    31    28    27    1
    32    26    27    1
    33    22    23    1
