@<TRIPOS>MOLECULE
1dp2_LPB_A_1.pdb
 12 12 0 0 0
SMALL
GASTEIGER

@<TRIPOS>ATOM
      1  O1        42.0910   11.3360   36.0580 O.co2 900  LPB900     -0.2457
      2  O2        42.0720   12.9790   37.4180 O.co2 900  LPB900     -0.2457
      3  C1        41.7700   12.4800   36.3390 C.2   900  LPB900      0.3649
      4  C2        40.9710   13.2580   35.3040 C.3   900  LPB900      0.1141
      5  C3        41.4630   14.6270   34.8920 C.3   900  LPB900      0.0118
      6  C4        41.0230   15.6440   35.9170 C.3   900  LPB900      0.0015
      7  C5        42.0360   16.7530   35.8630 C.3   900  LPB900      0.0117
      8  C6        42.4540   17.2880   37.2200 C.3   900  LPB900      0.0588
      9  C7        42.6590   16.1710   38.2560 C.3   900  LPB900      0.0242
     10  C8        44.0830   15.9560   38.7530 C.3   900  LPB900      0.0696
     11  S8        45.2810   16.8850   37.7640 S.3   900  LPB900     -0.0821
     12  S6        43.9930   18.1940   36.9490 S.3   900  LPB900     -0.0830
@<TRIPOS>BOND
     1     5     4    1
     2     5     6    1
     3     4     3    1
     4     7     6    1
     5     7     8    1
     6     1     3   ar
     7     3     2   ar
     8    12     8    1
     9    12    11    1
    10     8     9    1
    11    11    10    1
    12     9    10    1
