@<TRIPOS>MOLECULE
1dp6_HEM_A_1.pdb
 43 50 0 0 0
SMALL
GASTEIGER

@<TRIPOS>ATOM
      1 FE         48.0180   55.9190   33.7780 Fe    719  HEM719      0.0000
      2  CHA       44.9500   54.8420   32.8870 C.2   719  HEM719      0.0000
      3  CHB       49.2950   54.6430   30.9880 C.2   719  HEM719      0.0000
      4  CHC       51.2400   56.5500   34.9200 C.2   719  HEM719      0.0000
      5  CHD       46.7960   57.2680   36.5510 C.2   719  HEM719      0.0000
      6  NA        47.2740   54.9380   32.2100 N.ar  719  HEM719      0.0000
      7  C1A       45.9580   54.5780   32.0150 C.ar  719  HEM719      0.0000
      8  C2A       45.8480   53.8510   30.7660 C.ar  719  HEM719      0.0000
      9  C3A       47.0650   53.7850   30.2590 C.ar  719  HEM719      0.0000
     10  C4A       47.9740   54.4860   31.1450 C.ar  719  HEM719      0.0000
     11  CMA       47.5160   53.0710   28.9720 C.3   719  HEM719      0.0000
     12  CAA       44.5570   53.0940   30.3090 C.3   719  HEM719      0.0000
     13  CBA       44.6440   51.5990   30.6310 C.3   719  HEM719      0.0000
     14  CGA       43.4860   50.7580   30.1140 C.2   719  HEM719      0.0000
     15  O1A       43.6110   49.5160   30.1010 O.co2 719  HEM719      0.0000
     16  O2A       42.4740   51.4240   29.6950 O.co2 719  HEM719      0.0000
     17  NB        49.8880   55.7220   33.0990 N.2   719  HEM719      0.0000
     18  C1B       50.1870   55.1520   31.8630 C.2   719  HEM719      0.0000
     19  C2B       51.5610   55.1930   31.6340 C.2   719  HEM719      0.0000
     20  C3B       52.1370   55.7490   32.7280 C.2   719  HEM719      0.0000
     21  C4B       51.0880   56.1160   33.6330 C.2   719  HEM719      0.0000
     22  CMB       52.2780   54.5580   30.4210 C.3   719  HEM719      0.0000
     23  CAB       53.6510   55.8930   32.9840 C.3   719  HEM719      0.0000
     24  CBB       54.1500   57.1880   33.6780 C.3   719  HEM719      0.0000
     25  NC        48.8370   56.7620   35.3920 N.ar  719  HEM719      0.0000
     26  C1C       50.1670   56.8750   35.7060 C.ar  719  HEM719      0.0000
     27  C2C       50.3070   57.3740   37.0170 C.ar  719  HEM719      0.0000
     28  C3C       49.0410   57.5620   37.5110 C.ar  719  HEM719      0.0000
     29  C4C       48.1570   57.2090   36.4850 C.ar  719  HEM719      0.0000
     30  CMC       51.7030   57.6050   37.6350 C.3   719  HEM719      0.0000
     31  CAC       48.4930   57.8470   38.9350 C.3   719  HEM719      0.0000
     32  CBC       49.3870   58.5520   39.8910 C.3   719  HEM719      0.0000
     33  ND        46.2650   56.0810   34.5240 N.2   719  HEM719      0.0000
     34  C1D       45.9080   56.7220   35.7090 C.2   719  HEM719      0.0000
     35  C2D       44.4810   56.6620   35.8990 C.2   719  HEM719      0.0000
     36  C3D       43.9780   56.0040   34.8430 C.2   719  HEM719      0.0000
     37  C4D       45.0720   55.6390   34.0000 C.2   719  HEM719      0.0000
     38  CMD       43.7410   57.3030   37.0950 C.3   719  HEM719      0.0000
     39  CAD       42.5850   55.4860   34.5800 C.3   719  HEM719      0.0000
     40  CBD       42.4950   54.0160   35.0130 C.3   719  HEM719      0.0000
     41  CGD       41.4500   53.1940   34.4820 C.2   719  HEM719      0.0000
     42  O1D       41.0060   52.2150   35.1370 O.co2 719  HEM719      0.0000
     43  O2D       41.0780   53.5030   33.3130 O.co2 719  HEM719      0.0000
@<TRIPOS>BOND
     1    11     9    1
     2    16    14   ar
     3    15    14   ar
     4    14    13    1
     5     9     8   ar
     6     9    10   ar
     7    12    13    1
     8    12     8    1
     9    22    19    1
    10     8     7   ar
    11     3    10    2
    12     3    18    1
    13    10     6   ar
    14    19    18    1
    15    19    20    2
    16    18    17    2
    17     7     6   ar
    18     7     2    2
    19     6     1    1
    20    20    23    1
    21    20    21    1
    22     2    37    1
    23    23    24    1
    24    17    21    1
    25    17     1    1
    26    43    41   ar
    27    21     4    2
    28     1    33    1
    29     1    25    1
    30    37    33    2
    31    37    36    1
    32    41    40    1
    33    41    42   ar
    34    33    34    1
    35    39    36    1
    36    39    40    1
    37    36    35    2
    38     4    26    1
    39    25    26   ar
    40    25    29   ar
    41    26    27   ar
    42    34    35    1
    43    34     5    2
    44    35    38    1
    45    29     5    1
    46    29    28   ar
    47    27    28   ar
    48    27    30    1
    49    28    31    1
    50    31    32    1
