@<TRIPOS>MOLECULE
1dp8_HEM_A_1.pdb
 43 50 0 0 0
SMALL
GASTEIGER

@<TRIPOS>ATOM
      1 FE         48.1150   55.6000   33.6530 Fe    719  HEM719      0.0000
      2  CHA       45.1520   54.3060   32.7440 C.2   719  HEM719      0.0000
      3  CHB       49.5260   54.3360   30.8490 C.2   719  HEM719      0.0000
      4  CHC       51.2210   56.5060   34.8240 C.2   719  HEM719      0.0000
      5  CHD       46.7240   57.0380   36.4300 C.2   719  HEM719      0.0000
      6  NA        47.4530   54.5330   32.0570 N.ar  719  HEM719      0.0000
      7  C1A       46.1700   54.0930   31.8650 C.ar  719  HEM719      0.0000
      8  C2A       46.1010   53.3130   30.6580 C.ar  719  HEM719      0.0000
      9  C3A       47.3550   53.2460   30.1510 C.ar  719  HEM719      0.0000
     10  C4A       48.1990   54.0770   31.0000 C.ar  719  HEM719      0.0000
     11  CMA       47.8590   52.4450   28.9260 C.3   719  HEM719      0.0000
     12  CAA       44.8510   52.5190   30.3040 C.3   719  HEM719      0.0000
     13  CBA       44.8640   51.9020   28.9210 C.3   719  HEM719      0.0000
     14  CGA       43.9290   50.7270   28.8910 C.2   719  HEM719      0.0000
     15  O1A       44.2970   49.6900   29.4290 O.co2 719  HEM719      0.0000
     16  O2A       42.7440   50.9940   28.5090 O.co2 719  HEM719      0.0000
     17  NB        50.0000   55.4760   32.9720 N.2   719  HEM719      0.0000
     18  C1B       50.3640   54.9000   31.7520 C.2   719  HEM719      0.0000
     19  C2B       51.7630   55.1180   31.5270 C.2   719  HEM719      0.0000
     20  C3B       52.2840   55.7230   32.6330 C.2   719  HEM719      0.0000
     21  C4B       51.1720   55.9940   33.5310 C.2   719  HEM719      0.0000
     22  CMB       52.5100   54.7000   30.2990 C.3   719  HEM719      0.0000
     23  CAB       53.7550   56.0990   32.8150 C.3   719  HEM719      0.0000
     24  CBB       54.0620   57.1520   33.8750 C.3   719  HEM719      0.0000
     25  NC        48.8030   56.5960   35.2800 N.ar  719  HEM719      0.0000
     26  C1C       50.1080   56.8250   35.5990 C.ar  719  HEM719      0.0000
     27  C2C       50.1960   57.4470   36.9190 C.ar  719  HEM719      0.0000
     28  C3C       48.9440   57.5810   37.3840 C.ar  719  HEM719      0.0000
     29  C4C       48.0870   57.0430   36.3750 C.ar  719  HEM719      0.0000
     30  CMC       51.5360   57.7840   37.5720 C.3   719  HEM719      0.0000
     31  CAC       48.4130   57.9370   38.7760 C.3   719  HEM719      0.0000
     32  CBC       49.3850   58.6980   39.6870 C.3   719  HEM719      0.0000
     33  ND        46.3240   55.7420   34.3530 N.2   719  HEM719      0.0000
     34  C1D       45.8880   56.4110   35.5180 C.2   719  HEM719      0.0000
     35  C2D       44.4970   56.2250   35.6690 C.2   719  HEM719      0.0000
     36  C3D       44.0900   55.5120   34.5970 C.2   719  HEM719      0.0000
     37  C4D       45.1920   55.1970   33.8220 C.2   719  HEM719      0.0000
     38  CMD       43.6660   56.7900   36.8020 C.3   719  HEM719      0.0000
     39  CAD       42.7890   54.8600   34.3570 C.3   719  HEM719      0.0000
     40  CBD       42.5530   53.7670   35.3850 C.3   719  HEM719      0.0000
     41  CGD       42.2500   52.4460   34.8080 C.2   719  HEM719      0.0000
     42  O1D       42.3500   51.4640   35.5660 O.co2 719  HEM719      0.0000
     43  O2D       42.0800   52.4130   33.5280 O.co2 719  HEM719      0.0000
@<TRIPOS>BOND
     1    16    14   ar
     2    14    13    1
     3    14    15   ar
     4    13    12    1
     5    11     9    1
     6     9     8   ar
     7     9    10   ar
     8    22    19    1
     9    12     8    1
    10     8     7   ar
    11     3    10    2
    12     3    18    1
    13    10     6   ar
    14    19    18    1
    15    19    20    2
    16    18    17    2
    17     7     6   ar
    18     7     2    2
    19     6     1    1
    20    20    23    1
    21    20    21    1
    22     2    37    1
    23    23    24    1
    24    17    21    1
    25    17     1    1
    26    43    41   ar
    27    21     4    2
    28     1    33    1
    29     1    25    1
    30    37    33    2
    31    37    36    1
    32    33    34    1
    33    39    36    1
    34    39    40    1
    35    36    35    2
    36    41    40    1
    37    41    42   ar
    38     4    26    1
    39    25    26   ar
    40    25    29   ar
    41    34    35    1
    42    34     5    2
    43    26    27   ar
    44    35    38    1
    45    29     5    1
    46    29    28   ar
    47    27    28   ar
    48    27    30    1
    49    28    31    1
    50    31    32    1
