@<TRIPOS>MOLECULE
1dp9_HEM_A_1.pdb
 43 50 0 0 0
SMALL
GASTEIGER

@<TRIPOS>ATOM
      1 FE         47.5520   55.1560   33.6850 Fe    719  HEM719      0.0000
      2  CHA       44.4960   54.2200   32.7770 C.2   719  HEM719      0.0000
      3  CHB       48.8220   53.9490   30.7770 C.2   719  HEM719      0.0000
      4  CHC       50.6760   55.9760   34.7280 C.2   719  HEM719      0.0000
      5  CHD       46.3720   56.3260   36.7590 C.2   719  HEM719      0.0000
      6  NA        46.7920   54.2300   32.0750 N.ar  719  HEM719      0.0000
      7  C1A       45.4990   53.9200   31.8730 C.ar  719  HEM719      0.0000
      8  C2A       45.3520   53.2130   30.5750 C.ar  719  HEM719      0.0000
      9  C3A       46.5760   53.1270   30.0480 C.ar  719  HEM719      0.0000
     10  C4A       47.4910   53.7840   30.9510 C.ar  719  HEM719      0.0000
     11  CMA       47.0090   52.4660   28.7290 C.3   719  HEM719      0.0000
     12  CAA       44.0840   52.5300   30.0780 C.3   719  HEM719      0.0000
     13  CBA       44.1900   51.0230   30.2260 C.3   719  HEM719      0.0000
     14  CGA       42.9070   50.2600   29.8960 C.2   719  HEM719      0.0000
     15  O1A       42.9740   49.0460   29.7580 O.co2 719  HEM719      0.0000
     16  O2A       41.8260   50.9480   29.8990 O.co2 719  HEM719      0.0000
     17  NB        49.3710   55.0310   32.9040 N.2   719  HEM719      0.0000
     18  C1B       49.6970   54.4850   31.6790 C.2   719  HEM719      0.0000
     19  C2B       51.0930   54.6270   31.4320 C.2   719  HEM719      0.0000
     20  C3B       51.6340   55.1990   32.5130 C.2   719  HEM719      0.0000
     21  C4B       50.5530   55.5080   33.4070 C.2   719  HEM719      0.0000
     22  CMB       51.7930   54.0810   30.1990 C.3   719  HEM719      0.0000
     23  CAB       53.0910   55.4390   32.7850 C.3   719  HEM719      0.0000
     24  CBB       53.4420   56.5190   33.8000 C.3   719  HEM719      0.0000
     25  NC        48.3480   56.0290   35.3790 N.ar  719  HEM719      0.0000
     26  C1C       49.6680   56.2330   35.5960 C.ar  719  HEM719      0.0000
     27  C2C       49.8940   56.7640   36.9500 C.ar  719  HEM719      0.0000
     28  C3C       48.7570   56.9130   37.5680 C.ar  719  HEM719      0.0000
     29  C4C       47.7110   56.4000   36.6160 C.ar  719  HEM719      0.0000
     30  CMC       51.2940   56.9710   37.5640 C.3   719  HEM719      0.0000
     31  CAC       48.6580   57.1630   39.1210 C.3   719  HEM719      0.0000
     32  CBC       47.4020   57.7110   39.7440 C.3   719  HEM719      0.0000
     33  ND        45.8180   55.3570   34.4870 N.2   719  HEM719      0.0000
     34  C1D       45.4800   55.9140   35.7710 C.2   719  HEM719      0.0000
     35  C2D       44.0550   55.8970   35.9070 C.2   719  HEM719      0.0000
     36  C3D       43.5620   55.3720   34.7580 C.2   719  HEM719      0.0000
     37  C4D       44.6270   54.9970   33.9410 C.2   719  HEM719      0.0000
     38  CMD       43.2890   56.4150   37.1030 C.3   719  HEM719      0.0000
     39  CAD       42.2000   54.9190   34.4980 C.3   719  HEM719      0.0000
     40  CBD       42.0620   53.4790   34.9630 C.3   719  HEM719      0.0000
     41  CGD       41.0010   52.6280   34.4070 C.2   719  HEM719      0.0000
     42  O1D       40.7470   51.6350   35.0410 O.co2 719  HEM719      0.0000
     43  O2D       40.4280   52.9900   33.3240 O.co2 719  HEM719      0.0000
@<TRIPOS>BOND
     1    11     9    1
     2    15    14   ar
     3    14    16   ar
     4    14    13    1
     5     9     8   ar
     6     9    10   ar
     7    12    13    1
     8    12     8    1
     9    22    19    1
    10     8     7   ar
    11     3    10    2
    12     3    18    1
    13    10     6   ar
    14    19    18    1
    15    19    20    2
    16    18    17    2
    17     7     6   ar
    18     7     2    2
    19     6     1    1
    20    20    23    1
    21    20    21    1
    22     2    37    1
    23    23    24    1
    24    17    21    1
    25    17     1    1
    26    43    41   ar
    27    21     4    2
    28     1    33    1
    29     1    25    1
    30    37    33    2
    31    37    36    1
    32    41    40    1
    33    41    42   ar
    34    33    34    1
    35    39    36    1
    36    39    40    1
    37     4    26    1
    38    36    35    2
    39    25    26   ar
    40    25    29   ar
    41    26    27   ar
    42    34    35    1
    43    34     5    2
    44    35    38    1
    45    29     5    1
    46    29    28   ar
    47    27    30    1
    48    27    28   ar
    49    28    31    1
    50    31    32    1
