@<TRIPOS>MOLECULE
1dpf_GDP_A_1.pdb
 28 30 0 0 0
SMALL
GASTEIGER

@<TRIPOS>ATOM
      1  PB         5.5090   18.0530   18.4030 P.3   200  GDP200      0.5373
      2  O1B        4.3010   17.5230   19.0260 O.3   200  GDP200     -0.1143
      3  O2B        5.4450   19.2340   17.5620 O.2   200  GDP200     -0.2221
      4  O3B        6.5270   18.3200   19.5280 O.3   200  GDP200     -0.1143
      5  O3A        6.2830   16.8540   17.6090 O.3   200  GDP200     -0.2261
      6  PA         7.0080   16.7050   16.1520 P.3   200  GDP200      0.2231
      7  O1A        7.9150   17.8540   15.9130 O.2   200  GDP200     -0.5169
      8  O2A        7.5640   15.3550   16.1070 O.3   200  GDP200     -0.4370
      9  O5'        5.7510   16.8040   15.0980 O.3   200  GDP200     -0.3111
     10  C5'        4.8410   15.6830   14.9360 C.3   200  GDP200      0.1813
     11  C4'        4.7770   15.0740   13.4930 C.3   200  GDP200      0.1799
     12  O4'        4.9560   16.0930   12.5090 O.3   200  GDP200     -0.3326
     13  C3'        5.8370   14.0220   13.1910 C.3   200  GDP200      0.2158
     14  O3'        5.2610   12.9190   12.5200 O.3   200  GDP200     -0.2175
     15  C2'        6.8930   14.7310   12.3360 C.3   200  GDP200      0.2310
     16  O2'        7.6900   13.9170   11.4450 O.3   200  GDP200     -0.2158
     17  C1'        6.0210   15.7280   11.6050 C.3   200  GDP200      0.2293
     18  N9         6.7410   16.9530   11.2390 N.pl3 200  GDP200     -0.2354
     19  C8         7.4910   17.7960   12.0030 C.3   200  GDP200      0.2246
     20  N7         8.0000   18.8080   11.3880 N.2   200  GDP200     -0.2322
     21  C5         7.5490   18.6350   10.0780 C.2   200  GDP200      0.2182
     22  C6         7.7750   19.4450    8.9080 C.1   200  GDP200      0.2372
     23  O6         8.4220   20.4770    8.8100 O.2   200  GDP200     -0.2069
     24  N1         7.1380   18.9170    7.7780 N.2   200  GDP200     -0.2485
     25  C2         6.3770   17.7610    7.7580 C.1   200  GDP200      0.2531
     26  N2         5.8530   17.4270    6.5840 N.pl3 200  GDP200     -0.0226
     27  N3         6.1570   16.9940    8.8480 N.2   200  GDP200     -0.3074
     28  C4         6.7740   17.4950    9.9700 C.2   200  GDP200      0.2300
@<TRIPOS>BOND
     1    26    25    1
     2    25    24    2
     3    25    27    2
     4    24    22    2
     5    23    22    2
     6    27    28    2
     7    22    21    1
     8    28    21    1
     9    28    18    1
    10    21    20    2
    11    18    17    1
    12    18    19    1
    13    20    19    1
    14    16    15    1
    15    17    15    1
    16    17    12    1
    17    15    13    1
    18    12    11    1
    19    14    13    1
    20    13    11    1
    21    11    10    1
    22    10     9    1
    23     9     6    1
    24     7     6    2
    25     8     6    1
    26     6     5    1
    27     3     1    2
    28     5     1    1
    29     1     2    1
    30     1     4    1
