@<TRIPOS>MOLECULE
1dpm_EBP_A_1.pdb
 16 16 0 0 0
SMALL
GASTEIGER

@<TRIPOS>ATOM
      1  C1        47.7490   -7.4600   32.3790 C.ar  900  EBP900     -0.0101
      2  C2        46.3880   -7.0630   32.4740 C.ar  900  EBP900     -0.0040
      3  C3        45.6970   -7.2250   33.7190 C.ar  900  EBP900     -0.0046
      4  C4        46.3900   -7.7420   34.8560 C.ar  900  EBP900     -0.0219
      5  C5        47.6920   -8.1060   34.7320 C.ar  900  EBP900     -0.0046
      6  C6        48.3900   -7.9460   33.4920 C.ar  900  EBP900     -0.0040
      7  C7        48.5240   -7.2840   31.0680 C.3   900  EBP900      0.1423
      8  C8        45.6550   -7.8470   36.1870 C.3   900  EBP900      0.0310
      9  C9        50.0360  -10.4280   29.5440 C.3   900  EBP900      0.1514
     10  C10       49.7470  -11.8380   29.7160 C.3   900  EBP900      0.0352
     11  C11       45.9530   -8.2180   28.7930 C.3   900  EBP900      0.1514
     12  C12       44.8370   -9.1720   28.7420 C.3   900  EBP900      0.0352
     13  P         48.4040   -8.2650   29.7940 P.3   900  EBP900      0.3476
     14  O1        49.0460   -9.6600   30.2760 O.3   900  EBP900     -0.2939
     15  O2        46.8740   -8.6640   29.8270 O.3   900  EBP900     -0.2939
     16  O3        48.9090   -7.6320   28.5680 O.2   900  EBP900     -0.2574
@<TRIPOS>BOND
     1    16    13    2
     2    12    11    1
     3    11    15    1
     4     9    10    1
     5     9    14    1
     6    13    15    1
     7    13    14    1
     8    13     7    1
     9     7     1    1
    10     1     2   ar
    11     1     6   ar
    12     2     3   ar
    13     6     5   ar
    14     3     4   ar
    15     5     4   ar
    16     4     8    1
