@<TRIPOS>MOLECULE
1dq8_MAH_A_1.pdb
 11 10 0 0 0
SMALL
GASTEIGER

@<TRIPOS>ATOM
      1  C1        34.9060    4.2560    0.8850 C.2   200  MAH200      0.3674
      2  C2        35.0070    5.4430   -0.0570 C.3   200  MAH200      0.1449
      3  C3        36.0240    5.3740   -1.2230 C.3   200  MAH200      0.1481
      4  C4        35.9300    6.6940   -2.0350 C.3   200  MAH200      0.1449
      5  C5        36.9940    6.9280   -3.0950 C.2   200  MAH200      0.3674
      6  C6        37.4800    5.1030   -0.7530 C.3   200  MAH200      0.0341
      7  O1        33.9910    4.2280    1.7070 O.co2 200  MAH200     -0.2456
      8  O2        35.7250    3.3160    0.8320 O.co2 200  MAH200     -0.2456
      9  O3        38.0850    7.4380   -2.7340 O.co2 200  MAH200     -0.2456
     10  O4        36.7430    6.6020   -4.2760 O.co2 200  MAH200     -0.2456
     11  O7        35.6660    4.3110   -2.1160 O.3   200  MAH200     -0.2245
@<TRIPOS>BOND
     1    10     5   ar
     2     5     9   ar
     3     5     4    1
     4    11     3    1
     5     4     3    1
     6     3     6    1
     7     3     2    1
     8     2     1    1
     9     8     1   ar
    10     1     7   ar
