@<TRIPOS>MOLECULE
1dqa_MAH_A_1.pdb
 11 10 0 0 0
SMALL
GASTEIGER

@<TRIPOS>ATOM
      1  C1       -21.2690    8.1790   23.5810 C.2   201  MAH201      0.3674
      2  C2       -20.5340    7.4650   24.7060 C.3   201  MAH201      0.1449
      3  C3       -20.6930    5.9310   24.8400 C.3   201  MAH201      0.1481
      4  C4       -19.8000    5.4850   26.0310 C.3   201  MAH201      0.1449
      5  C5       -19.9560    4.0670   26.5630 C.2   201  MAH201      0.3674
      6  C6       -22.1720    5.4530   24.9990 C.3   201  MAH201      0.0341
      7  O1       -20.8090    9.2370   23.1360 O.co2 201  MAH201     -0.2456
      8  O2       -22.3140    7.7000   23.0840 O.co2 201  MAH201     -0.2456
      9  O3       -20.8500    3.8560   27.4260 O.co2 201  MAH201     -0.2456
     10  O4       -19.1900    3.1820   26.1390 O.co2 201  MAH201     -0.2456
     11  O7       -20.1810    5.2920   23.6850 O.3   201  MAH201     -0.2245
@<TRIPOS>BOND
     1     8     1   ar
     2     7     1   ar
     3     1     2    1
     4    11     3    1
     5     2     3    1
     6     3     6    1
     7     3     4    1
     8     4     5    1
     9    10     5   ar
    10     5     9   ar
