@<TRIPOS>MOLECULE
1dqa_COA_A_1.pdb
 48 50 0 0 0
SMALL
GASTEIGER

@<TRIPOS>ATOM
      1  N1A      -33.5760   18.5260   25.5010 N.2   101  COA101      0.0021
      2  C2A      -33.1900   18.7370   26.7440 C.3   101  COA101      0.5254
      3  N3A      -33.4700   18.0320   27.8150 N.2   101  COA101     -0.0055
      4  C4A      -34.3180   16.8610   27.6070 C.2   101  COA101      0.3518
      5  C5A      -34.7780   16.5900   26.2470 C.2   101  COA101      0.2526
      6  C6A      -34.3440   17.4950   25.2100 C.2   101  COA101      0.4393
      7  N6A      -34.7080   17.3150   23.9460 N.pl3 101  COA101      0.2180
      8  N7A      -35.5710   15.4610   26.1890 N.2   101  COA101     -0.2095
      9  C8A      -35.5420   15.1140   27.5110 C.3   101  COA101      0.3377
     10  N9A      -34.8280   15.8680   28.4380 N.pl3 101  COA101     -0.1439
     11  C1B      -34.6230   15.6730   29.9020 C.3   101  COA101      0.3185
     12  C2B      -35.3740   16.6180   30.8310 C.3   101  COA101      0.2543
     13  O2B      -34.5270   17.1200   31.8530 O.3   101  COA101     -0.2131
     14  C3B      -36.4210   15.7450   31.5190 C.3   101  COA101      0.1928
     15  O3B      -37.7480   16.0770   31.1620 O.3   101  COA101     -0.2673
     16  P3B      -38.6520   17.1350   31.9850 P.3   101  COA101      0.5327
     17  O7A      -39.0370   18.3130   30.9820 O.2   101  COA101     -0.2224
     18  O8A      -39.9700   16.3860   32.4930 O.3   101  COA101     -0.1145
     19  O9A      -37.8710   17.7280   33.2420 O.3   101  COA101     -0.1145
     20  C4B      -35.9690   14.2810   31.2690 C.3   101  COA101      0.1795
     21  O4B      -35.0490   14.3350   30.1760 O.3   101  COA101     -0.3136
     22  C5B      -37.0270   13.2220   30.9120 C.3   101  COA101      0.1812
     23  O5B      -37.7040   13.5400   29.6980 O.3   101  COA101     -0.3112
     24  P1A      -38.5080   12.3850   28.8960 P.3   101  COA101      0.2189
     25  O1A      -39.3330   11.5480   29.9670 O.3   101  COA101     -0.4371
     26  O2A      -39.4900   13.0810   27.8300 O.2   101  COA101     -0.5170
     27  O3A      -37.5540   11.4220   28.0320 O.3   101  COA101     -0.2703
     28  P2A      -36.5210   10.2710   28.5300 P.3   101  COA101      0.2188
     29  O4A      -36.5520   10.0450   30.1060 O.3   101  COA101     -0.4371
     30  O5A      -36.8850    8.9470   27.7210 O.2   101  COA101     -0.5170
     31  O6A      -35.0540   10.7660   28.1240 O.3   101  COA101     -0.3138
     32  CBP      -33.1920   11.2260   26.6340 C.3   101  COA101      0.0645
     33  CCP      -34.7350   11.2090   26.7940 C.3   101  COA101      0.1519
     34  CDP      -32.8370   11.5760   25.1340 C.3   101  COA101      0.0056
     35  CEP      -32.6830   12.3770   27.5360 C.3   101  COA101      0.0056
     36  CAP      -32.6320    9.8090   27.0680 C.3   101  COA101      0.2312
     37  OAP      -33.0540    8.8290   26.1070 O.3   101  COA101     -0.2131
     38  C9P      -31.1040    9.7150   27.2350 C.2   101  COA101      0.2719
     39  O9P      -30.5380   10.4410   28.0760 O.2   101  COA101     -0.2706
     40  N8P      -30.4260    8.8380   26.4700 N.am  101  COA101     -0.2028
     41  C7P      -29.0060    8.6840   26.7310 C.3   101  COA101      0.1248
     42  C6P      -28.1880    9.5150   25.7340 C.3   101  COA101      0.1102
     43  C5P      -26.7250    9.4060   26.1240 C.2   101  COA101      0.2432
     44  O5P      -26.4290    9.6690   27.2940 O.2   101  COA101     -0.2733
     45  N4P      -25.8280    9.0640   25.2080 N.am  101  COA101     -0.2044
     46  C3P      -24.3900    9.1280   25.5620 C.3   101  COA101      0.1276
     47  C2P      -23.6340   10.0290   24.6050 C.3   101  COA101      0.0920
     48  S1P      -24.2510   11.7380   24.7160 S.3   101  COA101     -0.0802
@<TRIPOS>BOND
     1     7     6    1
     2    47    48    1
     3    47    46    1
     4    34    32    1
     5    45    46    1
     6    45    43   am
     7     6     1    2
     8     6     5    1
     9     1     2    1
    10    42    43    1
    11    42    41    1
    12    37    36    1
    13    43    44    2
    14     8     5    2
    15     8     9    1
    16     5     4    1
    17    40    41    1
    18    40    38   am
    19    32    33    1
    20    32    36    1
    21    32    35    1
    22     2     3    1
    23    33    31    1
    24    36    38    1
    25    38    39    2
    26     9    10    1
    27     4     3    2
    28     4    10    1
    29    30    28    2
    30    26    24    2
    31    27    28    1
    32    27    24    1
    33    31    28    1
    34    10    11    1
    35    28    29    1
    36    24    23    1
    37    24    25    1
    38    23    22    1
    39    11    21    1
    40    11    12    1
    41    21    20    1
    42    12    14    1
    43    12    13    1
    44    22    20    1
    45    17    16    2
    46    15    14    1
    47    15    16    1
    48    20    14    1
    49    16    18    1
    50    16    19    1
