@<TRIPOS>MOLECULE
1dqa_NAP_A_1.pdb
 48 52 0 0 0
SMALL
GASTEIGER

@<TRIPOS>ATOM
      1  PA        -0.9310   32.0280   31.6440 P.3     1  NAP1        0.2189
      2  O1A       -1.6960   33.1930   30.8300 O.3     1  NAP1       -0.4371
      3  O2A        0.3320   31.5620   30.7970 O.2     1  NAP1       -0.5170
      4  O5B       -0.4790   32.5920   33.0740 O.3     1  NAP1       -0.3112
      5  C5B       -1.3720   33.2990   33.9560 C.3     1  NAP1        0.1813
      6  C4B       -1.0060   34.7890   33.9590 C.3     1  NAP1        0.1820
      7  O4B       -2.0930   35.5420   34.5450 O.3     1  NAP1       -0.3136
      8  C3B        0.2390   35.0970   34.8000 C.3     1  NAP1        0.2157
      9  O3B        1.0180   36.1220   34.1540 O.3     1  NAP1       -0.2175
     10  C2B       -0.3510   35.5420   36.1350 C.3     1  NAP1        0.2314
     11  O2B        0.5650   36.3360   36.9020 O.3     1  NAP1       -0.2630
     12  C1B       -1.6170   36.2810   35.6870 C.3     1  NAP1        0.3158
     13  N9A       -2.6720   36.2640   36.7160 N.pl3   1  NAP1       -0.1439
     14  C8A       -3.4610   37.2910   37.2290 C.3     1  NAP1        0.3377
     15  N7A       -4.3910   37.1090   38.1610 N.2     1  NAP1       -0.2095
     16  C5A       -4.2090   35.6750   38.3180 C.2     1  NAP1        0.2526
     17  C6A       -4.8630   34.6930   39.1630 C.2     1  NAP1        0.4393
     18  N6A       -5.8440   34.9510   40.0230 N.pl3   1  NAP1        0.2180
     19  N1A       -4.5040   33.4090   39.1190 N.2     1  NAP1        0.0021
     20  C2A       -3.5460   33.0270   38.3040 C.3     1  NAP1        0.5254
     21  N3A       -2.8430   33.7500   37.4680 N.2     1  NAP1       -0.0055
     22  C4A       -3.1630   35.1850   37.4420 C.2     1  NAP1        0.3518
     23  O3        -1.9890   30.8540   31.8800 O.3     1  NAP1       -0.2703
     24  PN        -1.4950   29.3550   32.0420 P.3     1  NAP1        0.2189
     25  O1N       -2.6470   28.5800   32.7980 O.2     1  NAP1       -0.5170
     26  O2N       -0.1170   29.2560   32.8450 O.3     1  NAP1       -0.4371
     27  O5D       -1.3860   28.7110   30.5740 O.3     1  NAP1       -0.3112
     28  C5D       -2.5850   28.4320   29.7970 C.3     1  NAP1        0.1813
     29  C4D       -2.2480   28.1590   28.3380 C.3     1  NAP1        0.1799
     30  O4D       -1.1550   27.2250   28.2660 O.3     1  NAP1       -0.3327
     31  C3D       -3.3960   27.5340   27.4900 C.3     1  NAP1        0.2158
     32  O3D       -3.6690   28.3050   26.3100 O.3     1  NAP1       -0.2175
     33  C2D       -2.8960   26.1120   27.1910 C.3     1  NAP1        0.2309
     34  O2D       -3.4130   25.6560   25.9390 O.3     1  NAP1       -0.2158
     35  C1D       -1.3980   26.3230   27.1780 C.3     1  NAP1        0.2263
     36  N1N       -0.5840   25.0960   27.4130 N.pl3   1  NAP1       -0.2787
     37  C2N        0.7270   25.2450   27.4670 C.3     1  NAP1        0.1244
     38  C3N        1.6130   24.2050   27.6900 C.2     1  NAP1        0.0544
     39  C7N        3.1220   24.4000   27.7590 C.2     1  NAP1        0.2818
     40  O7N        3.8770   23.7050   28.4120 O.2     1  NAP1       -0.2670
     41  N7N        3.7250   25.3840   27.1090 N.am    1  NAP1       -0.0839
     42  C4N        1.0350   22.9110   27.8680 C.2     1  NAP1        0.0033
     43  C5N       -0.3660   22.7440   27.8140 C.2     1  NAP1        0.0157
     44  C6N       -1.1500   23.8880   27.5810 C.2     1  NAP1        0.0633
     45  P2B        2.1170   35.9140   37.0620 P.3     1  NAP1        0.5328
     46  O1X        2.2010   34.3270   37.2070 O.3     1  NAP1       -0.1145
     47  O2X        2.9260   36.3610   35.7560 O.2     1  NAP1       -0.2224
     48  O3X        2.7050   36.6080   38.3700 O.3     1  NAP1       -0.1145
@<TRIPOS>BOND
     1    34    33    1
     2    32    31    1
     3    41    39   am
     4    35    33    1
     5    35    36    1
     6    35    30    1
     7    33    31    1
     8    36    37    1
     9    36    44    1
    10    37    38    1
    11    31    29    1
    12    44    43    2
    13    38    39    1
    14    38    42    2
    15    39    40    2
    16    43    42    1
    17    30    29    1
    18    29    28    1
    19    28    27    1
    20    27    24    1
    21     3     1    2
    22     2     1    1
    23     1    23    1
    24     1     4    1
    25    23    24    1
    26    24    25    2
    27    24    26    1
    28     4     5    1
    29     5     6    1
    30     6     7    1
    31     6     8    1
    32     9     8    1
    33     7    12    1
    34     8    10    1
    35    12    10    1
    36    12    13    1
    37    47    45    2
    38    10    11    1
    39    13    14    1
    40    13    22    1
    41    11    45    1
    42    45    46    1
    43    45    48    1
    44    14    15    1
    45    22    21    2
    46    22    16    1
    47    21    20    1
    48    15    16    2
    49    20    19    1
    50    16    17    1
    51    19    17    2
    52    17    18    1
