@<TRIPOS>MOLECULE
1dqe_BOM_A_1.pdb
 17 16 0 0 0
SMALL
GASTEIGER

@<TRIPOS>ATOM
      1  O1        -1.7440   31.3010    2.8860 O.3   300  BOM300     -0.2204
      2  C2        -1.2350   32.3290    2.0200 C.3   300  BOM300      0.1821
      3  C4         0.2950   32.3410    2.0050 C.3   300  BOM300      0.0355
      4  C7         0.7820   30.9050    1.7520 C.3   300  BOM300      0.0027
      5  C10        1.7950   30.5490    0.6770 C.3   300  BOM300      0.0001
      6  C13        2.6840   29.3580    1.1900 C.3   300  BOM300      0.0000
      7  C16        2.1640   28.0220    0.7170 C.3   300  BOM300      0.0000
      8  C19        3.2800   26.9610    0.7090 C.3   300  BOM300      0.0003
      9  C22        3.0690   25.8110    1.6830 C.3   300  BOM300      0.0047
     10  C25        4.1300   24.7160    1.5170 C.3   300  BOM300      0.0260
     11  C28        5.2960   24.9750    2.4470 C.2   300  BOM300     -0.0261
     12  C31        5.6200   26.1990    2.8240 C.2   300  BOM300     -0.0049
     13  C33        6.6950   26.5860    3.6910 C.2   300  BOM300     -0.0049
     14  C35        7.0300   27.8330    4.0150 C.2   300  BOM300     -0.0261
     15  C37        6.5320   29.1970    3.7240 C.3   300  BOM300      0.0260
     16  C39        7.4570   30.2920    4.2770 C.3   300  BOM300      0.0047
     17  C42        6.8340   31.6930    4.1890 C.3   300  BOM300      0.0004
@<TRIPOS>BOND
     1     5     6    1
     2     5     4    1
     3     8     7    1
     4     8     9    1
     5     7     6    1
     6    10     9    1
     7    10    11    1
     8     4     3    1
     9     3     2    1
    10     2     1    1
    11    11    12    2
    12    12    13    1
    13    13    14    2
    14    15    14    1
    15    15    16    1
    16    17    16    1
