@<TRIPOS>MOLECULE
1dqn_IMU_A_1.pdb
 24 26 0 0 0
SMALL
GASTEIGER

@<TRIPOS>ATOM
      1  P         23.4040   11.0060   47.1590 P.3   300  IMU300      0.5326
      2  C2        18.0050    9.8050   54.4590 C.1   300  IMU300      0.2519
      3  O1P       24.0260   11.8820   48.1770 O.3   300  IMU300     -0.1145
      4  O2P       22.7370   11.7560   46.0770 O.2   300  IMU300     -0.2224
      5  O3P       24.4530   10.0810   46.6370 O.3   300  IMU300     -0.1145
      6  O5'       22.4130   10.0680   47.9320 O.3   300  IMU300     -0.2687
      7  C5'       21.7530    8.9170   47.3940 C.3   300  IMU300      0.1737
      8  C4'       20.9110    8.2770   48.4380 C.3   300  IMU300      0.1362
      9  N4'       21.4180    8.3900   49.8160 N.3   300  IMU300     -0.2084
     10  C3'       19.5220    8.8420   48.5160 C.3   300  IMU300      0.2022
     11  O3'       18.7800    8.4630   47.3580 O.3   300  IMU300     -0.2188
     12  C2'       19.0780    8.2690   49.7960 C.3   300  IMU300      0.2036
     13  O2'       18.5730    6.9360   49.6500 O.3   300  IMU300     -0.2185
     14  C1'       20.3140    8.4140   50.7730 C.3   300  IMU300      0.1320
     15  C9        20.1040    9.7860   51.4320 C.2   300  IMU300      0.0481
     16  C8        20.6030   11.0340   51.0080 C.2   300  IMU300      0.0996
     17  N7        20.2430   12.0520   51.7560 N.2   300  IMU300     -0.2292
     18  C5        19.4580   11.4860   52.7440 C.2   300  IMU300      0.2065
     19  C6        18.7640   12.1070   53.8530 C.1   300  IMU300      0.2362
     20  O6        18.7340   13.2870   54.1320 O.2   300  IMU300     -0.2069
     21  N1        18.0630   11.1930   54.6610 N.2   300  IMU300     -0.2486
     22  N2        17.2950    9.0910   55.3270 N.pl3 300  IMU300     -0.0226
     23  N3        18.6530    9.1980   53.4000 N.2   300  IMU300     -0.3232
     24  C4        19.3640   10.0890   52.5760 C.2   300  IMU300      0.1737
@<TRIPOS>BOND
     1     4     1    2
     2     5     1    1
     3     1     6    1
     4     1     3    1
     5    11    10    1
     6     7     6    1
     7     7     8    1
     8     8    10    1
     9     8     9    1
    10    10    12    1
    11    13    12    1
    12    12    14    1
    13     9    14    1
    14    14    15    1
    15    16    15    2
    16    16    17    1
    17    15    24    1
    18    17    18    2
    19    24    18    1
    20    24    23    2
    21    18    19    1
    22    23     2    2
    23    19    20    2
    24    19    21    2
    25     2    21    2
    26     2    22    1
