@<TRIPOS>MOLECULE
1dqo_ASG_A_1.pdb
 18 16 0 0 0
SMALL
GASTEIGER

@<TRIPOS>ATOM
      1  C2        -1.7950    7.7860   10.5800 C.3   2001  ASG2001     0.1506
      2  C3        -0.2940    7.6910   10.2690 C.3   2001  ASG2001     0.2054
      3  C4         0.5110    8.3960   11.3540 C.3   2001  ASG2001     0.2079
      4  C5         0.1590    7.7080   12.6910 C.3   2001  ASG2001     0.2166
      5  C6         0.9340    8.2770   13.8580 C.3   2001  ASG2001     0.2175
      6  C7        -2.6320    6.2360    8.5720 C.2   2001  ASG2001     0.2419
      7  C8        -3.9950    5.9680    7.9660 C.3   2001  ASG2001     0.0964
      8  O1        -3.4400    7.4930   12.3040 O.3   2001  ASG2001     0.0000
      9  N         -2.5550    7.0730    9.6020 N.am  2001  ASG2001    -0.2026
     10  O3        -0.0030    8.2700    9.0030 O.3   2001  ASG2001    -0.2184
     11  O4         0.1540    9.7820   11.3660 O.3   2001  ASG2001    -0.2383
     12  O5        -1.2560    7.8270   12.9770 O.3   2001  ASG2001    -0.2175
     13  O6         0.2890    8.0000   15.0910 O.3   2001  ASG2001    -0.2175
     14  O7        -1.6440    5.7160    8.0880 O.2   2001  ASG2001    -0.2733
     15  OSA        0.8880   12.0460   10.9280 O.2   2001  ASG2001    -0.3452
     16  OSB        2.3840   10.2320   10.4650 O.2   2001  ASG2001    -0.3452
     17  OSC        1.8480   10.7930   12.7530 O.3   2001  ASG2001    -0.2682
     18  S          1.3170   10.7020   11.3880 S.3   2001  ASG2001    -0.0001
@<TRIPOS>BOND
     1     7     6    1
     2    14     6    2
     3     6     9   am
     4    10     2    1
     5     9     1    1
     6     2     1    1
     7     2     3    1
     8    16    18    2
     9    15    18    2
    10     3    11    1
    11     3     4    1
    12    11    18    1
    13    18    17    1
    14     4    12    1
    15     4     5    1
    16     5    13    1
