@<TRIPOS>MOLECULE
1dqp_IMG_A_1.pdb
 11 12 0 0 0
SMALL
GASTEIGER

@<TRIPOS>ATOM
      1  C9        20.4450    9.4960   51.6630 C.2   300  IMG300      0.0561
      2  C8        20.9120   10.6890   51.1910 C.2   300  IMG300      0.1025
      3  N7        20.3580   11.7470   51.7350 N.2   300  IMG300     -0.2289
      4  C5        19.4500   11.2200   52.6400 C.2   300  IMG300      0.2068
      5  C6        18.5370   11.8810   53.5440 C.1   300  IMG300      0.2362
      6  O6        18.3650   13.0870   53.7070 O.2   300  IMG300     -0.2069
      7  N1        17.7890   10.9550   54.2940 N.2   300  IMG300     -0.2486
      8  N2        17.1120    8.8320   54.9860 N.pl3 300  IMG300     -0.0226
      9  C2        17.8970    9.5640   54.1970 C.1   300  IMG300      0.2519
     10  N3        18.7570    8.9470   53.3470 N.2   300  IMG300     -0.3229
     11  C4        19.4980    9.8350   52.6030 C.2   300  IMG300      0.1764
@<TRIPOS>BOND
     1     2     1    2
     2     2     3    1
     3     1    11    1
     4     3     4    2
     5    11     4    1
     6    11    10    2
     7     4     5    1
     8    10     9    2
     9     5     6    2
    10     5     7    2
    11     9     7    2
    12     9     8    1
