@<TRIPOS>MOLECULE
1dqr_6PG_A_1.pdb
 17 16 0 0 0
SMALL
GASTEIGER

@<TRIPOS>ATOM
      1  C1        14.8400    9.1010   28.7870 C.2   600  6PG600      0.3973
      2  C2        15.0770    9.4200   30.2820 C.3   600  6PG600      0.2865
      3  C3        15.8730    8.2710   30.9800 C.3   600  6PG600      0.2260
      4  C4        17.4020    8.2790   30.6290 C.3   600  6PG600      0.2179
      5  C5        18.2880    7.6120   31.6960 C.3   600  6PG600      0.2147
      6  C6        19.6750    8.2170   31.7800 C.3   600  6PG600      0.1892
      7  O1A       15.6450    9.4660   27.9630 O.co2 600  6PG600     -0.2427
      8  O1        13.8470    8.4940   28.4570 O.co2 600  6PG600     -0.2427
      9  O2        15.8010   10.6360   30.4380 O.3   600  6PG600     -0.2080
     10  O3        15.2490    7.0310   30.6310 O.3   600  6PG600     -0.2169
     11  O4        17.6130    7.5620   29.4260 O.3   600  6PG600     -0.2175
     12  O5        17.7000    7.8300   32.9660 O.3   600  6PG600     -0.2176
     13  O6        20.5840    7.2230   31.3290 O.3   600  6PG600     -0.2674
     14  P         21.6650    7.6970   30.3640 P.3   600  6PG600      0.5327
     15  O1P       22.6740    8.6170   31.1290 O.3   600  6PG600     -0.1145
     16  O2P       22.3950    6.4490   29.8080 O.3   600  6PG600     -0.1145
     17  O3P       20.9870    8.4650   29.1770 O.2   600  6PG600     -0.2224
@<TRIPOS>BOND
     1     7     1   ar
     2     8     1   ar
     3     1     2    1
     4    17    14    2
     5    11     4    1
     6    16    14    1
     7     2     9    1
     8     2     3    1
     9    14    15    1
    10    14    13    1
    11     4     3    1
    12     4     5    1
    13    10     3    1
    14    13     6    1
    15     5     6    1
    16     5    12    1
