@<TRIPOS>MOLECULE
1dqs_NAD_A_1.pdb
 44 48 0 0 0
SMALL
GASTEIGER

@<TRIPOS>ATOM
      1  PA        34.4700   23.0390   57.4970 P.3   400  NAD400      0.2189
      2  O1A       33.5150   23.9150   56.7730 O.2   400  NAD400     -0.5170
      3  O2A       34.3050   21.5770   57.2570 O.3   400  NAD400     -0.4371
      4  O5B       34.3320   23.3110   59.0640 O.3   400  NAD400     -0.3112
      5  C5B       35.1890   22.6170   60.0230 C.3   400  NAD400      0.1813
      6  C4B       34.3810   21.7400   60.9520 C.3   400  NAD400      0.1821
      7  O4B       33.7180   22.4840   62.0020 O.3   400  NAD400     -0.3135
      8  C3B       33.2840   20.8470   60.3710 C.3   400  NAD400      0.2184
      9  O3B       33.3240   19.6260   61.1380 O.3   400  NAD400     -0.2174
     10  C2B       32.0130   21.6060   60.7390 C.3   400  NAD400      0.2570
     11  O2B       30.8130   20.8750   60.7350 O.3   400  NAD400     -0.2130
     12  C1B       32.2740   22.1990   62.1030 C.3   400  NAD400      0.3186
     13  N9A       31.7870   23.5370   62.4090 N.pl3 400  NAD400     -0.1439
     14  C8A       31.7490   24.6250   61.5650 C.3   400  NAD400      0.3377
     15  N7A       31.3750   25.7470   62.1780 N.2   400  NAD400     -0.2095
     16  C5A       31.1520   25.3350   63.4790 C.2   400  NAD400      0.2526
     17  C6A       30.7120   26.0630   64.6090 C.2   400  NAD400      0.4393
     18  N6A       30.4690   27.3590   64.6260 N.pl3 400  NAD400      0.2180
     19  N1A       30.5480   25.3490   65.7660 N.2   400  NAD400      0.0021
     20  C2A       30.8120   24.0080   65.7710 C.3   400  NAD400      0.5254
     21  N3A       31.2270   23.2570   64.7730 N.2   400  NAD400     -0.0055
     22  C4A       31.3760   23.9970   63.6400 C.2   400  NAD400      0.3518
     23  O3        36.0580   23.3620   57.2390 O.3   400  NAD400     -0.2703
     24  PN        36.8280   24.7700   57.2600 P.3   400  NAD400      0.2189
     25  O1N       36.0660   25.9060   57.7200 O.2   400  NAD400     -0.5170
     26  O2N       38.1430   24.5220   57.9270 O.3   400  NAD400     -0.4371
     27  O5D       37.1470   24.9880   55.6760 O.3   400  NAD400     -0.3112
     28  C5D       38.1930   24.2340   55.0160 C.3   400  NAD400      0.1813
     29  C4D       37.9720   24.3860   53.4910 C.3   400  NAD400      0.1799
     30  O4D       38.2850   25.7510   53.1690 O.3   400  NAD400     -0.3327
     31  C3D       38.9050   23.5370   52.5950 C.3   400  NAD400      0.2158
     32  O3D       38.0600   22.8010   51.6930 O.3   400  NAD400     -0.2175
     33  C2D       39.7850   24.5630   51.8620 C.3   400  NAD400      0.2309
     34  O2D       40.1620   24.1260   50.5610 O.3   400  NAD400     -0.2158
     35  C1D       38.8620   25.7510   51.8320 C.3   400  NAD400      0.2263
     36  N1N       39.4240   27.0970   51.7110 N.pl3 400  NAD400     -0.2787
     37  C2N       38.8790   27.8860   50.7520 C.3   400  NAD400      0.1244
     38  C3N       39.3040   29.2050   50.6600 C.2   400  NAD400      0.0544
     39  C7N       38.7850   30.2180   49.6050 C.2   400  NAD400      0.2818
     40  O7N       39.3320   31.3160   49.4900 O.2   400  NAD400     -0.2670
     41  N7N       37.7220   29.7980   48.8900 N.am  400  NAD400     -0.0839
     42  C4N       40.2960   29.7590   51.5070 C.2   400  NAD400      0.0033
     43  C5N       40.7800   28.8480   52.4520 C.2   400  NAD400      0.0157
     44  C6N       40.4160   27.5460   52.6110 C.2   400  NAD400      0.0633
@<TRIPOS>BOND
     1    41    39   am
     2    40    39    2
     3    39    38    1
     4    34    33    1
     5    38    37    1
     6    38    42    2
     7    37    36    1
     8    42    43    1
     9    32    31    1
    10    36    35    1
    11    36    44    1
    12    35    33    1
    13    35    30    1
    14    33    31    1
    15    43    44    2
    16    31    29    1
    17    30    29    1
    18    29    28    1
    19    28    27    1
    20    27    24    1
    21     2     1    2
    22    23    24    1
    23    23     1    1
    24     3     1    1
    25    24    25    2
    26    24    26    1
    27     1     4    1
    28     4     5    1
    29     5     6    1
    30     8    10    1
    31     8     6    1
    32     8     9    1
    33    11    10    1
    34    10    12    1
    35     6     7    1
    36    14    15    1
    37    14    13    1
    38     7    12    1
    39    12    13    1
    40    15    16    2
    41    13    22    1
    42    16    22    1
    43    16    17    1
    44    22    21    2
    45    17    18    1
    46    17    19    2
    47    21    20    1
    48    19    20    1
