@<TRIPOS>MOLECULE
1dqs_CRB_A_1.pdb
 17 17 0 0 0
SMALL
GASTEIGER

@<TRIPOS>ATOM
      1  C1        42.8020   33.0050   47.7110 C.2   401  CRB401      0.3917
      2  O11       43.3220   33.4090   46.6160 O.co2 401  CRB401     -0.2429
      3  O12       41.7640   33.4550   48.2030 O.co2 401  CRB401     -0.2429
      4  C2        43.4720   31.7400   48.3030 C.3   401  CRB401      0.2215
      5  O2        44.8320   31.7500   47.8060 O.3   401  CRB401     -0.2140
      6  C3        43.5130   31.6460   49.8220 C.3   401  CRB401      0.0771
      7  C4        43.8690   30.2510   50.3240 C.3   401  CRB401      0.1851
      8  O4        43.8830   30.2070   51.7610 O.3   401  CRB401     -0.2203
      9  C5        42.9990   29.1750   49.6720 C.3   401  CRB401      0.1827
     10  O5        43.2770   27.8840   50.2170 O.3   401  CRB401     -0.2204
     11  C6        43.2160   29.2070   48.1740 C.3   401  CRB401      0.0433
     12  C7        42.4980   28.0930   47.3630 C.3   401  CRB401      0.0616
     13  C8        42.7140   30.5660   47.6320 C.3   401  CRB401      0.0447
     14  P1        43.1390   27.8610   45.6630 P.3   401  CRB401      0.1173
     15  O91       42.8190   29.0770   44.8270 O.2   401  CRB401     -0.4601
     16  O92       42.4430   26.6080   45.1500 O.3   401  CRB401     -0.3571
     17  O93       44.6550   27.5810   45.7710 O.3   401  CRB401     -0.3571
@<TRIPOS>BOND
     1    15    14    2
     2    16    14    1
     3    14    17    1
     4    14    12    1
     5     2     1   ar
     6    12    11    1
     7    13    11    1
     8    13     4    1
     9     1     3   ar
    10     1     4    1
    11     5     4    1
    12    11     9    1
    13     4     6    1
    14     9    10    1
    15     9     7    1
    16     6     7    1
    17     7     8    1
