@<TRIPOS>MOLECULE
1dqx_BMP_A_1.pdb
 22 23 0 0 0
SMALL
GASTEIGER

@<TRIPOS>ATOM
      1  P         80.0490   64.3350   91.8040 P.3   601  BMP601      0.5327
      2  OP1       80.9250   65.1530   92.7730 O.3   601  BMP601     -0.1145
      3  OP2       80.0860   62.8370   92.0660 O.3   601  BMP601     -0.1145
      4  OP3       80.4560   64.5890   90.3250 O.2   601  BMP601     -0.2224
      5  O5'       78.5760   64.8470   92.1690 O.3   601  BMP601     -0.2675
      6  C5'       77.3980   64.5600   91.3820 C.3   601  BMP601      0.1859
      7  C4'       76.3050   65.6320   91.5710 C.3   601  BMP601      0.1801
      8  O4'       75.7520   65.6260   92.8890 O.3   601  BMP601     -0.3319
      9  C3'       76.5440   67.0730   91.0870 C.3   601  BMP601      0.2158
     10  O3'       75.8260   67.3200   89.9260 O.3   601  BMP601     -0.2175
     11  C2'       75.9240   67.8750   92.1710 C.3   601  BMP601      0.2320
     12  O2'       75.4550   69.1580   91.9150 O.3   601  BMP601     -0.2157
     13  C1'       75.1580   66.9050   93.0770 C.3   601  BMP601      0.2425
     14  N1        74.9960   67.2140   94.5290 N.am  601  BMP601     -0.1473
     15  C2        76.1070   67.1640   95.5290 C.1   601  BMP601      0.2863
     16  O2        77.2840   66.8750   95.3030 O.2   601  BMP601     -0.1918
     17  N3        75.8970   67.4190   96.8840 N.2   601  BMP601     -0.2489
     18  C4        74.6130   67.6670   97.3720 C.1   601  BMP601      0.2018
     19  O4        74.4740   67.6100   98.5820 O.2   601  BMP601     -0.2129
     20  C5        73.3680   67.7500   96.3480 C.3   601  BMP601      0.2213
     21  C6        73.5920   67.5190   95.0030 C.2   601  BMP601      0.2591
     22  O1        72.5210   67.5800   94.1770 O.2   601  BMP601     -0.2725
@<TRIPOS>BOND
     1    10     9    1
     2     4     1    2
     3     9     7    1
     4     9    11    1
     5     6     7    1
     6     6     5    1
     7     7     8    1
     8     1     3    1
     9     1     5    1
    10     1     2    1
    11    12    11    1
    12    11    13    1
    13     8    13    1
    14    13    14    1
    15    22    21    2
    16    14    21   am
    17    14    15   am
    18    21    20    1
    19    16    15    2
    20    15    17    2
    21    20    18    1
    22    17    18    2
    23    18    19    2
