@<TRIPOS>MOLECULE
1dr1_NAP_A_1.pdb
 48 52 0 0 0
SMALL
GASTEIGER

@<TRIPOS>ATOM
      1  PA        21.8310    5.2580   17.8850 P.3   191  NAP191      0.2189
      2  O1A       21.1410    3.9590   17.9370 O.3   191  NAP191     -0.4371
      3  O2A       21.2310    6.2760   17.0030 O.2   191  NAP191     -0.5170
      4  O5B       22.2550    5.8910   19.2940 O.3   191  NAP191     -0.3112
      5  C5B       22.7090    5.1680   20.4010 C.3   191  NAP191      0.1813
      6  C4B       22.1920    5.7670   21.7430 C.3   191  NAP191      0.1820
      7  O4B       21.0230    5.5990   21.7240 O.3   191  NAP191     -0.3136
      8  C3B       22.6630    4.6600   22.8100 C.3   191  NAP191      0.2157
      9  O3B       24.0330    5.1100   23.1060 O.3   191  NAP191     -0.2175
     10  C2B       21.6460    5.0820   23.8990 C.3   191  NAP191      0.2314
     11  O2B       21.9340    6.3840   24.3100 O.3   191  NAP191     -0.2630
     12  C1B       20.4130    5.2040   23.0180 C.3   191  NAP191      0.3158
     13  N9A       19.7500    3.9310   22.7780 N.pl3 191  NAP191     -0.1439
     14  C8A       20.0060    3.1980   21.6790 C.3   191  NAP191      0.3377
     15  N7A       19.3020    2.0900   21.6370 N.2   191  NAP191     -0.2095
     16  C5A       18.6250    2.1560   22.9160 C.2   191  NAP191      0.2526
     17  C6A       17.5290    1.2720   23.6050 C.2   191  NAP191      0.4393
     18  N6A       17.0810    0.1090   23.1280 N.pl3 191  NAP191      0.2180
     19  N1A       17.0530    1.6890   24.7500 N.2   191  NAP191      0.0021
     20  C2A       17.5400    2.8620   25.2140 C.3   191  NAP191      0.5254
     21  N3A       18.4270    3.7120   24.7110 N.2   191  NAP191     -0.0055
     22  C4A       18.9350    3.2810   23.5360 C.2   191  NAP191      0.3518
     23  O3        23.2690    5.0960   17.2380 O.3   191  NAP191     -0.2703
     24  PN        24.0890    4.3060   16.1810 P.3   191  NAP191      0.2189
     25  O1N       23.7430    2.9420   15.9910 O.2   191  NAP191     -0.5170
     26  O2N       25.4690    4.4470   16.3320 O.3   191  NAP191     -0.4371
     27  O5D       23.6470    5.0310   14.8310 O.3   191  NAP191     -0.3112
     28  C5D       23.7740    6.3990   14.4800 C.3   191  NAP191      0.1813
     29  C4D       24.6730    6.2660   13.1990 C.3   191  NAP191      0.1799
     30  O4D       23.9300    5.4320   12.2970 O.3   191  NAP191     -0.3327
     31  C3D       24.9050    7.6050   12.4330 C.3   191  NAP191      0.2158
     32  O3D       26.0990    7.3610   11.6020 O.3   191  NAP191     -0.2175
     33  C2D       23.6650    7.6490   11.5440 C.3   191  NAP191      0.2309
     34  O2D       23.9900    8.4140   10.3890 O.3   191  NAP191     -0.2158
     35  C1D       23.4820    6.2310   11.1680 C.3   191  NAP191      0.2263
     36  N1N       22.0750    5.8560   10.7260 N.pl3 191  NAP191     -0.2787
     37  C2N       21.7800    5.4060    9.4120 C.3   191  NAP191      0.1244
     38  C3N       20.5440    4.9770    9.1370 C.2   191  NAP191      0.0544
     39  C7N       20.3120    4.5200    7.7670 C.2   191  NAP191      0.2818
     40  O7N       19.1440    4.1680    7.4970 O.2   191  NAP191     -0.2670
     41  N7N       21.2950    4.3560    6.9310 N.am  191  NAP191     -0.0839
     42  C4N       19.3710    4.9710   10.1260 C.2   191  NAP191      0.0033
     43  C5N       19.8370    5.5400   11.4430 C.2   191  NAP191      0.0157
     44  C6N       21.0670    5.9170   11.6530 C.2   191  NAP191      0.0633
     45  P2B       22.5800    6.7290   25.7600 P.3   191  NAP191      0.5328
     46  O1X       24.0360    6.2890   25.5420 O.2   191  NAP191     -0.2224
     47  O2X       21.9670    5.6920   26.5950 O.3   191  NAP191     -0.1145
     48  O3X       22.3770    8.1140   26.0320 O.3   191  NAP191     -0.1145
@<TRIPOS>BOND
     1    41    39   am
     2    40    39    2
     3    39    38    1
     4    38    37    1
     5    38    42    2
     6    37    36    1
     7    42    43    1
     8    34    33    1
     9    36    35    1
    10    36    44    1
    11    35    33    1
    12    35    30    1
    13    43    44    2
    14    33    31    1
    15    32    31    1
    16    30    29    1
    17    31    29    1
    18    29    28    1
    19    28    27    1
    20    27    24    1
    21    25    24    2
    22    24    26    1
    23    24    23    1
    24     3     1    2
    25    23     1    1
    26     1     2    1
    27     1     4    1
    28     4     5    1
    29     5     6    1
    30    15    14    1
    31    15    16    2
    32    14    13    1
    33     7     6    1
    34     7    12    1
    35     6     8    1
    36    13    12    1
    37    13    22    1
    38     8     9    1
    39     8    10    1
    40    16    22    1
    41    16    17    1
    42    12    10    1
    43    18    17    1
    44    22    21    2
    45    17    19    2
    46    10    11    1
    47    11    45    1
    48    21    20    1
    49    19    20    1
    50    46    45    2
    51    45    48    1
    52    45    47    1
