@<TRIPOS>MOLECULE
1dr1_HBI_A_1.pdb
 17 18 0 0 0
SMALL
GASTEIGER

@<TRIPOS>ATOM
      1  N1        15.8600    5.2770    5.9550 N.2   198  HBI198     -0.2672
      2  N2        15.5410    4.6640    3.6740 N.pl3 198  HBI198     -0.0220
      3  C2        16.1890    5.4260    4.5780 C.1   198  HBI198      0.2609
      4  N3        17.1000    6.3550    4.2330 N.2   198  HBI198     -0.2466
      5  C4        17.8210    7.2100    5.0500 C.1   198  HBI198      0.2569
      6  O4        18.6970    8.0220    4.5980 O.2   198  HBI198     -0.2052
      7  C4A       17.4960    6.9910    6.4090 C.2   198  HBI198      0.2989
      8  C8A       16.5160    6.1130    6.8150 C.1   198  HBI198      0.1401
      9  N8        16.2020    5.8700    8.0840 N.2   198  HBI198     -0.1992
     10  C7        16.7910    6.6550    8.9300 C.3   198  HBI198      0.1940
     11  C6        17.6990    7.6340    8.6680 C.2   198  HBI198      0.1466
     12  N5        18.0840    7.8010    7.3660 N.2   198  HBI198     -0.3830
     13  C9        18.3870    8.4910    9.7260 C.3   198  HBI198      0.2313
     14  O9        19.6900    8.5670    9.3240 O.3   198  HBI198     -0.2130
     15  C10       17.8780    9.9260    9.9630 C.3   198  HBI198      0.1888
     16  O10       17.7780   10.4690    8.6260 O.3   198  HBI198     -0.2200
     17  C11       16.4740    9.8040   10.5030 C.3   198  HBI198      0.0387
@<TRIPOS>BOND
     1     2     3    1
     2     4     3    2
     3     4     5    2
     4     3     1    2
     5     6     5    2
     6     5     7    1
     7     1     8    2
     8     7     8    1
     9     7    12    2
    10     8     9    2
    11    12    11    2
    12     9    10    1
    13    16    15    1
    14    11    10    1
    15    11    13    1
    16    14    13    1
    17    13    15    1
    18    15    17    1
