@<TRIPOS>MOLECULE
1dr2_TAP_A_1.pdb
 48 52 0 0 0
SMALL
GASTEIGER

@<TRIPOS>ATOM
      1  PA        21.9250    5.2270   17.9320 P.3   191  TAP191      0.2189
      2  O1A       21.1330    3.9880   17.9620 O.3   191  TAP191     -0.4371
      3  O2A       21.2640    6.2910   17.0580 O.2   191  TAP191     -0.5170
      4  O5B       22.2970    5.8560   19.3870 O.3   191  TAP191     -0.3112
      5  C5B       22.8830    5.0380   20.4340 C.3   191  TAP191      0.1813
      6  C4B       22.4260    5.5700   21.7830 C.3   191  TAP191      0.1820
      7  O4B       21.2520    5.6240   21.7670 O.3   191  TAP191     -0.3136
      8  C3B       22.8490    4.6050   22.9390 C.3   191  TAP191      0.2157
      9  O3B       24.1610    5.1080   23.4110 O.3   191  TAP191     -0.2175
     10  C2B       21.7250    5.0120   23.9260 C.3   191  TAP191      0.2314
     11  O2B       21.9010    6.2810   24.4630 O.3   191  TAP191     -0.2630
     12  C1B       20.5850    5.1510   22.9620 C.3   191  TAP191      0.3158
     13  N9A       19.8900    3.8730   22.7150 N.pl3 191  TAP191     -0.1439
     14  C8A       20.0970    3.1090   21.6270 C.3   191  TAP191      0.3377
     15  N7A       19.3320    2.0350   21.6810 N.2   191  TAP191     -0.2095
     16  C5A       18.6450    2.2110   22.9500 C.2   191  TAP191      0.2526
     17  C6A       17.5810    1.4100   23.7610 C.2   191  TAP191      0.4393
     18  N6A       17.0560    0.2380   23.3170 N.pl3 191  TAP191      0.2180
     19  N1A       17.1550    1.8780   24.9510 N.2   191  TAP191      0.0021
     20  C2A       17.7130    3.0500   25.3160 C.3   191  TAP191      0.5254
     21  N3A       18.5950    3.8440   24.6980 N.2   191  TAP191     -0.0055
     22  C4A       19.0280    3.3420   23.5140 C.2   191  TAP191      0.3518
     23  O3        23.3530    5.0440   17.3340 O.3   191  TAP191     -0.2703
     24  PN        24.0930    4.2680   16.1760 P.3   191  TAP191      0.2189
     25  O1N       23.7980    2.8640   16.0710 O.2   191  TAP191     -0.5170
     26  O2N       25.5200    4.5240   16.1730 O.3   191  TAP191     -0.4371
     27  O5D       23.4530    5.0250   14.8730 O.3   191  TAP191     -0.3112
     28  C5D       23.8000    6.4100   14.5570 C.3   191  TAP191      0.1813
     29  C4D       24.7740    6.2890   13.3700 C.3   191  TAP191      0.1799
     30  O4D       24.0630    5.4580   12.4110 O.3   191  TAP191     -0.3327
     31  C3D       25.0040    7.6560   12.5500 C.3   191  TAP191      0.2158
     32  O3D       26.1260    7.4040   11.6300 O.3   191  TAP191     -0.2175
     33  C2D       23.6770    7.6990   11.7480 C.3   191  TAP191      0.2309
     34  O2D       23.9010    8.4580   10.5440 O.3   191  TAP191     -0.2158
     35  C1D       23.4950    6.2560   11.3520 C.3   191  TAP191      0.2263
     36  N1N       22.0620    5.9620   10.9170 N.pl3 191  TAP191     -0.2788
     37  C2N       21.7000    5.5630    9.6280 C.3   191  TAP191      0.1216
     38  C3N       20.4350    5.2700    9.3030 C.2   191  TAP191      0.0211
     39  C7N       20.2010    4.8120    7.9280 C.2   191  TAP191      0.1221
     40  S7N       18.6950    4.9250    7.3320 S.2   191  TAP191     -0.0315
     41  N7N       21.1350    4.2650    7.1800 N.am  191  TAP191     -0.1207
     42  C4N       19.2580    5.3190   10.3190 C.2   191  TAP191      0.0006
     43  C5N       19.7820    5.7410   11.6770 C.2   191  TAP191      0.0156
     44  C6N       21.0670    6.0060   11.9210 C.2   191  TAP191      0.0633
     45  P2B       22.6120    6.5100   25.8650 P.3   191  TAP191      0.5328
     46  O1X       22.4520    7.9720   26.2420 O.3   191  TAP191     -0.1145
     47  O2X       21.8150    5.5920   26.7400 O.3   191  TAP191     -0.1145
     48  O3X       24.0350    6.0940   25.6970 O.2   191  TAP191     -0.2224
@<TRIPOS>BOND
     1    41    39    1
     2    40    39    2
     3    39    38    1
     4    38    37    1
     5    38    42    2
     6    37    36    1
     7    42    43    1
     8    34    33    1
     9    36    35    1
    10    36    44    1
    11    35    33    1
    12    35    30    1
    13    32    31    1
    14    43    44    2
    15    33    31    1
    16    30    29    1
    17    31    29    1
    18    29    28    1
    19    28    27    1
    20    27    24    1
    21    25    24    2
    22    26    24    1
    23    24    23    1
    24     3     1    2
    25    23     1    1
    26     1     2    1
    27     1     4    1
    28     4     5    1
    29     5     6    1
    30    14    15    1
    31    14    13    1
    32    15    16    2
    33     7     6    1
    34     7    12    1
    35     6     8    1
    36    13    12    1
    37    13    22    1
    38     8     9    1
    39     8    10    1
    40    16    22    1
    41    16    17    1
    42    12    10    1
    43    18    17    1
    44    22    21    2
    45    17    19    2
    46    10    11    1
    47    11    45    1
    48    21    20    1
    49    19    20    1
    50    48    45    2
    51    45    46    1
    52    45    47    1
