@<TRIPOS>MOLECULE
1dr3_TAP_A_1.pdb
 48 52 0 0 0
SMALL
GASTEIGER

@<TRIPOS>ATOM
      1  PA        21.9450    5.2380   17.9550 P.3   191  TAP191      0.2189
      2  O1A       21.1580    3.9950   18.0420 O.3   191  TAP191     -0.4371
      3  O2A       21.2750    6.2840   17.0840 O.2   191  TAP191     -0.5170
      4  O5B       22.3040    5.9500   19.3980 O.3   191  TAP191     -0.3112
      5  C5B       22.7300    5.1020   20.5000 C.3   191  TAP191      0.1813
      6  C4B       22.2530    5.5750   21.8340 C.3   191  TAP191      0.1820
      7  O4B       21.0940    5.6880   21.8880 O.3   191  TAP191     -0.3136
      8  C3B       22.7320    4.6020   22.9680 C.3   191  TAP191      0.2157
      9  O3B       24.0740    5.1650   23.3920 O.3   191  TAP191     -0.2175
     10  C2B       21.6470    5.0340   24.0040 C.3   191  TAP191      0.2314
     11  O2B       21.8890    6.3570   24.4430 O.3   191  TAP191     -0.2630
     12  C1B       20.4670    5.1660   23.0880 C.3   191  TAP191      0.3158
     13  N9A       19.8230    3.8740   22.8070 N.pl3 191  TAP191     -0.1439
     14  C8A       20.0580    3.1490   21.6950 C.3   191  TAP191      0.3377
     15  N7A       19.3050    2.0640   21.6860 N.2   191  TAP191     -0.2095
     16  C5A       18.6320    2.1650   22.9690 C.2   191  TAP191      0.2526
     17  C6A       17.5520    1.3270   23.7120 C.2   191  TAP191      0.4393
     18  N6A       17.0540    0.1660   23.2230 N.pl3 191  TAP191      0.2180
     19  N1A       17.0860    1.7700   24.8890 N.2   191  TAP191      0.0021
     20  C2A       17.6170    2.9410   25.2920 C.3   191  TAP191      0.5254
     21  N3A       18.4980    3.7720   24.7420 N.2   191  TAP191     -0.0055
     22  C4A       18.9830    3.2920   23.5740 C.2   191  TAP191      0.3518
     23  O3        23.3700    5.0590   17.3600 O.3   191  TAP191     -0.2703
     24  PN        24.1250    4.2630   16.2060 P.3   191  TAP191      0.2189
     25  O1N       23.7510    2.8740   16.0380 O.2   191  TAP191     -0.5170
     26  O2N       25.5310    4.4390   16.3330 O.3   191  TAP191     -0.4371
     27  O5D       23.5450    5.0280   14.8810 O.3   191  TAP191     -0.3112
     28  C5D       23.8200    6.4120   14.5470 C.3   191  TAP191      0.1813
     29  C4D       24.8190    6.2730   13.3630 C.3   191  TAP191      0.1799
     30  O4D       24.0930    5.4290   12.4220 O.3   191  TAP191     -0.3327
     31  C3D       25.0700    7.6320   12.5480 C.3   191  TAP191      0.2158
     32  O3D       26.2420    7.4240   11.6920 O.3   191  TAP191     -0.2175
     33  C2D       23.7730    7.6840   11.7190 C.3   191  TAP191      0.2309
     34  O2D       24.0640    8.4490   10.5230 O.3   191  TAP191     -0.2158
     35  C1D       23.5440    6.2540   11.3630 C.3   191  TAP191      0.2263
     36  N1N       22.1420    5.9600   10.8630 N.pl3 191  TAP191     -0.2788
     37  C2N       21.8390    5.5280    9.5640 C.3   191  TAP191      0.1216
     38  C3N       20.5890    5.2400    9.1870 C.2   191  TAP191      0.0211
     39  C7N       20.3610    4.7620    7.8240 C.2   191  TAP191      0.1221
     40  S7N       18.8590    4.8480    7.2550 S.2   191  TAP191     -0.0315
     41  N7N       21.2760    4.2130    7.0460 N.am  191  TAP191     -0.1207
     42  C4N       19.3690    5.3060   10.1510 C.2   191  TAP191      0.0006
     43  C5N       19.8570    5.7180   11.5280 C.2   191  TAP191      0.0156
     44  C6N       21.1150    5.9900   11.8040 C.2   191  TAP191      0.0633
     45  P2B       22.6210    6.6120   25.8400 P.3   191  TAP191      0.5328
     46  O1X       22.3590    8.0490   26.2280 O.3   191  TAP191     -0.1145
     47  O2X       21.8730    5.6440   26.7110 O.3   191  TAP191     -0.1145
     48  O3X       24.0570    6.2460   25.6530 O.2   191  TAP191     -0.2224
@<TRIPOS>BOND
     1    41    39    1
     2    40    39    2
     3    39    38    1
     4    38    37    1
     5    38    42    2
     6    37    36    1
     7    42    43    1
     8    34    33    1
     9    36    35    1
    10    36    44    1
    11    35    33    1
    12    35    30    1
    13    43    44    2
    14    32    31    1
    15    33    31    1
    16    30    29    1
    17    31    29    1
    18    29    28    1
    19    28    27    1
    20    27    24    1
    21    25    24    2
    22    24    26    1
    23    24    23    1
    24     3     1    2
    25    23     1    1
    26     1     2    1
    27     1     4    1
    28     4     5    1
    29     5     6    1
    30    15    14    1
    31    15    16    2
    32    14    13    1
    33     6     7    1
    34     6     8    1
    35     7    12    1
    36    13    12    1
    37    13    22    1
    38     8     9    1
    39     8    10    1
    40    16    22    1
    41    16    17    1
    42    12    10    1
    43    18    17    1
    44    22    21    2
    45    17    19    2
    46    10    11    1
    47    11    45    1
    48    21    20    1
    49    19    20    1
    50    48    45    2
    51    45    46    1
    52    45    47    1
