@<TRIPOS>MOLECULE
1dr3_HBI_A_1.pdb
 17 18 0 0 0
SMALL
GASTEIGER

@<TRIPOS>ATOM
      1  N1        15.7450    5.4710    5.9590 N.2   198  HBI198     -0.2672
      2  N2        15.4050    4.8740    3.6810 N.pl3 198  HBI198     -0.0220
      3  C2        16.0610    5.6630    4.5860 C.1   198  HBI198      0.2609
      4  N3        16.9510    6.6290    4.2440 N.2   198  HBI198     -0.2466
      5  C4        17.6640    7.4900    5.0470 C.1   198  HBI198      0.2569
      6  O4        18.4730    8.4040    4.6530 O.2   198  HBI198     -0.2052
      7  C4A       17.3590    7.2300    6.4230 C.2   198  HBI198      0.2989
      8  C8A       16.4300    6.2820    6.8310 C.1   198  HBI198      0.1401
      9  N8        16.1290    6.0270    8.1210 N.2   198  HBI198     -0.1992
     10  C7        16.7450    6.7680    8.9580 C.3   198  HBI198      0.1940
     11  C6        17.6680    7.7690    8.7020 C.2   198  HBI198      0.1466
     12  N5        17.9770    7.9770    7.3730 N.2   198  HBI198     -0.3830
     13  C9        18.3570    8.6050    9.7340 C.3   198  HBI198      0.2313
     14  O9        19.7240    8.6330    9.5210 O.3   198  HBI198     -0.2130
     15  C10       17.7860    9.8270   10.3560 C.3   198  HBI198      0.1888
     16  O10       17.8090   10.9340    9.3650 O.3   198  HBI198     -0.2200
     17  C11       16.3680    9.4540   10.7250 C.3   198  HBI198      0.0387
@<TRIPOS>BOND
     1     2     3    1
     2     4     3    2
     3     4     5    2
     4     3     1    2
     5     6     5    2
     6     5     7    1
     7     1     8    2
     8     7     8    1
     9     7    12    2
    10     8     9    2
    11    12    11    2
    12     9    10    1
    13    11    10    1
    14    11    13    1
    15    16    15    1
    16    14    13    1
    17    13    15    1
    18    15    17    1
