@<TRIPOS>MOLECULE
1dr4_HBI_A_1.pdb
 17 18 0 0 0
SMALL
GASTEIGER

@<TRIPOS>ATOM
      1  N1        15.8320    5.2490    5.9760 N.2   198  HBI198     -0.2672
      2  N2        15.5590    4.5400    3.7040 N.pl3 198  HBI198     -0.0220
      3  C2        16.1860    5.3580    4.5840 C.1   198  HBI198      0.2609
      4  N3        17.0510    6.3350    4.2090 N.2   198  HBI198     -0.2466
      5  C4        17.7410    7.2260    4.9970 C.1   198  HBI198      0.2569
      6  O4        18.5950    8.0710    4.5310 O.2   198  HBI198     -0.2052
      7  C4A       17.4470    7.0150    6.3870 C.2   198  HBI198      0.2989
      8  C8A       16.5270    6.0770    6.8220 C.1   198  HBI198      0.1401
      9  N8        16.2490    5.8280    8.1260 N.2   198  HBI198     -0.1992
     10  C7        16.7900    6.6360    8.9520 C.3   198  HBI198      0.1940
     11  C6        17.6780    7.6490    8.6590 C.2   198  HBI198      0.1466
     12  N5        18.0330    7.8110    7.3200 N.2   198  HBI198     -0.3830
     13  C9        18.3620    8.5000    9.6980 C.3   198  HBI198      0.2313
     14  O9        19.7490    8.4530    9.4070 O.3   198  HBI198     -0.2130
     15  C10       17.9410    9.9470    9.9130 C.3   198  HBI198      0.1888
     16  O10       18.2030   10.6430    8.6280 O.3   198  HBI198     -0.2200
     17  C11       16.4740    9.9070   10.1980 C.3   198  HBI198      0.0387
@<TRIPOS>BOND
     1     2     3    1
     2     4     3    2
     3     4     5    2
     4     6     5    2
     5     3     1    2
     6     5     7    1
     7     1     8    2
     8     7     8    1
     9     7    12    2
    10     8     9    2
    11    12    11    2
    12     9    10    1
    13    16    15    1
    14    11    10    1
    15    11    13    1
    16    14    13    1
    17    13    15    1
    18    15    17    1
