@<TRIPOS>MOLECULE
1dr4_NAP_A_1.pdb
 48 52 0 0 0
SMALL
GASTEIGER

@<TRIPOS>ATOM
      1  PA        21.8490    5.2090   18.0510 P.3   191  NAP191      0.2189
      2  O1A       21.1390    3.9150   18.0400 O.3   191  NAP191     -0.4371
      3  O2A       21.0590    6.1960   17.1870 O.2   191  NAP191     -0.5170
      4  O5B       22.0830    5.9420   19.4640 O.3   191  NAP191     -0.3112
      5  C5B       22.7010    5.2970   20.5820 C.3   191  NAP191      0.1813
      6  C4B       22.1400    5.7230   21.9080 C.3   191  NAP191      0.1820
      7  O4B       20.9670    5.7460   21.8880 O.3   191  NAP191     -0.3136
      8  C3B       22.6150    4.7330   23.0310 C.3   191  NAP191      0.2157
      9  O3B       23.9590    5.2670   23.4380 O.3   191  NAP191     -0.2175
     10  C2B       21.5330    5.1410   24.0590 C.3   191  NAP191      0.2314
     11  O2B       21.7640    6.4050   24.5660 O.3   191  NAP191     -0.2630
     12  C1B       20.3730    5.2640   23.1360 C.3   191  NAP191      0.3158
     13  N9A       19.7660    3.9460   22.8290 N.pl3 191  NAP191     -0.1439
     14  C8A       19.9480    3.2390   21.7070 C.3   191  NAP191      0.3377
     15  N7A       19.1800    2.1590   21.7260 N.2   191  NAP191     -0.2095
     16  C5A       18.5760    2.2570   23.0460 C.2   191  NAP191      0.2526
     17  C6A       17.5470    1.4260   23.8640 C.2   191  NAP191      0.4393
     18  N6A       17.0050    0.2630   23.4360 N.pl3 191  NAP191      0.2180
     19  N1A       17.1280    1.9040   25.0380 N.2   191  NAP191      0.0021
     20  C2A       17.7070    3.0480   25.4430 C.3   191  NAP191      0.5254
     21  N3A       18.5550    3.8730   24.8390 N.2   191  NAP191     -0.0055
     22  C4A       18.9740    3.3630   23.6440 C.2   191  NAP191      0.3518
     23  O3        23.2590    5.1380   17.3900 O.3   191  NAP191     -0.2703
     24  PN        23.9310    4.2280   16.2510 P.3   191  NAP191      0.2189
     25  O1N       23.5010    2.8470   16.2640 O.2   191  NAP191     -0.5170
     26  O2N       25.3710    4.3590   16.2710 O.3   191  NAP191     -0.4371
     27  O5D       23.3370    4.9640   14.9230 O.3   191  NAP191     -0.3112
     28  C5D       23.6960    6.3680   14.5890 C.3   191  NAP191      0.1813
     29  C4D       24.5910    6.2290   13.3540 C.3   191  NAP191      0.1799
     30  O4D       23.8810    5.4440   12.3860 O.3   191  NAP191     -0.3327
     31  C3D       24.9300    7.5700   12.5480 C.3   191  NAP191      0.2158
     32  O3D       26.1120    7.3050   11.7160 O.3   191  NAP191     -0.2175
     33  C2D       23.6480    7.6470   11.6480 C.3   191  NAP191      0.2309
     34  O2D       23.9460    8.4890   10.5460 O.3   191  NAP191     -0.2158
     35  C1D       23.4600    6.2180   11.2230 C.3   191  NAP191      0.2263
     36  N1N       22.0370    5.8970   10.7480 N.pl3 191  NAP191     -0.2787
     37  C2N       21.7400    5.3830    9.4680 C.3   191  NAP191      0.1244
     38  C3N       20.5280    4.9730    9.1220 C.2   191  NAP191      0.0544
     39  C7N       20.3630    4.4490    7.7630 C.2   191  NAP191      0.2818
     40  O7N       19.1980    4.0910    7.3870 O.2   191  NAP191     -0.2670
     41  N7N       21.4660    4.3600    6.9770 N.am  191  NAP191     -0.0839
     42  C4N       19.3030    5.0080   10.0880 C.2   191  NAP191      0.0033
     43  C5N       19.7640    5.5530   11.4420 C.2   191  NAP191      0.0157
     44  C6N       21.0080    5.9400   11.7020 C.2   191  NAP191      0.0633
     45  P2B       22.5320    6.7120   25.9210 P.3   191  NAP191      0.5328
     46  O1X       24.0020    6.4320   25.7440 O.2   191  NAP191     -0.2224
     47  O2X       21.9000    5.6970   26.8520 O.3   191  NAP191     -0.1145
     48  O3X       22.2060    8.0960   26.3530 O.3   191  NAP191     -0.1145
@<TRIPOS>BOND
     1    41    39   am
     2    40    39    2
     3    39    38    1
     4    38    37    1
     5    38    42    2
     6    37    36    1
     7    42    43    1
     8    34    33    1
     9    36    35    1
    10    36    44    1
    11    35    33    1
    12    35    30    1
    13    43    44    2
    14    33    31    1
    15    32    31    1
    16    30    29    1
    17    31    29    1
    18    29    28    1
    19    28    27    1
    20    27    24    1
    21    24    25    2
    22    24    26    1
    23    24    23    1
    24     3     1    2
    25    23     1    1
    26     2     1    1
    27     1     4    1
    28     4     5    1
    29     5     6    1
    30    14    15    1
    31    14    13    1
    32    15    16    2
    33     7     6    1
    34     7    12    1
    35     6     8    1
    36    13    12    1
    37    13    22    1
    38     8     9    1
    39     8    10    1
    40    16    22    1
    41    16    17    1
    42    12    10    1
    43    18    17    1
    44    22    21    2
    45    17    19    2
    46    10    11    1
    47    11    45    1
    48    21    20    1
    49    19    20    1
    50    46    45    2
    51    45    48    1
    52    45    47    1
