@<TRIPOS>MOLECULE
1dr5_NAP_A_1.pdb
 48 52 0 0 0
SMALL
GASTEIGER

@<TRIPOS>ATOM
      1  PA        21.9170    5.2180   17.9450 P.3   191  NAP191      0.2189
      2  O1A       21.0590    4.0140   18.0730 O.3   191  NAP191     -0.4371
      3  O2A       21.2100    6.2950   17.1070 O.2   191  NAP191     -0.5170
      4  O5B       22.2990    5.9000   19.3850 O.3   191  NAP191     -0.3112
      5  C5B       22.6680    5.0010   20.4650 C.3   191  NAP191      0.1813
      6  C4B       22.2300    5.5630   21.7860 C.3   191  NAP191      0.1820
      7  O4B       21.0800    5.6260   21.8080 O.3   191  NAP191     -0.3136
      8  C3B       22.7260    4.6380   22.9620 C.3   191  NAP191      0.2157
      9  O3B       24.0910    5.1340   23.2690 O.3   191  NAP191     -0.2175
     10  C2B       21.6730    5.0730   23.9690 C.3   191  NAP191      0.2314
     11  O2B       21.8840    6.3290   24.5080 O.3   191  NAP191     -0.2630
     12  C1B       20.4770    5.1740   23.0720 C.3   191  NAP191      0.3158
     13  N9A       19.8280    3.8700   22.7730 N.pl3 191  NAP191     -0.1439
     14  C8A       20.0160    3.1900   21.6450 C.3   191  NAP191      0.3377
     15  N7A       19.2300    2.1310   21.6150 N.2   191  NAP191     -0.2095
     16  C5A       18.5780    2.2210   22.9030 C.2   191  NAP191      0.2526
     17  C6A       17.5440    1.3500   23.6870 C.2   191  NAP191      0.4393
     18  N6A       17.0480    0.2010   23.2020 N.pl3 191  NAP191      0.2180
     19  N1A       17.1200    1.7700   24.8870 N.2   191  NAP191      0.0021
     20  C2A       17.6780    2.9090   25.3060 C.3   191  NAP191      0.5254
     21  N3A       18.5660    3.7310   24.7550 N.2   191  NAP191     -0.0055
     22  C4A       18.9790    3.2960   23.5360 C.2   191  NAP191      0.3518
     23  O3        23.2840    4.9950   17.3030 O.3   191  NAP191     -0.2703
     24  PN        24.0640    4.1830   16.2080 P.3   191  NAP191      0.2189
     25  O1N       23.7000    2.7790   16.1660 O.3   191  NAP191     -0.4371
     26  O2N       25.4740    4.4220   16.1660 O.2   191  NAP191     -0.5170
     27  O5D       23.4750    4.9020   14.8540 O.3   191  NAP191     -0.3112
     28  C5D       23.7980    6.3100   14.5450 C.3   191  NAP191      0.1813
     29  C4D       24.6490    6.1670   13.2830 C.3   191  NAP191      0.1799
     30  O4D       23.8560    5.3810   12.3740 O.3   191  NAP191     -0.3327
     31  C3D       24.9560    7.5260   12.4890 C.3   191  NAP191      0.2158
     32  O3D       26.1270    7.2200   11.6280 O.3   191  NAP191     -0.2175
     33  C2D       23.6570    7.6160   11.6510 C.3   191  NAP191      0.2309
     34  O2D       23.9190    8.4410   10.5020 O.3   191  NAP191     -0.2158
     35  C1D       23.4860    6.1820   11.1930 C.3   191  NAP191      0.2263
     36  N1N       22.0780    5.8820   10.6670 N.pl3 191  NAP191     -0.2787
     37  C2N       21.7700    5.3150    9.4320 C.3   191  NAP191      0.1244
     38  C3N       20.5160    4.9720    9.1040 C.2   191  NAP191      0.0544
     39  C7N       20.2860    4.3870    7.7850 C.2   191  NAP191      0.2818
     40  O7N       19.1040    4.0460    7.4900 O.2   191  NAP191     -0.2670
     41  N7N       21.3080    4.1770    6.9590 N.am  191  NAP191     -0.0839
     42  C4N       19.3060    5.1450   10.0640 C.2   191  NAP191      0.0033
     43  C5N       19.8080    5.7230   11.3730 C.2   191  NAP191      0.0157
     44  C6N       21.0550    6.0290   11.6330 C.2   191  NAP191      0.0633
     45  P2B       22.6650    6.5740   25.8910 P.3   191  NAP191      0.5328
     46  O1X       24.1040    6.2140   25.6140 O.2   191  NAP191     -0.2224
     47  O2X       21.9800    5.5950   26.7530 O.3   191  NAP191     -0.1145
     48  O3X       22.4480    8.0110   26.2880 O.3   191  NAP191     -0.1145
@<TRIPOS>BOND
     1    41    39   am
     2    40    39    2
     3    39    38    1
     4    38    37    1
     5    38    42    2
     6    37    36    1
     7    42    43    1
     8    34    33    1
     9    36    35    1
    10    36    44    1
    11    35    33    1
    12    35    30    1
    13    43    44    2
    14    32    31    1
    15    33    31    1
    16    30    29    1
    17    31    29    1
    18    29    28    1
    19    28    27    1
    20    27    24    1
    21    26    24    2
    22    25    24    1
    23    24    23    1
    24     3     1    2
    25    23     1    1
    26     1     2    1
    27     1     4    1
    28     4     5    1
    29     5     6    1
    30    15    14    1
    31    15    16    2
    32    14    13    1
    33     6     7    1
    34     6     8    1
    35     7    12    1
    36    13    12    1
    37    13    22    1
    38    16    22    1
    39    16    17    1
    40     8     9    1
    41     8    10    1
    42    12    10    1
    43    18    17    1
    44    22    21    2
    45    17    19    2
    46    10    11    1
    47    11    45    1
    48    21    20    1
    49    19    20    1
    50    46    45    2
    51    45    48    1
    52    45    47    1
