@<TRIPOS>MOLECULE
1dr6_HBI_A_1.pdb
 17 18 0 0 0
SMALL
GASTEIGER

@<TRIPOS>ATOM
      1  N1        15.8110    5.3180    6.0130 N.2   198  HBI198     -0.2672
      2  N2        15.5280    4.6180    3.7760 N.pl3 198  HBI198     -0.0220
      3  C2        16.1140    5.4760    4.6480 C.1   198  HBI198      0.2609
      4  N3        17.0380    6.4160    4.2440 N.2   198  HBI198     -0.2466
      5  C4        17.6840    7.3290    5.0480 C.1   198  HBI198      0.2569
      6  O4        18.4940    8.2460    4.6230 O.2   198  HBI198     -0.2052
      7  C4A       17.4050    7.0770    6.4180 C.2   198  HBI198      0.2989
      8  C8A       16.5190    6.1220    6.8650 C.1   198  HBI198      0.1401
      9  N8        16.2110    5.9030    8.1640 N.2   198  HBI198     -0.1992
     10  C7        16.7830    6.7340    8.9810 C.3   198  HBI198      0.1940
     11  C6        17.6540    7.7510    8.6580 C.2   198  HBI198      0.1466
     12  N5        17.9560    7.9060    7.3340 N.2   198  HBI198     -0.3830
     13  C9        18.3820    8.6780    9.6170 C.3   198  HBI198      0.2313
     14  O9        19.7600    8.6020    9.4060 O.3   198  HBI198     -0.2130
     15  C10       17.9390   10.1140    9.7810 C.3   198  HBI198      0.1888
     16  O10       17.9750   10.7680    8.4650 O.3   198  HBI198     -0.2200
     17  C11       16.5460   10.0600   10.3340 C.3   198  HBI198      0.0387
@<TRIPOS>BOND
     1     2     3    1
     2     4     3    2
     3     4     5    2
     4     6     5    2
     5     3     1    2
     6     5     7    1
     7     1     8    2
     8     7     8    1
     9     7    12    2
    10     8     9    2
    11    12    11    2
    12     9    10    1
    13    16    15    1
    14    11    10    1
    15    11    13    1
    16    14    13    1
    17    13    15    1
    18    15    17    1
