@<TRIPOS>MOLECULE
1dr6_NAP_A_1.pdb
 48 52 0 0 0
SMALL
GASTEIGER

@<TRIPOS>ATOM
      1  PA        21.8800    5.3330   17.8900 P.3   191  NAP191      0.2189
      2  O1A       21.1100    4.0310   18.0090 O.3   191  NAP191     -0.4371
      3  O2A       21.2290    6.2420   16.8650 O.2   191  NAP191     -0.5170
      4  O5B       22.1270    6.1000   19.2870 O.3   191  NAP191     -0.3112
      5  C5B       22.5930    5.3190   20.3930 C.3   191  NAP191      0.1813
      6  C4B       22.1710    5.7530   21.7310 C.3   191  NAP191      0.1820
      7  O4B       21.0570    5.8930   21.8370 O.3   191  NAP191     -0.3136
      8  C3B       22.6430    4.6600   22.8080 C.3   191  NAP191      0.2157
      9  O3B       23.9590    5.2340   23.2490 O.3   191  NAP191     -0.2175
     10  C2B       21.6210    5.1390   23.8870 C.3   191  NAP191      0.2314
     11  O2B       21.9920    6.4570   24.2530 O.3   191  NAP191     -0.2630
     12  C1B       20.4230    5.2900   23.0210 C.3   191  NAP191      0.3158
     13  N9A       19.7860    3.9960   22.6480 N.pl3 191  NAP191     -0.1439
     14  C8A       20.0520    3.3110   21.5460 C.3   191  NAP191      0.3377
     15  N7A       19.3370    2.2000   21.4870 N.2   191  NAP191     -0.2095
     16  C5A       18.5950    2.2510   22.7130 C.2   191  NAP191      0.2526
     17  C6A       17.5370    1.3460   23.4050 C.2   191  NAP191      0.4393
     18  N6A       17.0730    0.1700   22.9020 N.pl3 191  NAP191      0.2180
     19  N1A       17.0750    1.6800   24.6130 N.2   191  NAP191      0.0021
     20  C2A       17.6170    2.8230   25.0780 C.3   191  NAP191      0.5254
     21  N3A       18.4920    3.6920   24.5950 N.2   191  NAP191     -0.0055
     22  C4A       18.9530    3.3350   23.3780 C.2   191  NAP191      0.3518
     23  O3        23.3030    5.1210   17.3320 O.3   191  NAP191     -0.2703
     24  PN        24.0870    4.3580   16.1680 P.3   191  NAP191      0.2189
     25  O1N       23.7250    2.9740   16.0200 O.2   191  NAP191     -0.5170
     26  O2N       25.5050    4.6080   16.3230 O.3   191  NAP191     -0.4371
     27  O5D       23.5080    5.0550   14.8280 O.3   191  NAP191     -0.3112
     28  C5D       23.7540    6.4570   14.4770 C.3   191  NAP191      0.1813
     29  C4D       24.4590    6.3770   13.1540 C.3   191  NAP191      0.1799
     30  O4D       23.7800    5.5120   12.2460 O.3   191  NAP191     -0.3327
     31  C3D       24.7390    7.7110   12.3630 C.3   191  NAP191      0.2158
     32  O3D       25.9070    7.4330   11.4870 O.3   191  NAP191     -0.2175
     33  C2D       23.4820    7.7230   11.4430 C.3   191  NAP191      0.2309
     34  O2D       23.8850    8.5350   10.3180 O.3   191  NAP191     -0.2158
     35  C1D       23.4360    6.2680   11.0200 C.3   191  NAP191      0.2263
     36  N1N       22.0000    5.9310   10.5440 N.pl3 191  NAP191     -0.2787
     37  C2N       21.6820    5.4050    9.2940 C.3   191  NAP191      0.1244
     38  C3N       20.4010    5.0310    9.0250 C.2   191  NAP191      0.0544
     39  C7N       20.1430    4.5020    7.6990 C.2   191  NAP191      0.2818
     40  O7N       18.9610    4.1950    7.4190 O.2   191  NAP191     -0.2670
     41  N7N       21.1320    4.3710    6.8220 N.am  191  NAP191     -0.0839
     42  C4N       19.2380    5.1490   10.0390 C.2   191  NAP191      0.0033
     43  C5N       19.7800    5.7000   11.3550 C.2   191  NAP191      0.0157
     44  C6N       21.0420    6.0180   11.5350 C.2   191  NAP191      0.0633
     45  P2B       22.6030    6.7840   25.6500 P.3   191  NAP191      0.5328
     46  O1X       24.0960    6.6250   25.5240 O.2   191  NAP191     -0.2224
     47  O2X       21.9110    5.8360   26.5960 O.3   191  NAP191     -0.1145
     48  O3X       22.2090    8.2090   26.0710 O.3   191  NAP191     -0.1145
@<TRIPOS>BOND
     1    41    39   am
     2    40    39    2
     3    39    38    1
     4    38    37    1
     5    38    42    2
     6    37    36    1
     7    42    43    1
     8    34    33    1
     9    36    35    1
    10    36    44    1
    11    35    33    1
    12    35    30    1
    13    43    44    2
    14    33    31    1
    15    32    31    1
    16    30    29    1
    17    31    29    1
    18    29    28    1
    19    28    27    1
    20    27    24    1
    21    25    24    2
    22    24    26    1
    23    24    23    1
    24     3     1    2
    25    23     1    1
    26     1     2    1
    27     1     4    1
    28     4     5    1
    29     5     6    1
    30    15    14    1
    31    15    16    2
    32    14    13    1
    33     6     7    1
    34     6     8    1
    35     7    12    1
    36    13    12    1
    37    13    22    1
    38    16    22    1
    39    16    17    1
    40     8     9    1
    41     8    10    1
    42    18    17    1
    43    12    10    1
    44    22    21    2
    45    17    19    2
    46    10    11    1
    47    11    45    1
    48    21    20    1
    49    19    20    1
    50    46    45    2
    51    45    48    1
    52    45    47    1
