@<TRIPOS>MOLECULE
1dr7_NAP_A_1.pdb
 48 52 0 0 0
SMALL
GASTEIGER

@<TRIPOS>ATOM
      1  PA        21.9710    5.2680   17.8870 P.3   191  NAP191      0.2189
      2  O1A       21.2450    4.0210   18.0330 O.3   191  NAP191     -0.4371
      3  O2A       21.2960    6.3110   16.9900 O.2   191  NAP191     -0.5170
      4  O5B       22.3070    5.9800   19.3320 O.3   191  NAP191     -0.3112
      5  C5B       22.5830    5.0170   20.4050 C.3   191  NAP191      0.1813
      6  C4B       22.2010    5.5560   21.7380 C.3   191  NAP191      0.1820
      7  O4B       21.0930    5.7130   21.8490 O.3   191  NAP191     -0.3136
      8  C3B       22.7040    4.4850   22.8320 C.3   191  NAP191      0.2157
      9  O3B       24.0640    5.0360   23.1060 O.3   191  NAP191     -0.2175
     10  C2B       21.7180    4.9850   23.9390 C.3   191  NAP191      0.2314
     11  O2B       22.0860    6.2520   24.3840 O.3   191  NAP191     -0.2630
     12  C1B       20.4900    5.1490   23.0740 C.3   191  NAP191      0.3158
     13  N9A       19.8360    3.8500   22.7400 N.pl3 191  NAP191     -0.1439
     14  C8A       20.0470    3.1630   21.6260 C.3   191  NAP191      0.3377
     15  N7A       19.3400    2.0410   21.6080 N.2   191  NAP191     -0.2095
     16  C5A       18.5940    2.1520   22.8610 C.2   191  NAP191      0.2526
     17  C6A       17.5980    1.2420   23.6230 C.2   191  NAP191      0.4393
     18  N6A       17.1170    0.0650   23.1390 N.pl3 191  NAP191      0.2180
     19  N1A       17.1610    1.6240   24.8310 N.2   191  NAP191      0.0021
     20  C2A       17.6330    2.8080   25.2360 C.3   191  NAP191      0.5254
     21  N3A       18.5120    3.6440   24.7140 N.2   191  NAP191     -0.0055
     22  C4A       18.9740    3.2370   23.5050 C.2   191  NAP191      0.3518
     23  O3        23.3940    5.0970   17.2590 O.3   191  NAP191     -0.2703
     24  PN        24.1140    4.2560   16.1160 P.3   191  NAP191      0.2189
     25  O1N       23.7220    2.8710   16.0550 O.2   191  NAP191     -0.5170
     26  O2N       25.5330    4.4890   16.0610 O.3   191  NAP191     -0.4371
     27  O5D       23.4620    5.0090   14.8060 O.3   191  NAP191     -0.3112
     28  C5D       23.8730    6.3920   14.4910 C.3   191  NAP191      0.1813
     29  C4D       24.6180    6.2470   13.1580 C.3   191  NAP191      0.1799
     30  O4D       23.7860    5.5060   12.2720 O.3   191  NAP191     -0.3327
     31  C3D       24.9350    7.5750   12.3510 C.3   191  NAP191      0.2158
     32  O3D       26.0730    7.2720   11.5020 O.3   191  NAP191     -0.2175
     33  C2D       23.6440    7.7200   11.5040 C.3   191  NAP191      0.2309
     34  O2D       24.0020    8.5320   10.3410 O.3   191  NAP191     -0.2158
     35  C1D       23.4260    6.3150   11.1070 C.3   191  NAP191      0.2263
     36  N1N       22.0140    6.0170   10.5740 N.pl3 191  NAP191     -0.2787
     37  C2N       21.7260    5.3900    9.3640 C.3   191  NAP191      0.1244
     38  C3N       20.4660    5.0640    9.0640 C.2   191  NAP191      0.0544
     39  C7N       20.2240    4.4060    7.7800 C.2   191  NAP191      0.2818
     40  O7N       19.0340    4.0480    7.5240 O.2   191  NAP191     -0.2670
     41  N7N       21.2190    4.1790    6.9720 N.am  191  NAP191     -0.0839
     42  C4N       19.2570    5.2410   10.0350 C.2   191  NAP191      0.0033
     43  C5N       19.7610    5.8480   11.3020 C.2   191  NAP191      0.0157
     44  C6N       21.0030    6.1740   11.5390 C.2   191  NAP191      0.0633
     45  P2B       22.6990    6.5430   25.8170 P.3   191  NAP191      0.5328
     46  O1X       24.2150    6.3030   25.7030 O.2   191  NAP191     -0.2224
     47  O2X       22.0570    5.5170   26.6340 O.3   191  NAP191     -0.1145
     48  O3X       22.3920    7.9640   26.2060 O.3   191  NAP191     -0.1145
@<TRIPOS>BOND
     1    41    39   am
     2    40    39    2
     3    39    38    1
     4    38    37    1
     5    38    42    2
     6    37    36    1
     7    42    43    1
     8    34    33    1
     9    36    35    1
    10    36    44    1
    11    35    33    1
    12    35    30    1
    13    43    44    2
    14    32    31    1
    15    33    31    1
    16    30    29    1
    17    31    29    1
    18    29    28    1
    19    28    27    1
    20    27    24    1
    21    25    24    2
    22    26    24    1
    23    24    23    1
    24     3     1    2
    25    23     1    1
    26     1     2    1
    27     1     4    1
    28     4     5    1
    29     5     6    1
    30    15    14    1
    31    15    16    2
    32    14    13    1
    33     6     7    1
    34     6     8    1
    35     7    12    1
    36    13    12    1
    37    13    22    1
    38     8     9    1
    39     8    10    1
    40    16    22    1
    41    16    17    1
    42    12    10    1
    43    18    17    1
    44    22    21    2
    45    17    19    2
    46    10    11    1
    47    11    45    1
    48    21    20    1
    49    19    20    1
    50    46    45    2
    51    45    48    1
    52    45    47    1
