@<TRIPOS>MOLECULE
1dra_MTX_A_1.pdb
 33 35 0 0 0
SMALL
GASTEIGER

@<TRIPOS>ATOM
      1  N1        22.9790   58.5400   24.2210 N.2   161  MTX161     -0.2684
      2  C2        23.6040   58.0810   23.1220 C.1   161  MTX161      0.2519
      3  NA2       24.8810   58.0110   23.0580 N.pl3 161  MTX161     -0.0226
      4  N3        22.8200   57.6150   22.0520 N.2   161  MTX161     -0.3033
      5  C4        21.4580   57.6840   21.9840 C.2   161  MTX161      0.2728
      6  NA4       20.8060   57.2710   20.9700 N.pl3 161  MTX161     -0.0887
      7  C4A       20.8250   58.1920   23.2130 C.2   161  MTX161      0.2518
      8  N5        19.4720   58.3000   23.2300 N.2   161  MTX161     -0.3917
      9  C6        18.9440   58.8000   24.3580 C.2   161  MTX161      0.1330
     10  C7        19.7950   59.1760   25.4020 C.3   161  MTX161      0.1930
     11  N8        21.1320   59.1190   25.3940 N.2   161  MTX161     -0.1998
     12  C8A       21.5970   58.6080   24.2410 C.1   161  MTX161      0.1314
     13  C9        17.4530   58.8870   24.3830 C.3   161  MTX161      0.1481
     14  N10       16.9720   59.8560   25.4390 N.pl3 161  MTX161     -0.2999
     15  CM        16.0490   59.2670   26.4480 C.3   161  MTX161      0.1125
     16  C11       17.9880   63.9520   25.7000 C.ar  161  MTX161      0.0551
     17  C12       17.1230   63.3260   26.6400 C.ar  161  MTX161      0.0058
     18  C13       16.8360   61.9890   26.5290 C.ar  161  MTX161      0.0147
     19  C14       17.3600   61.2120   25.4610 C.ar  161  MTX161      0.0482
     20  C15       18.1810   61.7870   24.5410 C.ar  161  MTX161      0.0147
     21  C16       18.4790   63.1560   24.6890 C.ar  161  MTX161      0.0058
     22  C         18.3370   65.3720   25.7980 C.2   161  MTX161      0.2652
     23  O         17.8450   66.1140   26.6700 O.2   161  MTX161     -0.2684
     24  N         19.1830   65.9160   24.9670 N.am  161  MTX161     -0.1918
     25  CA        19.6170   67.3450   24.9420 C.3   161  MTX161      0.1986
     26  CT        20.0650   67.5420   23.4860 C.2   161  MTX161      0.3842
     27  O1        20.3700   66.4970   22.8490 O.co2 161  MTX161     -0.2437
     28  O2        20.0260   68.7230   23.1330 O.co2 161  MTX161     -0.2437
     29  CB        20.9500   67.5760   25.7640 C.3   161  MTX161      0.0451
     30  CG        20.7710   67.5530   27.3710 C.3   161  MTX161      0.1164
     31  CD        19.9050   68.7780   27.8190 C.2   161  MTX161      0.3649
     32  OE1       18.8820   68.4420   28.4720 O.co2 161  MTX161     -0.2457
     33  OE2       20.1380   69.9180   27.3400 O.co2 161  MTX161     -0.2457
@<TRIPOS>BOND
     1     6     5    1
     2     5     4    2
     3     5     7    1
     4     4     2    2
     5    27    26   ar
     6     3     2    1
     7     2     1    2
     8    28    26   ar
     9     7     8    2
    10     7    12    1
    11     8     9    2
    12    26    25    1
    13     1    12    2
    14    12    11    2
    15     9    13    1
    16     9    10    1
    17    13    14    1
    18    20    21   ar
    19    20    19   ar
    20    21    16   ar
    21    25    24    1
    22    25    29    1
    23    24    22   am
    24    11    10    1
    25    14    19    1
    26    14    15    1
    27    19    18   ar
    28    16    22    1
    29    16    17   ar
    30    29    30    1
    31    22    23    2
    32    18    17   ar
    33    33    31   ar
    34    30    31    1
    35    31    32   ar
