@<TRIPOS>MOLECULE
1drb_MTX_A_1.pdb
 33 35 0 0 0
SMALL
GASTEIGER

@<TRIPOS>ATOM
      1  N1        23.0590   58.4760   23.8340 N.2   161  MTX161     -0.2684
      2  C2        23.6190   57.9300   22.7400 C.1   161  MTX161      0.2519
      3  NA2       24.8800   57.8130   22.6170 N.pl3 161  MTX161     -0.0226
      4  N3        22.7760   57.4040   21.7420 N.2   161  MTX161     -0.3033
      5  C4        21.4290   57.5550   21.7030 C.2   161  MTX161      0.2728
      6  NA4       20.7200   57.0820   20.7400 N.pl3 161  MTX161     -0.0887
      7  C4A       20.8420   58.1420   22.9230 C.2   161  MTX161      0.2518
      8  N5        19.5070   58.2830   22.9910 N.2   161  MTX161     -0.3917
      9  C6        19.0200   58.8410   24.1220 C.2   161  MTX161      0.1330
     10  C7        19.9360   59.2260   25.1110 C.3   161  MTX161      0.1930
     11  N8        21.2690   59.1500   25.0470 N.2   161  MTX161     -0.1998
     12  C8A       21.6780   58.5770   23.9150 C.1   161  MTX161      0.1314
     13  C9        17.5580   58.9600   24.2020 C.3   161  MTX161      0.1481
     14  N10       17.0580   59.8400   25.3020 N.pl3 161  MTX161     -0.2999
     15  CM        16.1180   59.2540   26.3030 C.3   161  MTX161      0.1125
     16  C11       17.9880   63.9350   25.5910 C.ar  161  MTX161      0.0551
     17  C12       17.1270   63.3100   26.5220 C.ar  161  MTX161      0.0058
     18  C13       16.8340   61.9640   26.4070 C.ar  161  MTX161      0.0147
     19  C14       17.4020   61.2050   25.3640 C.ar  161  MTX161      0.0482
     20  C15       18.2080   61.7870   24.4220 C.ar  161  MTX161      0.0147
     21  C16       18.4830   63.1520   24.5570 C.ar  161  MTX161      0.0058
     22  C         18.3370   65.3540   25.6640 C.2   161  MTX161      0.2652
     23  O         17.8280   66.1040   26.5200 O.2   161  MTX161     -0.2684
     24  N         19.2000   65.8750   24.8590 N.am  161  MTX161     -0.1918
     25  CA        19.5820   67.3380   24.8450 C.3   161  MTX161      0.1986
     26  CT        20.0320   67.5830   23.3730 C.2   161  MTX161      0.3842
     27  O1        20.3700   66.5620   22.7450 O.co2 161  MTX161     -0.2437
     28  O2        19.9930   68.7520   23.0150 O.co2 161  MTX161     -0.2437
     29  CB        20.9170   67.5410   25.6770 C.3   161  MTX161      0.0451
     30  CG        20.7110   67.5940   27.2450 C.3   161  MTX161      0.1164
     31  CD        19.8990   68.8270   27.7150 C.2   161  MTX161      0.3649
     32  OE1       19.3700   68.5970   28.8370 O.co2 161  MTX161     -0.2457
     33  OE2       19.7880   69.8810   27.0460 O.co2 161  MTX161     -0.2457
@<TRIPOS>BOND
     1     6     5    1
     2     5     4    2
     3     5     7    1
     4     4     2    2
     5     3     2    1
     6     2     1    2
     7    27    26   ar
     8     7     8    2
     9     7    12    1
    10     8     9    2
    11    28    26   ar
    12    26    25    1
    13     1    12    2
    14    12    11    2
    15     9    13    1
    16     9    10    1
    17    13    14    1
    18    20    21   ar
    19    20    19   ar
    20    21    16   ar
    21    25    24    1
    22    25    29    1
    23    24    22   am
    24    11    10    1
    25    14    19    1
    26    14    15    1
    27    19    18   ar
    28    16    22    1
    29    16    17   ar
    30    22    23    2
    31    29    30    1
    32    18    17   ar
    33    33    31   ar
    34    30    31    1
    35    31    32   ar
