@<TRIPOS>MOLECULE
1dre_MTX_A_1.pdb
 33 35 0 0 0
SMALL
GASTEIGER

@<TRIPOS>ATOM
      1  N1        19.0330   20.7460   38.6230 N.2   161  MTX161     -0.2684
      2  C2        17.7230   20.4770   38.6140 C.1   161  MTX161      0.2519
      3  NA2       17.0490   20.0150   39.6180 N.pl3 161  MTX161     -0.0226
      4  N3        17.0100   20.6990   37.4020 N.2   161  MTX161     -0.3033
      5  C4        17.5390   21.1720   36.2320 C.2   161  MTX161      0.2728
      6  NA4       16.8460   21.3590   35.1380 N.pl3 161  MTX161     -0.0887
      7  C4A       18.9610   21.4470   36.3090 C.2   161  MTX161      0.2518
      8  N5        19.5770   21.8060   35.1560 N.2   161  MTX161     -0.3917
      9  C6        20.9190   21.9300   35.1660 C.2   161  MTX161      0.1330
     10  C7        21.5620   21.6650   36.3830 C.3   161  MTX161      0.1930
     11  N8        20.9560   21.2990   37.5090 N.2   161  MTX161     -0.1998
     12  C8A       19.6160   21.2130   37.4490 C.1   161  MTX161      0.1314
     13  C9        21.5630   22.3490   33.8820 C.3   161  MTX161      0.1481
     14  N10       23.0440   22.1020   33.9140 N.pl3 161  MTX161     -0.2999
     15  CM        23.9640   23.2550   33.8090 C.3   161  MTX161      0.1125
     16  C11       24.5880   18.2630   34.4440 C.ar  161  MTX161      0.0551
     17  C12       25.3820   19.4050   34.4220 C.ar  161  MTX161      0.0058
     18  C13       24.8830   20.6410   34.2470 C.ar  161  MTX161      0.0147
     19  C14       23.4960   20.7790   34.0930 C.ar  161  MTX161      0.0482
     20  C15       22.6630   19.7150   34.1040 C.ar  161  MTX161      0.0147
     21  C16       23.2250   18.4230   34.2870 C.ar  161  MTX161      0.0058
     22  C         25.1710   16.9280   34.6190 C.2   161  MTX161      0.2652
     23  O         26.3900   16.7400   34.6980 O.2   161  MTX161     -0.2684
     24  N         24.4130   15.8720   34.6990 N.am  161  MTX161     -0.1918
     25  CA        25.0010   14.5630   35.0530 C.3   161  MTX161      0.1986
     26  CT        23.9630   13.5390   34.7060 C.2   161  MTX161      0.3842
     27  O1        22.7240   13.7710   34.7440 O.co2 161  MTX161     -0.2437
     28  O2        24.4480   12.4370   34.4380 O.co2 161  MTX161     -0.2437
     29  CB        25.1650   14.5010   36.6240 C.3   161  MTX161      0.0451
     30  CG        26.5970   14.1120   37.3330 C.3   161  MTX161      0.1164
     31  CD        27.7600   15.1170   37.0200 C.2   161  MTX161      0.3649
     32  OE1       28.8550   14.5080   37.0170 O.co2 161  MTX161     -0.2457
     33  OE2       27.6350   16.3310   36.7330 O.co2 161  MTX161     -0.2457
@<TRIPOS>BOND
     1    15    14    1
     2    13    14    1
     3    13     9    1
     4    14    19    1
     5    19    20   ar
     6    19    18   ar
     7    20    21   ar
     8    18    17   ar
     9    21    16   ar
    10    17    16   ar
    11    28    26   ar
    12    16    22    1
    13    22    23    2
    14    22    24   am
    15    24    25    1
    16    26    27   ar
    17    26    25    1
    18    25    29    1
    19     6     5    1
    20     8     9    2
    21     8     7    2
    22     9    10    1
    23     5     7    1
    24     5     4    2
    25     7    12    1
    26    10    11    1
    27    29    30    1
    28    33    31   ar
    29    32    31   ar
    30    31    30    1
    31     4     2    2
    32    12    11    2
    33    12     1    2
    34     2     1    2
    35     2     3    1
