@<TRIPOS>MOLECULE
1dre_NAP_A_1.pdb
 48 52 0 0 0
SMALL
GASTEIGER

@<TRIPOS>ATOM
      1  PA        17.3600   28.7120   27.6110 P.3   164  NAP164      0.2189
      2  O1A       15.8980   28.6160   27.8050 O.2   164  NAP164     -0.5170
      3  O2A       18.2140   27.6210   28.1430 O.3   164  NAP164     -0.4371
      4  O5B       17.7860   29.0760   26.1200 O.3   164  NAP164     -0.3112
      5  C5B       16.9340   29.8770   25.2720 C.3   164  NAP164      0.1813
      6  C4B       17.0850   29.7580   23.7680 C.3   164  NAP164      0.1820
      7  O4B       16.0720   28.8710   23.2740 O.3   164  NAP164     -0.3136
      8  C3B       16.6800   30.9480   22.9060 C.3   164  NAP164      0.2157
      9  O3B       17.7380   31.8640   23.0400 O.3   164  NAP164     -0.2175
     10  C2B       16.5170   30.3850   21.4980 C.3   164  NAP164      0.2314
     11  O2B       17.7810   30.1070   20.8820 O.3   164  NAP164     -0.2630
     12  C1B       15.9430   29.0250   21.8620 C.3   164  NAP164      0.3158
     13  N9A       14.5140   28.8190   21.8640 N.pl3 164  NAP164     -0.1439
     14  C8A       13.6790   28.8900   22.9240 C.3   164  NAP164      0.3377
     15  N7A       12.4300   28.6260   22.6260 N.2   164  NAP164     -0.2095
     16  C5A       12.4640   28.3570   21.2800 C.2   164  NAP164      0.2526
     17  C6A       11.4620   27.9980   20.3530 C.2   164  NAP164      0.4393
     18  N6A       10.1630   27.8360   20.6380 N.pl3 164  NAP164      0.2180
     19  N1A       11.8690   27.8080   19.1050 N.2   164  NAP164      0.0021
     20  C2A       13.1770   27.9750   18.8110 C.3   164  NAP164      0.5254
     21  N3A       14.1980   28.3060   19.5880 N.2   164  NAP164     -0.0055
     22  C4A       13.7570   28.4700   20.8160 C.2   164  NAP164      0.3518
     23  O3        17.9000   30.1340   28.0750 O.3   164  NAP164     -0.2703
     24  PN        17.5480   31.0930   29.3470 P.3   164  NAP164      0.2189
     25  O1N       16.0710   31.1920   29.4230 O.3   164  NAP164     -0.4371
     26  O2N       18.3760   32.3310   29.2910 O.2   164  NAP164     -0.5170
     27  O5D       18.1630   30.1640   30.5000 O.3   164  NAP164     -0.3112
     28  C5D       19.5070   30.3430   31.1910 C.3   164  NAP164      0.1813
     29  C4D       19.5940   30.2500   32.7680 C.3   164  NAP164      0.1799
     30  O4D       18.8720   29.0390   33.2230 O.3   164  NAP164     -0.3327
     31  C3D       20.9970   29.7330   33.2030 C.3   164  NAP164      0.2158
     32  O3D       21.8450   30.3870   34.0280 O.3   164  NAP164     -0.2175
     33  C2D       21.0910   28.1920   33.3450 C.3   164  NAP164      0.2309
     34  O2D       22.0920   27.7470   34.1520 O.3   164  NAP164     -0.2158
     35  C1D       19.7490   27.9880   33.7660 C.3   164  NAP164      0.2263
     36  N1N       19.0800   26.6510   34.0660 N.pl3 164  NAP164     -0.2787
     37  C2N       18.7560   26.3280   35.3850 C.3   164  NAP164      0.1244
     38  C3N       18.1330   25.2190   35.7310 C.2   164  NAP164      0.0544
     39  C7N       17.9490   25.2020   37.1770 C.2   164  NAP164      0.2818
     40  O7N       17.1620   24.4280   37.7900 O.2   164  NAP164     -0.2670
     41  N7N       18.4610   26.2890   37.7520 N.am  164  NAP164     -0.0839
     42  C4N       17.6840   24.1620   34.6800 C.2   164  NAP164      0.0033
     43  C5N       18.1140   24.6790   33.3060 C.2   164  NAP164      0.0157
     44  C6N       18.7160   25.7800   33.0800 C.2   164  NAP164      0.0633
     45  P2B       18.6120   30.7370   19.6640 P.3   164  NAP164      0.5328
     46  O1X       18.5450   29.4570   18.7750 O.2   164  NAP164     -0.2224
     47  O2X       17.9230   31.9910   19.1770 O.3   164  NAP164     -0.1145
     48  O3X       20.0800   31.0770   19.9330 O.3   164  NAP164     -0.1145
@<TRIPOS>BOND
     1    46    45    2
     2    20    19    1
     3    20    21    1
     4    19    17    2
     5    47    45    1
     6    21    22    2
     7    45    48    1
     8    45    11    1
     9    17    18    1
    10    17    16    1
    11    22    16    1
    12    22    13    1
    13    11    10    1
    14    16    15    2
    15    10    12    1
    16    10     8    1
    17    12    13    1
    18    12     7    1
    19    13    14    1
    20    15    14    1
    21     8     9    1
    22     8     6    1
    23     7     6    1
    24     6     5    1
    25     5     4    1
    26     4     1    1
    27     1     2    2
    28     1    23    1
    29     1     3    1
    30    23    24    1
    31    26    24    2
    32    24    25    1
    33    24    27    1
    34    27    28    1
    35    28    29    1
    36    29    31    1
    37    29    30    1
    38    44    43    2
    39    44    36    1
    40    31    33    1
    41    31    32    1
    42    30    35    1
    43    43    42    1
    44    33    35    1
    45    33    34    1
    46    35    36    1
    47    36    37    1
    48    42    38    2
    49    37    38    1
    50    38    39    1
    51    39    41   am
    52    39    40    2
