@<TRIPOS>MOLECULE
1drf_FOL_A_1.pdb
 32 34 0 0 0
SMALL
GASTEIGER

@<TRIPOS>ATOM
      1  N1        26.7790   12.3250   -3.9960 N.2   187  FOL187     -0.2672
      2  C2        27.6840   12.4530   -5.0330 C.1   187  FOL187      0.2609
      3  NA2       27.1130   12.2700   -6.2180 N.pl3 187  FOL187     -0.0220
      4  N3        28.9810   12.7000   -4.9320 N.2   187  FOL187     -0.2466
      5  C4        29.7010   12.8290   -3.7910 C.1   187  FOL187      0.2569
      6  O4        30.9150   13.0540   -3.7040 O.2   187  FOL187     -0.2052
      7  C4A       28.7380   12.6730   -2.6350 C.2   187  FOL187      0.2988
      8  N5        29.2680   12.6240   -1.3690 N.2   187  FOL187     -0.3839
      9  C6        28.4980   12.4620   -0.3420 C.2   187  FOL187      0.1356
     10  C7        27.0430   12.3410   -0.5410 C.3   187  FOL187      0.1931
     11  N8        26.5520   12.2620   -1.7680 N.2   187  FOL187     -0.1992
     12  C8A       27.4920   12.5140   -2.8190 C.1   187  FOL187      0.1401
     13  C9        28.9900   12.5250    1.1070 C.3   187  FOL187      0.1683
     14  N10       30.3320   13.2350    1.3900 N.pl3 187  FOL187     -0.2303
     15  C11       31.5360   17.2770    0.3030 C.ar  187  FOL187      0.0551
     16  C12       32.3650   16.4270    1.0490 C.ar  187  FOL187      0.0059
     17  C13       32.0210   15.1060    1.4090 C.ar  187  FOL187      0.0162
     18  C14       30.7880   14.6640    1.0440 C.ar  187  FOL187      0.0658
     19  C15       29.9370   15.5370    0.2210 C.ar  187  FOL187      0.0162
     20  C16       30.3140   16.8360   -0.0660 C.ar  187  FOL187      0.0059
     21  C         31.9610   18.7180   -0.0800 C.2   187  FOL187      0.2652
     22  O         33.0810   19.0850    0.5270 O.2   187  FOL187     -0.2684
     23  N         31.1630   19.3840   -1.0100 N.am  187  FOL187     -0.1918
     24  CA        31.4120   20.7660   -1.7380 C.3   187  FOL187      0.1986
     25  CB        31.7170   20.3840   -3.0920 C.3   187  FOL187      0.0451
     26  CG        32.3170   21.4470   -4.1090 C.3   187  FOL187      0.1164
     27  CD        33.4940   21.3720   -5.3010 C.2   187  FOL187      0.3649
     28  OE1       33.6260   21.7680   -6.5840 O.co2 187  FOL187     -0.2457
     29  OE2       34.5030   20.7030   -4.6610 O.co2 187  FOL187     -0.2457
     30  CT        30.0720   21.2440   -1.6320 C.2   187  FOL187      0.3842
     31  O1        30.0310   22.3750   -1.2720 O.co2 187  FOL187     -0.2437
     32  O2        28.8850   20.7070   -1.8160 O.co2 187  FOL187     -0.2437
@<TRIPOS>BOND
     1    28    27   ar
     2     3     2    1
     3    27    29   ar
     4    27    26    1
     5     2     4    2
     6     2     1    2
     7     4     5    2
     8    26    25    1
     9     1    12    2
    10     5     6    2
    11     5     7    1
    12    25    24    1
    13    12     7    1
    14    12    11    2
    15     7     8    2
    16    32    30   ar
    17    11    10    1
    18    24    30    1
    19    24    23    1
    20    30    31   ar
    21     8     9    2
    22    23    21   am
    23    10     9    1
    24     9    13    1
    25    21    15    1
    26    21    22    2
    27    20    19   ar
    28    20    15   ar
    29    19    18   ar
    30    15    16   ar
    31    18    14    1
    32    18    17   ar
    33    16    17   ar
    34    13    14    1
