@<TRIPOS>MOLECULE
1drh_NAP_A_1.pdb
 48 52 0 0 0
SMALL
GASTEIGER

@<TRIPOS>ATOM
      1  PA        16.9600   28.3880   28.3300 P.3   164  NAP164      0.2189
      2  O1A       15.5160   28.2110   28.4980 O.2   164  NAP164     -0.5170
      3  O2A       17.9450   27.4080   28.8630 O.3   164  NAP164     -0.4371
      4  O5B       17.3600   28.7080   26.8400 O.3   164  NAP164     -0.3112
      5  C5B       16.4790   29.5400   26.0500 C.3   164  NAP164      0.1813
      6  C4B       16.7760   29.5110   24.5720 C.3   164  NAP164      0.1820
      7  O4B       16.0210   28.4010   24.0530 O.3   164  NAP164     -0.3136
      8  C3B       16.2240   30.6780   23.7650 C.3   164  NAP164      0.2157
      9  O3B       17.1930   31.6890   23.5640 O.3   164  NAP164     -0.2175
     10  C2B       15.8810   30.0090   22.4550 C.3   164  NAP164      0.2314
     11  O2B       17.1160   29.6520   21.8850 O.3   164  NAP164     -0.2630
     12  C1B       15.4600   28.6830   22.8610 C.3   164  NAP164      0.3158
     13  N9A       14.0950   28.4900   22.9410 N.pl3 164  NAP164     -0.1439
     14  C8A       13.2440   28.5160   23.9790 C.3   164  NAP164      0.3377
     15  N7A       11.9970   28.2380   23.6920 N.2   164  NAP164     -0.2095
     16  C5A       12.0500   28.0090   22.3430 C.2   164  NAP164      0.2526
     17  C6A       11.0500   27.6740   21.4110 C.2   164  NAP164      0.4393
     18  N6A        9.7420   27.4880   21.7150 N.pl3 164  NAP164      0.2180
     19  N1A       11.4710   27.5220   20.1460 N.2   164  NAP164      0.0021
     20  C2A       12.7850   27.7060   19.8580 C.3   164  NAP164      0.5254
     21  N3A       13.8090   28.0350   20.6470 N.2   164  NAP164     -0.0055
     22  C4A       13.3530   28.1600   21.8800 C.2   164  NAP164      0.3518
     23  O3        17.4340   29.8120   28.7000 O.3   164  NAP164     -0.2703
     24  PN        17.1360   30.7740   29.9890 P.3   164  NAP164      0.2189
     25  O1N       15.6360   30.9580   30.1490 O.3   164  NAP164     -0.4371
     26  O2N       18.1510   31.9340   29.9320 O.2   164  NAP164     -0.5170
     27  O5D       17.6180   29.7330   31.1390 O.3   164  NAP164     -0.3112
     28  C5D       19.1560   29.9620   31.4490 C.3   164  NAP164      0.1813
     29  C4D       19.4310   29.7350   33.0350 C.3   164  NAP164      0.1799
     30  O4D       18.8140   28.4710   33.4630 O.3   164  NAP164     -0.3327
     31  C3D       20.8340   29.4110   33.4110 C.3   164  NAP164      0.2158
     32  O3D       21.3520   30.1770   34.3850 O.3   164  NAP164     -0.2175
     33  C2D       20.8010   27.9360   33.8720 C.3   164  NAP164      0.2309
     34  O2D       21.8530   27.8080   34.7040 O.3   164  NAP164     -0.2158
     35  C1D       19.5930   27.9410   34.4740 C.3   164  NAP164      0.2263
     36  N1N       18.9590   26.6220   34.8040 N.pl3 164  NAP164     -0.2787
     37  C2N       18.5990   26.2250   36.1050 C.3   164  NAP164      0.1244
     38  C3N       18.0430   25.0630   36.3940 C.2   164  NAP164      0.0544
     39  C7N       17.7320   24.8180   37.8080 C.2   164  NAP164      0.2818
     40  O7N       16.9410   23.9330   38.2490 O.2   164  NAP164     -0.2670
     41  N7N       18.0860   25.7620   38.6730 N.am  164  NAP164     -0.0839
     42  C4N       17.7080   24.0460   35.2880 C.2   164  NAP164      0.0033
     43  C5N       18.1280   24.5720   33.8840 C.2   164  NAP164      0.0157
     44  C6N       18.6760   25.7330   33.7830 C.2   164  NAP164      0.0633
     45  P2B       17.4570   30.1390   20.4330 P.3   164  NAP164      0.5328
     46  O1X       18.0830   28.9190   19.6770 O.2   164  NAP164     -0.2224
     47  O2X       16.1230   30.6710   19.9750 O.3   164  NAP164     -0.1145
     48  O3X       18.5540   31.1580   20.7080 O.3   164  NAP164     -0.1145
@<TRIPOS>BOND
     1    46    45    2
     2    20    19    1
     3    20    21    1
     4    47    45    1
     5    19    17    2
     6    45    48    1
     7    45    11    1
     8    21    22    2
     9    17    18    1
    10    17    16    1
    11    22    16    1
    12    22    13    1
    13    11    10    1
    14    16    15    2
    15    10    12    1
    16    10     8    1
    17    12    13    1
    18    12     7    1
    19    13    14    1
    20     9     8    1
    21    15    14    1
    22     8     6    1
    23     7     6    1
    24     6     5    1
    25     5     4    1
    26     4     1    1
    27     1     2    2
    28     1    23    1
    29     1     3    1
    30    23    24    1
    31    26    24    2
    32    24    25    1
    33    24    27    1
    34    27    28    1
    35    28    29    1
    36    29    31    1
    37    29    30    1
    38    31    33    1
    39    31    32    1
    40    30    35    1
    41    44    43    2
    42    44    36    1
    43    33    35    1
    44    33    34    1
    45    43    42    1
    46    35    36    1
    47    36    37    1
    48    42    38    2
    49    37    38    1
    50    38    39    1
    51    39    40    2
    52    39    41   am
