@<TRIPOS>MOLECULE
1drj_RIP_A_1.pdb
 20 20 0 0 0
SMALL
GASTEIGER

@<TRIPOS>ATOM
      1  C1        50.1230   34.0140   43.2800 C.3   272  RIP272      0.1850
      2  C2        49.4070   33.4660   44.5170 C.3   272  RIP272      0.1339
      3  C3        49.0130   34.5990   45.4310 C.3   272  RIP272      0.1137
      4  C4        50.2290   35.4740   45.7600 C.3   272  RIP272      0.1069
      5  C5        50.9290   35.9190   44.4860 C.3   272  RIP272      0.0792
      6  O1        50.5470   32.9690   42.4360 O.3   272  RIP272     -0.3649
      7  O2        48.2460   32.7680   44.1460 O.3   272  RIP272     -0.3841
      8  O3        48.0230   35.3570   44.7770 O.3   272  RIP272     -0.3864
      9  O4        49.8410   36.6150   46.4860 O.3   272  RIP272     -0.3869
     10  O5        51.2510   34.7940   43.6660 O.3   272  RIP272     -0.3462
     11  H1        49.4440   34.6770   42.7200 H     272  RIP272      0.0935
     12  H2        50.0930   32.7950   45.0520 H     272  RIP272      0.0671
     13  H3        48.6110   34.1810   46.3630 H     272  RIP272      0.0647
     14  H4        50.9360   34.8830   46.3580 H     272  RIP272      0.0643
     15  H51       51.8610   36.4440   44.7340 H     272  RIP272      0.0587
     16  H52       50.2770   36.5940   43.9170 H     272  RIP272      0.0587
     17  HO1       49.8010   32.4060   42.2230 H     272  RIP272      0.2126
     18  HO2       48.4660   32.1170   43.4750 H     272  RIP272      0.2101
     19  HO3       48.3980   35.7560   43.9880 H     272  RIP272      0.2100
     20  HO4       50.5660   37.2420   46.5060 H     272  RIP272      0.2100
@<TRIPOS>BOND
     1    17     6    1
     2     6     1    1
     3    11     1    1
     4     1    10    1
     5     1     2    1
     6    18     7    1
     7    10     5    1
     8    16     5    1
     9    19     8    1
    10     7     2    1
    11     5    15    1
    12     5     4    1
    13     2    12    1
    14     2     3    1
    15     8     3    1
    16     3     4    1
    17     3    13    1
    18     4    14    1
    19     4     9    1
    20     9    20    1
