@<TRIPOS>MOLECULE
1drk_RIP_A_1.pdb
 20 20 0 0 0
SMALL
GASTEIGER

@<TRIPOS>ATOM
      1  C1        49.7320   33.6320   43.6180 C.3   272  RIP272      0.1850
      2  C2        49.0360   33.0990   44.8940 C.3   272  RIP272      0.1339
      3  C3        48.7010   34.2690   45.8230 C.3   272  RIP272      0.1137
      4  C4        49.9470   35.1320   46.0490 C.3   272  RIP272      0.1069
      5  C5        50.5770   35.5630   44.7470 C.3   272  RIP272      0.0792
      6  O1        50.1480   32.5760   42.7790 O.3   272  RIP272     -0.3649
      7  O2        47.8400   32.3830   44.5820 O.3   272  RIP272     -0.3841
      8  O3        47.6530   35.0530   45.2730 O.3   272  RIP272     -0.3864
      9  O4        49.6110   36.2780   46.7640 O.3   272  RIP272     -0.3869
     10  O5        50.8780   34.4250   43.9670 O.3   272  RIP272     -0.3462
     11  H1        49.0390   34.2840   43.0590 H     272  RIP272      0.0935
     12  H2        49.7360   32.4300   45.4130 H     272  RIP272      0.0671
     13  H3        48.3760   33.8640   46.7880 H     272  RIP272      0.0647
     14  H4        50.6790   34.5450   46.6200 H     272  RIP272      0.0643
     15  H51       51.5070   36.1180   44.9350 H     272  RIP272      0.0587
     16  H52       49.8820   36.1990   44.1840 H     272  RIP272      0.0587
     17  HO1       49.3920   32.0220   42.5690 H     272  RIP272      0.2126
     18  HO2       47.4740   32.0060   45.3860 H     272  RIP272      0.2101
     19  HO3       47.9180   35.3720   44.4070 H     272  RIP272      0.2100
     20  HO4       49.4710   36.0460   47.6840 H     272  RIP272      0.2100
@<TRIPOS>BOND
     1    17     6    1
     2     6     1    1
     3    11     1    1
     4     1    10    1
     5     1     2    1
     6    10     5    1
     7    16     5    1
     8    19     8    1
     9     7     2    1
    10     7    18    1
    11     5    15    1
    12     5     4    1
    13     2    12    1
    14     2     3    1
    15     8     3    1
    16     3     4    1
    17     3    13    1
    18     4    14    1
    19     4     9    1
    20     9    20    1
