@<TRIPOS>MOLECULE
1drm_HEM_A_1.pdb
 43 50 0 0 0
SMALL
GASTEIGER

@<TRIPOS>ATOM
      1 FE         48.7660   56.4990   34.0310 Fe    719  HEM719      0.0000
      2  CHA       45.6780   55.0080   33.2910 C.2   719  HEM719      0.0000
      3  CHB       50.3310   55.0010   31.3420 C.2   719  HEM719      0.0000
      4  CHC       51.8780   57.2310   35.2040 C.2   719  HEM719      0.0000
      5  CHD       47.2990   57.8980   36.9000 C.2   719  HEM719      0.0000
      6  NA        48.1880   55.2930   32.5800 N.ar  719  HEM719      0.0000
      7  C1A       46.8040   54.7520   32.4490 C.ar  719  HEM719      0.0000
      8  C2A       46.8260   53.8730   31.3320 C.ar  719  HEM719      0.0000
      9  C3A       48.1230   53.9010   30.8100 C.ar  719  HEM719      0.0000
     10  C4A       48.9220   54.7580   31.5730 C.ar  719  HEM719      0.0000
     11  CMA       48.7110   53.0840   29.5900 C.3   719  HEM719      0.0000
     12  CAA       45.6400   52.9160   31.0420 C.3   719  HEM719      0.0000
     13  CBA       45.4240   52.7980   29.6940 C.3   719  HEM719      0.0000
     14  CGA       44.5730   51.6310   29.4220 C.2   719  HEM719      0.0000
     15  O1A       43.5420   51.9540   28.7330 O.co2 719  HEM719      0.0000
     16  O2A       44.9160   50.4590   29.8300 O.co2 719  HEM719      0.0000
     17  NB        50.6240   56.2950   33.4350 N.2   719  HEM719      0.0000
     18  C1B       51.0970   55.6220   32.1870 C.2   719  HEM719      0.0000
     19  C2B       52.4680   55.8150   31.9630 C.2   719  HEM719      0.0000
     20  C3B       52.9710   56.4160   33.0170 C.2   719  HEM719      0.0000
     21  C4B       51.8380   56.7420   33.9810 C.2   719  HEM719      0.0000
     22  CMB       53.2650   55.3670   30.7360 C.3   719  HEM719      0.0000
     23  CAB       54.4580   56.7280   33.0740 C.3   719  HEM719      0.0000
     24  CBB       54.7970   57.8290   34.1210 C.3   719  HEM719      0.0000
     25  NC        49.4360   57.3360   35.6050 N.ar  719  HEM719      0.0000
     26  C1C       50.7520   57.5280   35.9590 C.ar  719  HEM719      0.0000
     27  C2C       50.8190   58.1180   37.2970 C.ar  719  HEM719      0.0000
     28  C3C       49.6100   58.2490   37.7320 C.ar  719  HEM719      0.0000
     29  C4C       48.7430   57.7990   36.7400 C.ar  719  HEM719      0.0000
     30  CMC       52.1860   58.4880   38.0570 C.3   719  HEM719      0.0000
     31  CAC       48.9810   58.6070   39.1480 C.3   719  HEM719      0.0000
     32  CBC       49.9180   59.4630   39.9150 C.3   719  HEM719      0.0000
     33  ND        47.0590   56.5640   34.9060 N.2   719  HEM719      0.0000
     34  C1D       46.5380   57.2370   36.1170 C.2   719  HEM719      0.0000
     35  C2D       45.0700   57.0320   36.3010 C.2   719  HEM719      0.0000
     36  C3D       44.6250   56.3290   35.2820 C.2   719  HEM719      0.0000
     37  C4D       45.7690   55.9560   34.4530 C.2   719  HEM719      0.0000
     38  CMD       44.2320   57.5650   37.3760 C.3   719  HEM719      0.0000
     39  CAD       43.1640   55.8530   34.8020 C.3   719  HEM719      0.0000
     40  CBD       42.8250   54.4150   35.3400 C.3   719  HEM719      0.0000
     41  CGD       42.1890   53.1150   35.0330 C.2   719  HEM719      0.0000
     42  O1D       42.5490   52.3090   35.8850 O.co2 719  HEM719      0.0000
     43  O2D       42.1350   52.8390   33.8410 O.co2 719  HEM719      0.0000
@<TRIPOS>BOND
     1    15    14   ar
     2    14    13    1
     3    14    16   ar
     4    11     9    1
     5    13    12    1
     6    22    19    1
     7     9     8   ar
     8     9    10   ar
     9    12     8    1
    10     8     7   ar
    11     3    10    2
    12     3    18    1
    13    10     6   ar
    14    19    18    1
    15    19    20    2
    16    18    17    2
    17     7     6   ar
    18     7     2    2
    19     6     1    1
    20    20    23    1
    21    20    21    1
    22    23    24    1
    23     2    37    1
    24    17    21    1
    25    17     1    1
    26    43    41   ar
    27    21     4    2
    28     1    33    1
    29     1    25    1
    30    37    33    2
    31    37    36    1
    32    39    36    1
    33    39    40    1
    34    33    34    1
    35    41    40    1
    36    41    42   ar
    37     4    26    1
    38    36    35    2
    39    25    26   ar
    40    25    29   ar
    41    26    27   ar
    42    34    35    1
    43    34     5    2
    44    35    38    1
    45    29     5    1
    46    29    28   ar
    47    27    28   ar
    48    27    30    1
    49    28    31    1
    50    31    32    1
