@<TRIPOS>MOLECULE
1drt_AKG_A_1.pdb
 10 9 0 0 0
SMALL
GASTEIGER

@<TRIPOS>ATOM
      1  C1        -3.4530    4.7910    5.7250 C.2   326  AKG326      0.4219
      2  O1        -2.5930    3.9020    5.6730 O.co2 326  AKG326     -0.2373
      3  O2        -3.6790    5.5140    6.8440 O.co2 326  AKG326     -0.2373
      4  C2        -4.2430    5.0630    4.5200 C.2   326  AKG326      0.2526
      5  O5        -3.8740    4.5830    3.4550 O.2   326  AKG326     -0.2843
      6  C3        -5.4750    5.9210    4.5930 C.3   326  AKG326      0.0881
      7  C4        -6.7380    5.0860    4.2670 C.3   326  AKG326      0.1224
      8  C5        -7.9860    5.8600    4.5950 C.2   326  AKG326      0.3653
      9  O3        -7.9820    7.0760    4.7170 O.co2 326  AKG326     -0.2456
     10  O4        -9.0860    5.1300    4.7270 O.co2 326  AKG326     -0.2456
@<TRIPOS>BOND
     1     5     4    2
     2     7     6    1
     3     7     8    1
     4     4     6    1
     5     4     1    1
     6     8     9   ar
     7     8    10   ar
     8     2     1   ar
     9     1     3   ar
