@<TRIPOS>MOLECULE
1drt_PCV_A_1.pdb
 14 14 0 0 0
SMALL
GASTEIGER

@<TRIPOS>ATOM
      1  N1         2.9350    6.8710    5.7630 N.am  327  PCV327     -0.2688
      2  C8         4.3100    6.5720    5.7890 C.2   327  PCV327      0.2278
      3  O1         5.3160    7.1050    5.3640 O.2   327  PCV327     -0.2748
      4  C9         4.0180    5.3430    6.5660 C.3   327  PCV327      0.1067
      5  C7         2.5840    5.7230    6.5100 C.3   327  PCV327      0.1035
      6  C1         2.1770    7.9770    5.1470 C.3   327  PCV327      0.2096
      7  C2         0.9700    7.5080    4.2380 C.3   327  PCV327      0.1826
      8  C4         1.2840    6.2750    3.3270 C.3   327  PCV327      0.0557
      9  C5         1.8680    6.6930    1.9510 C.3   327  PCV327      0.1120
     10  N2         1.1740    6.0560    0.8280 N.3   327  PCV327     -0.1313
     11  O3        -0.1250    7.1800    5.0400 O.3   327  PCV327     -0.2207
     12  C3         1.7340    9.0060    6.1940 C.2   327  PCV327      0.3850
     13  O2         1.7690   10.3040    5.9140 O.co2 327  PCV327     -0.2437
     14  O4         1.3450    8.6820    7.3090 O.co2 327  PCV327     -0.2437
@<TRIPOS>BOND
     1    10     9    1
     2     9     8    1
     3     8     7    1
     4     7    11    1
     5     7     6    1
     6     6     1    1
     7     6    12    1
     8     3     2    2
     9     1     2   am
    10     1     5    1
    11     2     4    1
    12    13    12   ar
    13    12    14   ar
    14     5     4    1
