@<TRIPOS>MOLECULE
1dru_NAD_A_1.pdb
 44 48 0 0 0
SMALL
GASTEIGER

@<TRIPOS>ATOM
      1  PA         6.4780   29.0500   18.1520 P.3   301  NAD301      0.2189
      2  O1A        5.9230   30.3160   17.6050 O.2   301  NAD301     -0.5170
      3  O2A        5.7250   27.8140   17.8190 O.3   301  NAD301     -0.4371
      4  O5B        7.9830   28.8960   17.5880 O.3   301  NAD301     -0.3112
      5  C5B        8.2720   28.0630   16.4920 C.3   301  NAD301      0.1813
      6  C4B        9.1400   28.8100   15.5200 C.3   301  NAD301      0.1821
      7  O4B       10.3300   28.0260   15.2460 O.3   301  NAD301     -0.3135
      8  C3B        8.4990   28.9160   14.1530 C.3   301  NAD301      0.2184
      9  O3B        9.0590   30.0870   13.5540 O.3   301  NAD301     -0.2174
     10  C2B        8.9390   27.6250   13.4390 C.3   301  NAD301      0.2570
     11  O2B        9.0400   27.6580   12.0180 O.3   301  NAD301     -0.2130
     12  C1B       10.3850   27.6820   13.8580 C.3   301  NAD301      0.3186
     13  N9A       10.9470   26.3510   13.5860 N.pl3 301  NAD301     -0.1439
     14  C8A       10.3440   25.2170   14.0770 C.3   301  NAD301      0.3377
     15  N7A       11.0080   24.1280   13.7840 N.2   301  NAD301     -0.2095
     16  C5A       12.0480   24.5390   12.9690 C.2   301  NAD301      0.2526
     17  C6A       13.0470   23.8190   12.2470 C.2   301  NAD301      0.4393
     18  N6A       13.2530   22.4760   12.3080 N.pl3 301  NAD301      0.2180
     19  N1A       13.9300   24.5540   11.5130 N.2   301  NAD301      0.0021
     20  C2A       13.7280   25.8850   11.4330 C.3   301  NAD301      0.5254
     21  N3A       12.7630   26.6630   11.9700 N.2   301  NAD301     -0.0055
     22  C4A       11.9880   25.9150   12.7880 C.2   301  NAD301      0.3518
     23  O3         6.6450   29.3450   19.6110 O.3   301  NAD301     -0.2703
     24  PN         7.6260   30.2870   20.1720 P.3   301  NAD301      0.2189
     25  O1N        6.6060   30.5910   21.2260 O.3   301  NAD301     -0.4371
     26  O2N        8.1920   31.2880   19.2220 O.2   301  NAD301     -0.5170
     27  O5D        8.8580   29.4710   20.8230 O.3   301  NAD301     -0.3112
     28  C5D       10.1960   29.6760   20.4010 C.3   301  NAD301      0.1813
     29  C4D       11.2880   28.9930   21.2190 C.3   301  NAD301      0.1799
     30  O4D       11.8670   29.8890   22.2030 O.3   301  NAD301     -0.3327
     31  C3D       10.9460   27.7180   22.0090 C.3   301  NAD301      0.2158
     32  O3D       11.9930   26.7110   22.0620 O.3   301  NAD301     -0.2175
     33  C2D       10.7110   28.2270   23.4270 C.3   301  NAD301      0.2309
     34  O2D       10.9390   27.1150   24.2910 O.3   301  NAD301     -0.2158
     35  C1D       11.7620   29.3370   23.5230 C.3   301  NAD301      0.2263
     36  N1N       11.5500   30.4110   24.5250 N.pl3 301  NAD301     -0.2787
     37  C2N       12.5840   30.8530   25.2540 C.3   301  NAD301      0.1244
     38  C3N       12.6840   31.9310   26.0420 C.2   301  NAD301      0.0544
     39  C7N       13.7940   32.2350   26.8100 C.2   301  NAD301      0.2818
     40  O7N       13.7160   33.3030   27.6960 O.2   301  NAD301     -0.2670
     41  N7N       14.7230   31.2930   26.7660 N.am  301  NAD301     -0.0839
     42  C4N       11.5160   32.5510   26.1850 C.2   301  NAD301      0.0033
     43  C5N       10.3710   32.1910   25.5260 C.2   301  NAD301      0.0157
     44  C6N       10.3840   31.0300   24.7160 C.2   301  NAD301      0.0633
@<TRIPOS>BOND
     1    20    19    1
     2    20    21    1
     3    19    17    2
     4    21    22    2
     5    11    10    1
     6    17    18    1
     7    17    16    1
     8    22    16    1
     9    22    13    1
    10    16    15    2
    11    10    12    1
    12    10     8    1
    13     9     8    1
    14    13    12    1
    15    13    14    1
    16    15    14    1
    17    12     7    1
    18     8     6    1
    19     7     6    1
    20     6     5    1
    21     5     4    1
    22     4     1    1
    23     2     1    2
    24     3     1    1
    25     1    23    1
    26    26    24    2
    27    23    24    1
    28    24    27    1
    29    24    25    1
    30    28    27    1
    31    28    29    1
    32    29    31    1
    33    29    30    1
    34    31    32    1
    35    31    33    1
    36    30    35    1
    37    33    35    1
    38    33    34    1
    39    35    36    1
    40    36    44    1
    41    36    37    1
    42    44    43    2
    43    37    38    1
    44    43    42    1
    45    38    42    2
    46    38    39    1
    47    41    39   am
    48    39    40    2
