@<TRIPOS>MOLECULE
1drv_A3D_A_1.pdb
 44 48 0 0 0
SMALL
GASTEIGER

@<TRIPOS>ATOM
      1  PA         6.4970   29.2330   18.0680 P.3   301  A3D301      0.2189
      2  O1A        5.3980   30.0940   17.5830 O.2   301  A3D301     -0.5170
      3  O2A        6.1500   27.8390   17.7880 O.3   301  A3D301     -0.4371
      4  O5B        7.7020   29.5480   17.0490 O.3   301  A3D301     -0.3112
      5  C5B        8.5670   28.5130   16.6890 C.3   301  A3D301      0.1813
      6  C4B        9.4700   29.0540   15.6130 C.3   301  A3D301      0.1821
      7  O4B       10.5320   28.1480   15.1970 O.3   301  A3D301     -0.3135
      8  C3B        8.7450   29.3410   14.3100 C.3   301  A3D301      0.2184
      9  O3B        9.4710   30.4400   13.7270 O.3   301  A3D301     -0.2174
     10  C2B        8.9610   28.0290   13.5330 C.3   301  A3D301      0.2570
     11  O2B        8.7910   28.0200   12.1220 O.3   301  A3D301     -0.2130
     12  C1B       10.4430   27.9030   13.7930 C.3   301  A3D301      0.3186
     13  N9A       10.7570   26.5140   13.6130 N.pl3 301  A3D301     -0.1439
     14  C8A       10.0530   25.4580   14.1710 C.3   301  A3D301      0.3377
     15  N7A       10.6750   24.3110   13.9940 N.2   301  A3D301     -0.2095
     16  C5A       11.7870   24.6160   13.2010 C.2   301  A3D301      0.2526
     17  C6A       12.7970   23.8220   12.6320 C.2   301  A3D301      0.4393
     18  N6A       12.9190   22.4810   12.7890 N.pl3 301  A3D301      0.2180
     19  N1A       13.7270   24.4810   11.8820 N.2   301  A3D301      0.0021
     20  C2A       13.6990   25.8180   11.7870 C.3   301  A3D301      0.5254
     21  N3A       12.7910   26.6600   12.2690 N.2   301  A3D301     -0.0055
     22  C4A       11.8560   25.9810   12.9580 C.2   301  A3D301      0.3518
     23  O3         7.0600   29.2950   19.4720 O.3   301  A3D301     -0.2703
     24  PN         7.8060   30.2900   20.2670 P.3   301  A3D301      0.2189
     25  O1N        6.6080   30.3520   21.1000 O.3   301  A3D301     -0.4371
     26  O2N        8.3120   31.5280   19.6720 O.2   301  A3D301     -0.5170
     27  O5D        8.9590   29.5430   21.0360 O.3   301  A3D301     -0.3112
     28  C5D       10.2430   29.9480   20.4760 C.3   301  A3D301      0.1813
     29  C4D       11.4100   29.2300   21.1560 C.3   301  A3D301      0.1799
     30  O4D       12.1450   30.0880   22.0870 O.3   301  A3D301     -0.3327
     31  C3D       10.9120   28.0460   21.9890 C.3   301  A3D301      0.2158
     32  O3D       11.7480   26.8430   22.0890 O.3   301  A3D301     -0.2175
     33  C2D       10.7110   28.7030   23.3330 C.3   301  A3D301      0.2309
     34  O2D       10.7130   27.7190   24.3500 O.3   301  A3D301     -0.2158
     35  C1D       11.9160   29.6350   23.4410 C.3   301  A3D301      0.2263
     36  N1N       11.5890   30.7520   24.3630 N.pl3 301  A3D301     -0.2787
     37  C2N       12.5450   31.1780   25.1900 C.3   301  A3D301      0.1226
     38  C3N       12.5600   32.2140   26.0230 C.2   301  A3D301      0.0324
     39  C7N       13.6550   32.5050   26.8740 C.2   301  A3D301      0.1712
     40  O7N       13.4710   33.2660   27.8420 O.2   301  A3D301     -0.2916
     41  C8N       14.9910   31.7760   26.7090 C.3   301  A3D301      0.0770
     42  C4N       11.3770   32.8740   25.9620 C.2   301  A3D301      0.0015
     43  C5N       10.2740   32.5470   25.1700 C.2   301  A3D301      0.0157
     44  C6N       10.3830   31.3930   24.3650 C.2   301  A3D301      0.0633
@<TRIPOS>BOND
     1    20    19    1
     2    20    21    1
     3    19    17    2
     4    11    10    1
     5    21    22    2
     6    17    18    1
     7    17    16    1
     8    22    16    1
     9    22    13    1
    10    16    15    2
    11    10    12    1
    12    10     8    1
    13    13    12    1
    14    13    14    1
    15     9     8    1
    16    12     7    1
    17    15    14    1
    18     8     6    1
    19     7     6    1
    20     6     5    1
    21     5     4    1
    22     4     1    1
    23     2     1    2
    24     3     1    1
    25     1    23    1
    26    23    24    1
    27    26    24    2
    28    24    27    1
    29    24    25    1
    30    28    27    1
    31    28    29    1
    32    29    31    1
    33    29    30    1
    34    31    32    1
    35    31    33    1
    36    30    35    1
    37    33    35    1
    38    33    34    1
    39    35    36    1
    40    36    44    1
    41    36    37    1
    42    44    43    2
    43    43    42    1
    44    37    38    1
    45    42    38    2
    46    38    39    1
    47    41    39    1
    48    39    40    2
