@<TRIPOS>MOLECULE
1drw_NHD_A_1.pdb
 44 48 0 0 0
SMALL
GASTEIGER

@<TRIPOS>ATOM
      1  PA        29.8920   10.4740   17.1050 P.3   301  NHD301      0.2189
      2  O1A       30.7810    9.2700   17.2530 O.3   301  NHD301     -0.4371
      3  O2A       30.3990   11.8290   16.7510 O.2   301  NHD301     -0.5170
      4  O5B       29.0250   10.0050   15.8450 O.3   301  NHD301     -0.3112
      5  C5B       27.9920   10.7640   15.2460 C.3   301  NHD301      0.1813
      6  C4B       27.2090    9.7200   14.5190 C.3   301  NHD301      0.1821
      7  O4B       26.0190   10.3130   13.9580 O.3   301  NHD301     -0.3135
      8  C3B       27.9200    9.0970   13.3460 C.3   301  NHD301      0.2184
      9  O3B       27.1610    7.9440   13.1060 O.3   301  NHD301     -0.2174
     10  C2B       27.6420   10.2080   12.3180 C.3   301  NHD301      0.2570
     11  O2B       28.0080   10.0320   10.9330 O.3   301  NHD301     -0.2130
     12  C1B       26.1330   10.3460   12.5480 C.3   301  NHD301      0.3186
     13  N9A       25.6130   11.6610   12.1650 N.pl3 301  NHD301     -0.1435
     14  C8A       25.9600   12.9690   12.5130 C.3   301  NHD301      0.3382
     15  N7A       25.1120   13.8540   12.0550 N.2   301  NHD301     -0.2054
     16  C5A       24.1650   13.0610   11.3730 C.2   301  NHD301      0.2446
     17  C6A       23.0400   13.4050   10.5780 C.1   301  NHD301      0.1792
     18  O6A       22.7100   14.7130   10.3670 O.2   301  NHD301     -0.2203
     19  N1A       22.2240   12.3800   10.1520 N.2   301  NHD301     -0.1458
     20  C2A       22.5990   11.1140   10.3490 C.3   301  NHD301      0.4017
     21  N3A       23.6930   10.6700   10.9800 N.2   301  NHD301     -0.0334
     22  C4A       24.4120   11.7020   11.4960 C.2   301  NHD301      0.3528
     23  O3        29.0480   10.5700   18.3570 O.3   301  NHD301     -0.2703
     24  PN        28.6520    9.6380   19.4570 P.3   301  NHD301      0.2189
     25  O1N       29.7350    9.9320   20.4610 O.3   301  NHD301     -0.4371
     26  O2N       28.1750    8.2770   19.0440 O.2   301  NHD301     -0.5170
     27  O5D       27.4700   10.4630   20.1130 O.3   301  NHD301     -0.3112
     28  C5D       26.1790   10.2560   19.5750 C.3   301  NHD301      0.1813
     29  C4D       25.1540   10.9800   20.4120 C.3   301  NHD301      0.1799
     30  O4D       24.9560   10.2150   21.6370 O.3   301  NHD301     -0.3327
     31  C3D       25.5550   12.3980   20.8340 C.3   301  NHD301      0.2158
     32  O3D       24.4480   13.4010   20.5970 O.3   301  NHD301     -0.2175
     33  C2D       25.8930   12.1630   22.3260 C.3   301  NHD301      0.2309
     34  O2D       25.8340   13.3750   23.0570 O.3   301  NHD301     -0.2158
     35  C1D       24.8500   11.1110   22.7120 C.3   301  NHD301      0.2263
     36  N1N       25.1110   10.2560   23.8380 N.pl3 301  NHD301     -0.2787
     37  C2N       24.1270   10.0200   24.7470 C.3   301  NHD301      0.1244
     38  C3N       24.1320    9.2090   25.8560 C.2   301  NHD301      0.0544
     39  C7N       22.9450    8.8650   26.5870 C.2   301  NHD301      0.2818
     40  O7N       22.9060    7.7560   27.4690 O.2   301  NHD301     -0.2670
     41  N7N       21.8410    9.5080   26.2080 N.am  301  NHD301     -0.0839
     42  C4N       25.3140    8.5360   25.9230 C.2   301  NHD301      0.0033
     43  C5N       26.4020    8.6820   25.0430 C.2   301  NHD301      0.0157
     44  C6N       26.2890    9.5680   23.9320 C.2   301  NHD301      0.0633
@<TRIPOS>BOND
     1    19    20    1
     2    19    17    2
     3    20    21    1
     4    18    17    2
     5    17    16    1
     6    11    10    1
     7    21    22    2
     8    16    22    1
     9    16    15    2
    10    22    13    1
    11    15    14    1
    12    13    14    1
    13    13    12    1
    14    10    12    1
    15    10     8    1
    16    12     7    1
    17     9     8    1
    18     8     6    1
    19     7     6    1
    20     6     5    1
    21     5     4    1
    22     4     1    1
    23     3     1    2
    24     1     2    1
    25     1    23    1
    26    23    24    1
    27    26    24    2
    28    24    27    1
    29    24    25    1
    30    28    27    1
    31    28    29    1
    32    29    31    1
    33    29    30    1
    34    32    31    1
    35    31    33    1
    36    30    35    1
    37    33    35    1
    38    33    34    1
    39    35    36    1
    40    36    44    1
    41    36    37    1
    42    44    43    2
    43    37    38    1
    44    43    42    1
    45    38    42    2
    46    38    39    1
    47    41    39   am
    48    39    40    2
