@<TRIPOS>MOLECULE
1dry_AKG_A_1.pdb
 10 9 0 0 0
SMALL
GASTEIGER

@<TRIPOS>ATOM
      1  C1        -3.2280    4.7940    5.9220 C.2   330  AKG330      0.4219
      2  O1        -2.2480    4.0250    5.8880 O.co2 330  AKG330     -0.2373
      3  O2        -3.6090    5.5020    6.9870 O.co2 330  AKG330     -0.2373
      4  C2        -3.9380    4.9710    4.6890 C.2   330  AKG330      0.2526
      5  O5        -3.4680    4.4360    3.7190 O.2   330  AKG330     -0.2843
      6  C3        -5.1610    5.8420    4.6250 C.3   330  AKG330      0.0881
      7  C4        -6.4170    4.9560    4.6540 C.3   330  AKG330      0.1224
      8  C5        -7.6950    5.7920    4.6870 C.2   330  AKG330      0.3653
      9  O3        -7.7080    7.0210    4.7940 O.co2 330  AKG330     -0.2456
     10  O4        -8.7350    5.1100    4.6200 O.co2 330  AKG330     -0.2456
@<TRIPOS>BOND
     1     5     4    2
     2    10     8   ar
     3     6     7    1
     4     6     4    1
     5     7     8    1
     6     8     9   ar
     7     4     1    1
     8     2     1   ar
     9     1     3   ar
