@<TRIPOS>MOLECULE
1dry_AAG_A_1.pdb
 15 14 0 0 0
SMALL
GASTEIGER

@<TRIPOS>ATOM
      1  N1         2.5460    6.1290    4.7710 N.am  331  AAG331     -0.1956
      2  C1         1.9060    7.2820    4.1780 C.3   331  AAG331      0.1979
      3  C2         0.6940    6.8570    3.3200 C.3   331  AAG331      0.0370
      4  C4         1.1240    5.9100    2.1700 C.3   331  AAG331      0.0493
      5  C5         1.9600    6.6730    1.0940 C.3   331  AAG331      0.2205
      6  N2         1.7380    6.0860   -0.2280 N.pl3 331  AAG331     -0.0865
      7  C6         2.6280    5.2340   -0.7750 C.cat 331  AAG331      0.5346
      8  N3         3.6470    4.7630   -0.0410 N.pl3 331  AAG331      0.1354
      9  N4         2.4730    4.8760   -1.9950 N.pl3 331  AAG331      0.1354
     10  C3         1.4300    8.2210    5.2480 C.2   331  AAG331      0.3842
     11  O1         1.1220    7.8180    6.3610 O.co2 331  AAG331     -0.2437
     12  O2         1.3840    9.5090    4.8930 O.co2 331  AAG331     -0.2437
     13  C8         3.7490    6.1620    5.3680 C.2   331  AAG331      0.2423
     14  C9         4.2860    4.9630    6.1040 C.3   331  AAG331      0.0964
     15  O4         4.4610    7.1730    5.2970 O.2   331  AAG331     -0.2733
@<TRIPOS>BOND
     1     9     7    1
     2     7     6    2
     3     7     8    1
     4     6     5    1
     5     5     4    1
     6     4     3    1
     7     3     2    1
     8     2     1    1
     9     2    10    1
    10     1    13   am
    11    12    10   ar
    12    10    11   ar
    13    15    13    2
    14    13    14    1
