@<TRIPOS>MOLECULE
1ds1_AKG_A_1.pdb
 10 9 0 0 0
SMALL
GASTEIGER

@<TRIPOS>ATOM
      1  C1        -3.5300    5.4330    5.9180 C.2   330  AKG330      0.4219
      2  O1        -2.6160    4.6750    5.9040 O.co2 330  AKG330     -0.2373
      3  O2        -3.9620    6.1790    6.9150 O.co2 330  AKG330     -0.2373
      4  C2        -4.2500    5.6650    4.6440 C.2   330  AKG330      0.2526
      5  O5        -3.6970    5.1870    3.6150 O.2   330  AKG330     -0.2843
      6  C3        -5.5100    6.4630    4.5910 C.3   330  AKG330      0.0881
      7  C4        -6.7420    5.5610    4.3750 C.3   330  AKG330      0.1224
      8  C5        -8.0260    6.3680    4.4840 C.2   330  AKG330      0.3653
      9  O3        -8.0760    7.5690    4.6600 O.co2 330  AKG330     -0.2456
     10  O4        -9.1090    5.6360    4.3580 O.co2 330  AKG330     -0.2456
@<TRIPOS>BOND
     1     5     4    2
     2    10     8   ar
     3     7     8    1
     4     7     6    1
     5     8     9   ar
     6     6     4    1
     7     4     1    1
     8     2     1   ar
     9     1     3   ar
