@<TRIPOS>MOLECULE
1ds4_HEM_A_1.pdb
 43 50 0 0 0
SMALL
GASTEIGER

@<TRIPOS>ATOM
      1 FE         27.9110   16.5110    1.1560 Fe    1001  HEM1001     0.0000
      2  CHA       27.8450   18.4140   -1.6230 C.2   1001  HEM1001     0.0000
      3  CHB       30.2970   18.4370    2.4900 C.2   1001  HEM1001     0.0000
      4  CHC       28.2100   14.3560    3.7340 C.2   1001  HEM1001     0.0000
      5  CHD       25.3150   14.6780   -0.0870 C.2   1001  HEM1001     0.0000
      6  NA        28.7930   18.2670    0.6160 N.2   1001  HEM1001     0.0000
      7  C1A       28.7400   18.8290   -0.6080 C.2   1001  HEM1001     0.0000
      8  C2A       29.4420   20.0220   -0.5890 C.2   1001  HEM1001     0.0000
      9  C3A       30.2660   19.9600    0.5360 C.2   1001  HEM1001     0.0000
     10  C4A       29.8700   18.8210    1.2130 C.2   1001  HEM1001     0.0000
     11  CMA       31.2960   20.9930    0.9610 C.3   1001  HEM1001     0.0000
     12  CAA       29.4050   21.0970   -1.6820 C.3   1001  HEM1001     0.0000
     13  CBA       28.2750   22.0880   -1.5380 C.3   1001  HEM1001     0.0000
     14  CGA       28.2810   23.1080   -2.6960 C.2   1001  HEM1001     0.0000
     15  O1A       29.3280   23.6860   -2.9970 O.co2 1001  HEM1001     0.0000
     16  O2A       27.3630   23.0880   -3.5150 O.co2 1001  HEM1001     0.0000
     17  NB        29.1180   16.3700    2.8290 N.ar  1001  HEM1001     0.0000
     18  C1B       29.9400   17.3220    3.2810 C.ar  1001  HEM1001     0.0000
     19  C2B       30.7670   16.7970    4.2830 C.ar  1001  HEM1001     0.0000
     20  C3B       30.2560   15.5300    4.5500 C.ar  1001  HEM1001     0.0000
     21  C4B       29.1760   15.3630    3.6790 C.ar  1001  HEM1001     0.0000
     22  CMB       31.9420   17.5400    4.8980 C.3   1001  HEM1001     0.0000
     23  CAB       30.4510   14.7780    5.7270 C.3   1001  HEM1001     0.0000
     24  CBB       31.7190   14.5560    6.3660 C.3   1001  HEM1001     0.0000
     25  NC        26.8950   14.8260    1.7410 N.2   1001  HEM1001     0.0000
     26  C1C       27.1470   14.0850    2.8300 C.2   1001  HEM1001     0.0000
     27  C2C       26.2790   12.9970    2.9250 C.2   1001  HEM1001     0.0000
     28  C3C       25.3160   13.2360    1.9390 C.2   1001  HEM1001     0.0000
     29  C4C       25.8390   14.2480    1.1430 C.2   1001  HEM1001     0.0000
     30  CMC       26.1410   12.0990    4.1730 C.3   1001  HEM1001     0.0000
     31  CAC       24.0730   12.6160    1.6870 C.3   1001  HEM1001     0.0000
     32  CBC       23.8520   11.1790    1.7610 C.3   1001  HEM1001     0.0000
     33  ND        26.6390   16.6480   -0.4940 N.ar  1001  HEM1001     0.0000
     34  C1D       25.7540   15.7300   -0.8850 C.ar  1001  HEM1001     0.0000
     35  C2D       25.2820   15.9990   -2.1650 C.ar  1001  HEM1001     0.0000
     36  C3D       26.0560   17.0620   -2.6250 C.ar  1001  HEM1001     0.0000
     37  C4D       26.7540   17.5310   -1.4970 C.ar  1001  HEM1001     0.0000
     38  CMD       24.3570   15.1230   -2.9960 C.3   1001  HEM1001     0.0000
     39  CAD       25.9730   17.7530   -3.9960 C.3   1001  HEM1001     0.0000
     40  CBD       24.8930   18.8560   -4.0470 C.3   1001  HEM1001     0.0000
     41  CGD       24.9140   19.6760   -5.3590 C.2   1001  HEM1001     0.0000
     42  O1D       24.1170   20.5980   -5.4490 O.co2 1001  HEM1001     0.0000
     43  O2D       25.3430   19.1210   -6.3640 O.co2 1001  HEM1001     0.0000
@<TRIPOS>BOND
     1    43    41   ar
     2    42    41   ar
     3    41    40    1
     4    40    39    1
     5    39    36    1
     6    16    14   ar
     7    15    14   ar
     8    38    35    1
     9    14    13    1
    10    36    35   ar
    11    36    37   ar
    12    35    34   ar
    13    12    13    1
    14    12     8    1
    15     2    37    2
    16     2     7    1
    17    37    33   ar
    18    34    33   ar
    19    34     5    2
    20     7     8    1
    21     7     6    2
    22     8     9    2
    23    33     1    1
    24     5    29    1
    25     9    11    1
    26     9    10    1
    27     6     1    1
    28     6    10    1
    29    29    25    2
    30    29    28    1
    31     1    25    1
    32     1    17    1
    33    10     3    2
    34    31    32    1
    35    31    28    1
    36    25    26    1
    37    28    27    2
    38     3    18    1
    39    17    18   ar
    40    17    21   ar
    41    26    27    1
    42    26     4    2
    43    27    30    1
    44    18    19   ar
    45    21     4    1
    46    21    20   ar
    47    19    20   ar
    48    19    22    1
    49    20    23    1
    50    23    24    1
