@<TRIPOS>MOLECULE
1ds5_AMP_A_1.pdb
 23 25 0 0 0
SMALL
GASTEIGER

@<TRIPOS>ATOM
      1  P         53.0180  114.0200  -59.4290 P.3   501  AMP501      0.5327
      2  O1P       51.6650  114.6310  -59.0740 O.3   501  AMP501     -0.1145
      3  O2P       53.0830  113.1620  -60.6460 O.2   501  AMP501     -0.2224
      4  O3P       53.8180  113.0840  -58.3750 O.3   501  AMP501     -0.1145
      5  O5'       53.9930  115.1790  -59.5280 O.3   501  AMP501     -0.2675
      6  C5'       55.4450  114.9580  -59.9120 C.3   501  AMP501      0.1860
      7  C4'       56.4350  115.3230  -58.8040 C.3   501  AMP501      0.1823
      8  O4'       55.8500  116.3780  -57.9550 O.3   501  AMP501     -0.3135
      9  C3'       56.8670  114.0950  -57.8850 C.3   501  AMP501      0.2184
     10  O3'       58.1330  113.4410  -58.2420 O.3   501  AMP501     -0.2174
     11  C2'       57.0330  114.6890  -56.5560 C.3   501  AMP501      0.2570
     12  O2'       58.3520  115.1980  -56.4170 O.3   501  AMP501     -0.2130
     13  C1'       55.9830  115.8640  -56.6510 C.3   501  AMP501      0.3186
     14  N9        55.2820  116.4460  -55.5000 N.pl3 501  AMP501     -0.1439
     15  C8        54.0050  116.9430  -55.4320 C.3   501  AMP501      0.3377
     16  N7        53.6770  117.3020  -54.2030 N.2   501  AMP501     -0.2095
     17  C5        54.8140  117.0680  -53.3760 C.2   501  AMP501      0.2526
     18  C6        55.1470  117.1960  -51.9480 C.2   501  AMP501      0.4393
     19  N6        54.3010  117.7090  -51.0190 N.pl3 501  AMP501      0.2180
     20  N1        56.4220  116.8270  -51.5540 N.2   501  AMP501      0.0021
     21  C2        57.2960  116.3230  -52.4100 C.3   501  AMP501      0.5254
     22  N3        57.1280  116.1260  -53.7360 N.2   501  AMP501     -0.0055
     23  C4        55.8270  116.4940  -54.2030 C.2   501  AMP501      0.3518
@<TRIPOS>BOND
     1     3     1    2
     2     6     5    1
     3     6     7    1
     4     5     1    1
     5     1     2    1
     6     1     4    1
     7     7     8    1
     8     7     9    1
     9    10     9    1
    10     8    13    1
    11     9    11    1
    12    13    11    1
    13    13    14    1
    14    11    12    1
    15    14    15    1
    16    14    23    1
    17    15    16    1
    18    16    17    2
    19    23    22    2
    20    23    17    1
    21    22    21    1
    22    17    18    1
    23    21    20    1
    24    18    20    2
    25    18    19    1
