@<TRIPOS>MOLECULE
1ds6_GDP_A_1.pdb
 28 30 0 0 0
SMALL
GASTEIGER

@<TRIPOS>ATOM
      1  PB        34.0350    5.8990   19.3880 P.3   194  GDP194      0.5373
      2  O1B       33.1350    5.7290   18.2180 O.2   194  GDP194     -0.2221
      3  O2B       33.4900    5.6590   20.6460 O.3   194  GDP194     -0.1143
      4  O3B       35.4230    5.0670   19.1490 O.3   194  GDP194     -0.1143
      5  O3A       34.4930    7.4050   19.4370 O.3   194  GDP194     -0.2261
      6  PA        34.4680    8.5080   20.6870 P.3   194  GDP194      0.2231
      7  O1A       33.0720    8.7340   21.1730 O.2   194  GDP194     -0.5169
      8  O2A       35.4230    7.9490   21.6980 O.3   194  GDP194     -0.4370
      9  O5'       35.0060    9.7870   19.9740 O.3   194  GDP194     -0.3111
     10  C5'       36.0340    9.7750   18.9260 C.3   194  GDP194      0.1813
     11  C4'       36.6300   11.0940   18.6700 C.3   194  GDP194      0.1799
     12  O4'       35.5900   11.9740   18.0160 O.3   194  GDP194     -0.3326
     13  C3'       36.9550   11.9230   19.9700 C.3   194  GDP194      0.2158
     14  O3'       38.1640   12.6980   19.6480 O.3   194  GDP194     -0.2175
     15  C2'       35.7620   12.8970   20.2260 C.3   194  GDP194      0.2310
     16  O2'       35.9770   14.1200   20.9530 O.3   194  GDP194     -0.2158
     17  C1'       35.2580   13.2130   18.8010 C.3   194  GDP194      0.2293
     18  N9        33.7980   13.4220   18.7050 N.pl3 194  GDP194     -0.2354
     19  C8        32.8950   12.3520   19.2290 C.3   194  GDP194      0.2246
     20  N7        31.7280   13.0650   18.8800 N.2   194  GDP194     -0.2322
     21  C5        31.7980   14.2620   18.2990 C.2   194  GDP194      0.2182
     22  C6        31.0660   15.3340   17.7710 C.1   194  GDP194      0.2372
     23  O6        29.7320   15.2180   17.8200 O.2   194  GDP194     -0.2069
     24  N1        31.6070   16.4350   17.2360 N.2   194  GDP194     -0.2485
     25  C2        33.0850   16.5310   17.1970 C.1   194  GDP194      0.2531
     26  N2        33.4090   17.6820   16.6360 N.pl3 194  GDP194     -0.0226
     27  N3        33.7900   15.5980   17.6520 N.2   194  GDP194     -0.3074
     28  C4        33.2080   14.5210   18.1760 C.2   194  GDP194      0.2300
@<TRIPOS>BOND
     1    26    25    1
     2    25    24    2
     3    25    27    2
     4    24    22    2
     5    27    28    2
     6    22    23    2
     7    22    21    1
     8    12    11    1
     9    12    17    1
    10    28    21    1
    11    28    18    1
    12     2     1    2
    13    21    20    2
    14    11    10    1
    15    11    13    1
    16    18    17    1
    17    18    19    1
    18    17    15    1
    19    20    19    1
    20    10     9    1
    21     4     1    1
    22     1     5    1
    23     1     3    1
    24     5     6    1
    25    14    13    1
    26    13    15    1
    27     9     6    1
    28    15    16    1
    29     6     7    2
    30     6     8    1
