@<TRIPOS>MOLECULE
1ds7_FMN_A_1.pdb
 31 33 0 0 0
SMALL
GASTEIGER

@<TRIPOS>ATOM
      1  N1        20.0030  -31.8900   51.5700 N.2   218  FMN218     -0.2890
      2  C2        21.2850  -31.6660   51.9870 C.1   218  FMN218      0.3669
      3  O2        22.2580  -32.1080   51.4270 O.2   218  FMN218     -0.1744
      4  N3        21.5120  -30.8520   53.1470 N.2   218  FMN218     -0.2300
      5  C4        20.5540  -30.2060   53.8400 C.1   218  FMN218      0.2513
      6  O4        20.8380  -29.5380   54.8510 O.2   218  FMN218     -0.2057
      7  C4A       19.2000  -30.3440   53.3130 C.2   218  FMN218      0.2700
      8  N5        18.2060  -29.6750   53.8620 N.2   218  FMN218     -0.3878
      9  C5A       16.9920  -29.7280   53.2560 C.2   218  FMN218      0.1320
     10  C6        15.9270  -28.8730   53.7180 C.2   218  FMN218      0.0250
     11  C7        14.7410  -28.7590   53.0980 C.2   218  FMN218     -0.0238
     12  C7M       13.6490  -27.7660   53.5230 C.3   218  FMN218      0.0308
     13  C8        14.4570  -29.6070   51.9620 C.2   218  FMN218     -0.0280
     14  C8M       13.1540  -29.4790   51.2210 C.3   218  FMN218      0.0304
     15  C9        15.4180  -30.5140   51.5740 C.2   218  FMN218     -0.0041
     16  C9A       16.6880  -30.5640   52.1370 C.3   218  FMN218      0.1497
     17  N10       17.7380  -31.3540   51.6520 N.pl3 218  FMN218     -0.2691
     18  C10       19.0070  -31.2400   52.1450 C.2   218  FMN218      0.2416
     19  C1'       17.5010  -32.2670   50.5210 C.3   218  FMN218      0.1294
     20  C2'       16.5330  -33.3870   50.8810 C.3   218  FMN218      0.2044
     21  O2'       17.1840  -34.4850   51.5330 O.3   218  FMN218     -0.2185
     22  C3'       15.8640  -33.8960   49.5860 C.3   218  FMN218      0.2164
     23  O3'       14.8210  -32.9420   49.2190 O.3   218  FMN218     -0.2175
     24  C4'       15.2310  -35.2700   49.6610 C.3   218  FMN218      0.2147
     25  O4'       16.2310  -36.2720   49.9950 O.3   218  FMN218     -0.2176
     26  C5'       14.5780  -35.6940   48.3570 C.3   218  FMN218      0.1892
     27  O5'       15.5800  -35.7030   47.3130 O.3   218  FMN218     -0.2674
     28  P         15.5060  -34.7540   46.0580 P.3   218  FMN218      0.5327
     29  O1P       16.7380  -34.9900   45.2400 O.2   218  FMN218     -0.2224
     30  O2P       15.3520  -33.3590   46.5560 O.3   218  FMN218     -0.1145
     31  O3P       14.2350  -35.2390   45.2780 O.3   218  FMN218     -0.1145
@<TRIPOS>BOND
     1    29    28    2
     2    31    28    1
     3    28    30    1
     4    28    27    1
     5    27    26    1
     6    26    24    1
     7    23    22    1
     8    22    24    1
     9    22    20    1
    10    24    25    1
    11    19    20    1
    12    19    17    1
    13    20    21    1
    14    14    13    1
    15     3     2    2
    16     1     2    2
    17     1    18    2
    18    15    13    2
    19    15    16    1
    20    17    16    1
    21    17    18    1
    22    13    11    1
    23     2     4    2
    24    16     9    1
    25    18     7    1
    26    11    12    1
    27    11    10    2
    28     4     5    2
    29     9    10    1
    30     9     8    2
    31     7     5    1
    32     7     8    2
    33     5     6    2
