@<TRIPOS>MOLECULE
1ds8_U10_L_1.pdb
 44 44 0 0 0
SMALL
GASTEIGER

@<TRIPOS>ATOM
      1  C1        76.5180  106.3790   41.4000 C.2   1009  U101009     0.0198
      2  C2        77.6240  107.2390   41.0830 C.2   1009  U101009     0.2282
      3  C3        77.4440  108.5640   40.5700 C.2   1009  U101009     0.2140
      4  C4        76.1100  109.0450   40.3430 C.2   1009  U101009     0.2140
      5  C5        74.9800  108.1960   40.6570 C.2   1009  U101009     0.2285
      6  C6        75.1720  106.8500   41.1850 C.2   1009  U101009     0.0235
      7  C1M       76.7720  104.9920   41.9780 C.3   1009  U101009     0.0343
      8  C3M       78.9590  109.9410   39.1710 C.3   1009  U101009     0.2528
      9  C4M       75.7110  111.4350   40.5450 C.3   1009  U101009     0.2528
     10  C7        73.9760  105.9170   41.4330 C.3   1009  U101009     0.0548
     11  C8        73.7060  105.8170   42.8620 C.2   1009  U101009    -0.0298
     12  C9        73.3840  104.6180   43.5090 C.2   1009  U101009    -0.0475
     13  C10       73.2560  103.2870   42.7350 C.3   1009  U101009     0.0260
     14  C11       73.1030  104.5980   45.0080 C.3   1009  U101009     0.0264
     15  C12       74.2700  105.1140   45.8490 C.3   1009  U101009     0.0297
     16  C13       75.3740  104.1600   45.7990 C.2   1009  U101009    -0.0342
     17  C14       76.1930  103.7950   46.8570 C.2   1009  U101009    -0.0478
     18  C15       76.0340  104.3530   48.2730 C.3   1009  U101009     0.0260
     19  C16       77.2710  102.7640   46.5890 C.3   1009  U101009     0.0263
     20  C17       78.4740  103.3470   45.8690 C.3   1009  U101009     0.0297
     21  C18       79.5990  102.9140   46.6620 C.2   1009  U101009    -0.0342
     22  C19       80.4600  101.9030   46.2670 C.2   1009  U101009    -0.0478
     23  C20       80.2390  101.1910   44.9270 C.3   1009  U101009     0.0260
     24  C21       81.5840  101.4220   47.1720 C.3   1009  U101009     0.0263
     25  C22       82.0840  102.4970   48.1290 C.3   1009  U101009     0.0297
     26  C23       83.5320  102.4180   48.1420 C.2   1009  U101009    -0.0342
     27  C24       84.3150  102.5160   49.2720 C.2   1009  U101009    -0.0478
     28  C25       83.6420  102.7000   50.6280 C.3   1009  U101009     0.0260
     29  C26       85.8240  102.3690   49.1240 C.3   1009  U101009     0.0263
     30  C27       86.6130  103.3370   50.0030 C.3   1009  U101009     0.0297
     31  C28       88.0480  102.9530   50.0740 C.2   1009  U101009    -0.0342
     32  C29       88.8880  103.1820   51.1740 C.2   1009  U101009    -0.0478
     33  C30       88.3130  103.9080   52.3880 C.3   1009  U101009     0.0260
     34  C31       90.3670  102.8060   51.1280 C.3   1009  U101009     0.0263
     35  C32       90.8900  102.2280   52.4470 C.3   1009  U101009     0.0297
     36  C33       91.4230  103.2690   53.3490 C.2   1009  U101009    -0.0343
     37  C34       91.7610  103.0430   54.6890 C.2   1009  U101009    -0.0482
     38  C35       91.6170  101.6420   55.2940 C.3   1009  U101009     0.0260
     39  C36       92.2440  104.1750   55.5880 C.3   1009  U101009     0.0217
     40  C37       91.4140  104.3150   56.8610 C.3   1009  U101009     0.0047
     41  O2        78.7570  106.8100   41.2190 O.2   1009  U101009    -0.2836
     42  O3        78.5660  109.3880   40.4150 O.2   1009  U101009    -0.4652
     43  O4        75.9170  110.2870   39.7510 O.2   1009  U101009    -0.4652
     44  O5        73.8370  108.6430   40.4970 O.2   1009  U101009    -0.2835
@<TRIPOS>BOND
     1     8    42    1
     2    43     4    1
     3    43     9    1
     4     4     3    2
     5     4     5    1
     6    42     3    1
     7    44     5    2
     8     3     2    1
     9     5     6    1
    10     2    41    2
    11     2     1    1
    12     6     1    2
    13     6    10    1
    14     1     7    1
    15    10    11    1
    16    13    12    1
    17    11    12    2
    18    12    14    1
    19    23    22    1
    20    14    15    1
    21    16    15    1
    22    16    17    2
    23    20    19    1
    24    20    21    1
    25    22    21    2
    26    22    24    1
    27    19    17    1
    28    17    18    1
    29    24    25    1
    30    25    26    1
    31    26    27    2
    32    29    27    1
    33    29    30    1
    34    27    28    1
    35    30    31    1
    36    31    32    2
    37    34    32    1
    38    34    35    1
    39    32    33    1
    40    35    36    1
    41    36    37    2
    42    37    38    1
    43    37    39    1
    44    39    40    1
