@<TRIPOS>MOLECULE
1dse_HEM_A_1.pdb
 43 50 0 0 0
SMALL
GASTEIGER

@<TRIPOS>ATOM
      1 FE         27.7670   90.4840   52.3700 Fe    1001  HEM1001     0.0000
      2  CHA       27.8030   92.2360   49.4240 C.2   1001  HEM1001     0.0000
      3  CHB       30.6120   92.0620   53.3080 C.2   1001  HEM1001     0.0000
      4  CHC       28.2280   88.2550   54.8610 C.2   1001  HEM1001     0.0000
      5  CHD       25.2740   88.5740   51.1120 C.2   1001  HEM1001     0.0000
      6  NA        28.8960   92.0030   51.5930 N.2   1001  HEM1001     0.0000
      7  C1A       28.6290   92.7170   50.4800 C.2   1001  HEM1001     0.0000
      8  C2A       29.5330   93.7570   50.3580 C.2   1001  HEM1001     0.0000
      9  C3A       30.3970   93.6640   51.4500 C.2   1001  HEM1001     0.0000
     10  C4A       30.0370   92.4990   52.1060 C.2   1001  HEM1001     0.0000
     11  CMA       31.4700   94.6500   51.8710 C.3   1001  HEM1001     0.0000
     12  CAA       29.4900   94.8400   49.2690 C.3   1001  HEM1001     0.0000
     13  CBA       28.3730   95.8460   49.4330 C.3   1001  HEM1001     0.0000
     14  CGA       28.3740   96.8560   48.2600 C.2   1001  HEM1001     0.0000
     15  O1A       29.4600   97.3140   47.8830 O.co2 1001  HEM1001     0.0000
     16  O2A       27.4760   96.7740   47.4190 O.co2 1001  HEM1001     0.0000
     17  NB        29.1840   90.2080   53.8730 N.ar  1001  HEM1001     0.0000
     18  C1B       30.1580   91.0600   54.1970 C.ar  1001  HEM1001     0.0000
     19  C2B       30.9810   90.5060   55.1870 C.ar  1001  HEM1001     0.0000
     20  C3B       30.3920   89.2930   55.5140 C.ar  1001  HEM1001     0.0000
     21  C4B       29.2790   89.1670   54.6710 C.ar  1001  HEM1001     0.0000
     22  CMB       32.1510   91.2480   55.8230 C.3   1001  HEM1001     0.0000
     23  CAB       30.5280   88.5620   56.7110 C.3   1001  HEM1001     0.0000
     24  CBB       31.7680   88.3890   57.4260 C.3   1001  HEM1001     0.0000
     25  NC        26.8820   88.7200   52.8890 N.2   1001  HEM1001     0.0000
     26  C1C       27.1370   87.9930   53.9940 C.2   1001  HEM1001     0.0000
     27  C2C       26.3980   86.8110   54.0260 C.2   1001  HEM1001     0.0000
     28  C3C       25.4540   86.9870   53.0030 C.2   1001  HEM1001     0.0000
     29  C4C       25.9240   88.0390   52.2360 C.2   1001  HEM1001     0.0000
     30  CMC       26.2900   85.8620   55.2420 C.3   1001  HEM1001     0.0000
     31  CAC       24.2760   86.2720   52.7190 C.3   1001  HEM1001     0.0000
     32  CBC       24.1370   84.8440   52.9590 C.3   1001  HEM1001     0.0000
     33  ND        26.6010   90.4860   50.6220 N.ar  1001  HEM1001     0.0000
     34  C1D       25.8280   89.4810   50.2110 C.ar  1001  HEM1001     0.0000
     35  C2D       25.3940   89.6610   48.8980 C.ar  1001  HEM1001     0.0000
     36  C3D       25.9570   90.8630   48.4930 C.ar  1001  HEM1001     0.0000
     37  C4D       26.8040   91.2510   49.5460 C.ar  1001  HEM1001     0.0000
     38  CMD       24.5460   88.7140   48.0680 C.3   1001  HEM1001     0.0000
     39  CAD       25.9470   91.4770   47.0820 C.3   1001  HEM1001     0.0000
     40  CBD       25.0710   92.7400   46.9940 C.3   1001  HEM1001     0.0000
     41  CGD       24.9150   93.3380   45.5840 C.2   1001  HEM1001     0.0000
     42  O1D       24.2540   94.3520   45.4760 O.co2 1001  HEM1001     0.0000
     43  O2D       25.3330   92.7240   44.6160 O.co2 1001  HEM1001     0.0000
@<TRIPOS>BOND
     1    43    41   ar
     2    42    41   ar
     3    41    40    1
     4    40    39    1
     5    39    36    1
     6    16    14   ar
     7    15    14   ar
     8    38    35    1
     9    14    13    1
    10    36    35   ar
    11    36    37   ar
    12    35    34   ar
    13    12    13    1
    14    12     8    1
    15     2    37    2
    16     2     7    1
    17    37    33   ar
    18    34    33   ar
    19    34     5    2
    20     8     7    1
    21     8     9    2
    22     7     6    2
    23    33     1    1
    24     5    29    1
    25     9    11    1
    26     9    10    1
    27     6    10    1
    28     6     1    1
    29    10     3    2
    30    29    25    2
    31    29    28    1
    32     1    25    1
    33     1    17    1
    34    31    32    1
    35    31    28    1
    36    25    26    1
    37    28    27    2
    38     3    18    1
    39    17    18   ar
    40    17    21   ar
    41    26    27    1
    42    26     4    2
    43    27    30    1
    44    18    19   ar
    45    21     4    1
    46    21    20   ar
    47    19    20   ar
    48    19    22    1
    49    20    23    1
    50    23    24    1
