@<TRIPOS>MOLECULE
1dsg_HEM_A_1.pdb
 43 50 0 0 0
SMALL
GASTEIGER

@<TRIPOS>ATOM
      1 FE         27.8730   16.9620    1.1820 Fe    1001  HEM1001     0.0000
      2  CHA       27.9560   18.7190   -1.7290 C.2   1001  HEM1001     0.0000
      3  CHB       30.6850   18.5430    2.2000 C.2   1001  HEM1001     0.0000
      4  CHC       28.5070   14.5370    3.4410 C.2   1001  HEM1001     0.0000
      5  CHD       25.5960   14.8390   -0.2760 C.2   1001  HEM1001     0.0000
      6  NA        29.1060   18.4070    0.3820 N.2   1001  HEM1001     0.0000
      7  C1A       28.8000   19.1750   -0.6790 C.2   1001  HEM1001     0.0000
      8  C2A       29.7610   20.1540   -0.8480 C.2   1001  HEM1001     0.0000
      9  C3A       30.5490   20.1190    0.3120 C.2   1001  HEM1001     0.0000
     10  C4A       30.1890   18.9470    0.9540 C.2   1001  HEM1001     0.0000
     11  CMA       31.8210   20.9300    0.5310 C.3   1001  HEM1001     0.0000
     12  CAA       29.7120   21.2800   -1.8950 C.3   1001  HEM1001     0.0000
     13  CBA       28.4330   22.0870   -1.8860 C.3   1001  HEM1001     0.0000
     14  CGA       28.5170   23.2940   -2.8440 C.2   1001  HEM1001     0.0000
     15  O1A       29.6230   23.7680   -3.1150 O.co2 1001  HEM1001     0.0000
     16  O2A       27.5920   23.4930   -3.6330 O.co2 1001  HEM1001     0.0000
     17  NB        29.1960   16.7240    2.7670 N.ar  1001  HEM1001     0.0000
     18  C1B       30.1950   17.5500    3.0750 C.ar  1001  HEM1001     0.0000
     19  C2B       30.9230   17.0670    4.1710 C.ar  1001  HEM1001     0.0000
     20  C3B       30.4550   15.7680    4.3550 C.ar  1001  HEM1001     0.0000
     21  C4B       29.4450   15.5800    3.4030 C.ar  1001  HEM1001     0.0000
     22  CMB       32.1830   17.7460    4.6920 C.3   1001  HEM1001     0.0000
     23  CAB       30.5930   14.9530    5.4900 C.3   1001  HEM1001     0.0000
     24  CBB       31.7300   14.9480    6.3790 C.3   1001  HEM1001     0.0000
     25  NC        26.9750   15.1770    1.6850 N.2   1001  HEM1001     0.0000
     26  C1C       27.2780   14.4210    2.7520 C.2   1001  HEM1001     0.0000
     27  C2C       26.4330   13.3160    2.8520 C.2   1001  HEM1001     0.0000
     28  C3C       25.6190   13.3770    1.7120 C.2   1001  HEM1001     0.0000
     29  C4C       26.1470   14.4210    0.9440 C.2   1001  HEM1001     0.0000
     30  CMC       26.3460   12.3850    4.0730 C.3   1001  HEM1001     0.0000
     31  CAC       24.3210   12.9110    1.4580 C.3   1001  HEM1001     0.0000
     32  CBC       23.8290   11.5500    1.4650 C.3   1001  HEM1001     0.0000
     33  ND        27.0040   16.7290   -0.7190 N.ar  1001  HEM1001     0.0000
     34  C1D       26.0490   15.8720   -1.0870 C.ar  1001  HEM1001     0.0000
     35  C2D       25.6980   16.0470   -2.4210 C.ar  1001  HEM1001     0.0000
     36  C3D       26.1970   17.3160   -2.7470 C.ar  1001  HEM1001     0.0000
     37  C4D       27.0820   17.6280   -1.7100 C.ar  1001  HEM1001     0.0000
     38  CMD       24.7140   15.2510   -3.2640 C.3   1001  HEM1001     0.0000
     39  CAD       26.1560   17.9380   -4.1510 C.3   1001  HEM1001     0.0000
     40  CBD       25.0840   19.0360   -4.2850 C.3   1001  HEM1001     0.0000
     41  CGD       25.0570   19.7130   -5.6690 C.2   1001  HEM1001     0.0000
     42  O1D       24.4080   20.7400   -5.7780 O.co2 1001  HEM1001     0.0000
     43  O2D       25.8770   19.3510   -6.4970 O.co2 1001  HEM1001     0.0000
@<TRIPOS>BOND
     1    43    41   ar
     2    42    41   ar
     3    41    40    1
     4    40    39    1
     5    39    36    1
     6    16    14   ar
     7    38    35    1
     8    15    14   ar
     9    14    13    1
    10    36    35   ar
    11    36    37   ar
    12    35    34   ar
    13    12    13    1
    14    12     8    1
    15     2    37    2
    16     2     7    1
    17    37    33   ar
    18    34    33   ar
    19    34     5    2
    20     8     7    1
    21     8     9    2
    22    33     1    1
    23     7     6    2
    24     5    29    1
    25     9    11    1
    26     9    10    1
    27     6    10    1
    28     6     1    1
    29    29    25    2
    30    29    28    1
    31    10     3    2
    32     1    25    1
    33     1    17    1
    34    31    32    1
    35    31    28    1
    36    25    26    1
    37    28    27    2
    38     3    18    1
    39    26    27    1
    40    26     4    2
    41    17    18   ar
    42    17    21   ar
    43    27    30    1
    44    18    19   ar
    45    21     4    1
    46    21    20   ar
    47    19    20   ar
    48    19    22    1
    49    20    23    1
    50    23    24    1
