@<TRIPOS>MOLECULE
1dso_HEM_A_1.pdb
 43 50 0 0 0
SMALL
GASTEIGER

@<TRIPOS>ATOM
      1 FE         28.0760   16.8240    1.1340 Fe    1001  HEM1001     0.0000
      2  CHA       28.0060   18.8100   -1.6350 C.2   1001  HEM1001     0.0000
      3  CHB       30.6510   18.6230    2.3770 C.2   1001  HEM1001     0.0000
      4  CHC       28.4760   14.5680    3.5810 C.2   1001  HEM1001     0.0000
      5  CHD       25.5950   14.9370   -0.2220 C.2   1001  HEM1001     0.0000
      6  NA        29.2320   18.3830    0.4340 N.2   1001  HEM1001     0.0000
      7  C1A       28.8930   19.1860   -0.5930 C.2   1001  HEM1001     0.0000
      8  C2A       29.7460   20.2630   -0.6650 C.2   1001  HEM1001     0.0000
      9  C3A       30.5520   20.1890    0.4830 C.2   1001  HEM1001     0.0000
     10  C4A       30.2560   18.9700    1.0710 C.2   1001  HEM1001     0.0000
     11  CMA       31.7840   21.0540    0.7130 C.3   1001  HEM1001     0.0000
     12  CAA       29.7160   21.3860   -1.7130 C.3   1001  HEM1001     0.0000
     13  CBA       28.4650   22.2370   -1.6890 C.3   1001  HEM1001     0.0000
     14  CGA       28.4640   23.3000   -2.8030 C.2   1001  HEM1001     0.0000
     15  O1A       29.5180   23.8560   -3.1060 O.co2 1001  HEM1001     0.0000
     16  O2A       27.5040   23.4220   -3.5630 O.co2 1001  HEM1001     0.0000
     17  NB        29.3240   16.6420    2.7840 N.ar  1001  HEM1001     0.0000
     18  C1B       30.2750   17.5030    3.1520 C.ar  1001  HEM1001     0.0000
     19  C2B       30.9900   17.0170    4.2540 C.ar  1001  HEM1001     0.0000
     20  C3B       30.4060   15.7930    4.5470 C.ar  1001  HEM1001     0.0000
     21  C4B       29.4890   15.5420    3.5140 C.ar  1001  HEM1001     0.0000
     22  CMB       32.0800   17.8000    4.9710 C.3   1001  HEM1001     0.0000
     23  CAB       30.5960   14.9320    5.6350 C.3   1001  HEM1001     0.0000
     24  CBB       31.8070   14.7290    6.3800 C.3   1001  HEM1001     0.0000
     25  NC        27.1300   15.0910    1.6330 N.2   1001  HEM1001     0.0000
     26  C1C       27.3830   14.3380    2.7150 C.2   1001  HEM1001     0.0000
     27  C2C       26.5700   13.2070    2.7660 C.2   1001  HEM1001     0.0000
     28  C3C       25.6670   13.3750    1.7070 C.2   1001  HEM1001     0.0000
     29  C4C       26.0650   14.5320    1.0360 C.2   1001  HEM1001     0.0000
     30  CMC       26.4630   12.3260    4.0300 C.3   1001  HEM1001     0.0000
     31  CAC       24.3890   12.8540    1.4690 C.3   1001  HEM1001     0.0000
     32  CBC       23.9030   11.5000    1.6100 C.3   1001  HEM1001     0.0000
     33  ND        27.0780   16.7730   -0.6820 N.ar  1001  HEM1001     0.0000
     34  C1D       26.0710   15.9600   -1.0340 C.ar  1001  HEM1001     0.0000
     35  C2D       25.7140   16.1670   -2.3620 C.ar  1001  HEM1001     0.0000
     36  C3D       26.3790   17.3360   -2.7370 C.ar  1001  HEM1001     0.0000
     37  C4D       27.0900   17.7470   -1.6070 C.ar  1001  HEM1001     0.0000
     38  CMD       24.6740   15.4420   -3.2030 C.3   1001  HEM1001     0.0000
     39  CAD       26.3180   18.0090   -4.1090 C.3   1001  HEM1001     0.0000
     40  CBD       25.1980   19.0580   -4.2020 C.3   1001  HEM1001     0.0000
     41  CGD       25.0710   19.6950   -5.6030 C.2   1001  HEM1001     0.0000
     42  O1D       24.6800   20.8500   -5.6020 O.co2 1001  HEM1001     0.0000
     43  O2D       25.6920   19.2130   -6.5370 O.co2 1001  HEM1001     0.0000
@<TRIPOS>BOND
     1    43    41   ar
     2    41    42   ar
     3    41    40    1
     4    40    39    1
     5    39    36    1
     6    16    14   ar
     7    38    35    1
     8    15    14   ar
     9    14    13    1
    10    36    35   ar
    11    36    37   ar
    12    35    34   ar
    13    12    13    1
    14    12     8    1
    15     2    37    2
    16     2     7    1
    17    37    33   ar
    18    34    33   ar
    19    34     5    2
    20    33     1    1
    21     8     7    1
    22     8     9    2
    23     7     6    2
    24     5    29    1
    25     6    10    1
    26     6     1    1
    27     9    11    1
    28     9    10    1
    29    29    25    2
    30    29    28    1
    31    10     3    2
    32     1    25    1
    33     1    17    1
    34    31    32    1
    35    31    28    1
    36    25    26    1
    37    28    27    2
    38     3    18    1
    39    26    27    1
    40    26     4    2
    41    27    30    1
    42    17    18   ar
    43    17    21   ar
    44    18    19   ar
    45    21     4    1
    46    21    20   ar
    47    19    20   ar
    48    19    22    1
    49    20    23    1
    50    23    24    1
