@<TRIPOS>MOLECULE
1dsp_HEM_A_1.pdb
 43 50 0 0 0
SMALL
GASTEIGER

@<TRIPOS>ATOM
      1 FE         28.1530   16.7050    1.0370 Fe    1001  HEM1001     0.0000
      2  CHA       27.9170   18.8150   -1.6080 C.2   1001  HEM1001     0.0000
      3  CHB       30.5440   18.6300    2.4320 C.2   1001  HEM1001     0.0000
      4  CHC       28.4000   14.5640    3.6400 C.2   1001  HEM1001     0.0000
      5  CHD       25.5900   14.9000   -0.2220 C.2   1001  HEM1001     0.0000
      6  NA        29.1550   18.3690    0.4620 N.2   1001  HEM1001     0.0000
      7  C1A       28.9000   19.1170   -0.6270 C.2   1001  HEM1001     0.0000
      8  C2A       29.7150   20.2260   -0.6430 C.2   1001  HEM1001     0.0000
      9  C3A       30.3440   20.2530    0.6150 C.2   1001  HEM1001     0.0000
     10  C4A       30.1470   18.9810    1.1320 C.2   1001  HEM1001     0.0000
     11  CMA       31.5260   21.1480    0.9680 C.3   1001  HEM1001     0.0000
     12  CAA       29.6990   21.3470   -1.6920 C.3   1001  HEM1001     0.0000
     13  CBA       28.4590   22.2160   -1.6670 C.3   1001  HEM1001     0.0000
     14  CGA       28.4570   23.2420   -2.8150 C.2   1001  HEM1001     0.0000
     15  O1A       29.4550   23.9110   -3.0700 O.co2 1001  HEM1001     0.0000
     16  O2A       27.4500   23.4210   -3.4920 O.co2 1001  HEM1001     0.0000
     17  NB        29.2650   16.6170    2.7980 N.ar  1001  HEM1001     0.0000
     18  C1B       30.1650   17.5080    3.2000 C.ar  1001  HEM1001     0.0000
     19  C2B       30.9060   17.0200    4.2820 C.ar  1001  HEM1001     0.0000
     20  C3B       30.3780   15.7610    4.5350 C.ar  1001  HEM1001     0.0000
     21  C4B       29.4210   15.5250    3.5420 C.ar  1001  HEM1001     0.0000
     22  CMB       31.8660   17.8770    5.0980 C.3   1001  HEM1001     0.0000
     23  CAB       30.5430   14.9370    5.6630 C.3   1001  HEM1001     0.0000
     24  CBB       31.7690   14.7750    6.4020 C.3   1001  HEM1001     0.0000
     25  NC        27.1070   15.0590    1.6490 N.2   1001  HEM1001     0.0000
     26  C1C       27.3310   14.3220    2.7460 C.2   1001  HEM1001     0.0000
     27  C2C       26.5190   13.1910    2.7990 C.2   1001  HEM1001     0.0000
     28  C3C       25.6310   13.3570    1.7210 C.2   1001  HEM1001     0.0000
     29  C4C       26.0690   14.4760    1.0240 C.2   1001  HEM1001     0.0000
     30  CMC       26.2990   12.3270    4.0610 C.3   1001  HEM1001     0.0000
     31  CAC       24.3580   12.8120    1.5090 C.3   1001  HEM1001     0.0000
     32  CBC       23.9400   11.4300    1.6080 C.3   1001  HEM1001     0.0000
     33  ND        27.0220   16.7580   -0.6760 N.ar  1001  HEM1001     0.0000
     34  C1D       26.0700   15.9010   -1.0540 C.ar  1001  HEM1001     0.0000
     35  C2D       25.6860   16.1250   -2.3720 C.ar  1001  HEM1001     0.0000
     36  C3D       26.2290   17.3710   -2.6930 C.ar  1001  HEM1001     0.0000
     37  C4D       27.1010   17.6790   -1.6480 C.ar  1001  HEM1001     0.0000
     38  CMD       24.6490   15.3730   -3.1930 C.3   1001  HEM1001     0.0000
     39  CAD       26.2130   18.0190   -4.0910 C.3   1001  HEM1001     0.0000
     40  CBD       25.1770   19.1520   -4.1390 C.3   1001  HEM1001     0.0000
     41  CGD       25.0810   19.8580   -5.5040 C.2   1001  HEM1001     0.0000
     42  O1D       24.6660   21.0000   -5.4760 O.co2 1001  HEM1001     0.0000
     43  O2D       25.5470   19.3240   -6.4920 O.co2 1001  HEM1001     0.0000
@<TRIPOS>BOND
     1    43    41   ar
     2    41    42   ar
     3    41    40    1
     4    40    39    1
     5    39    36    1
     6    16    14   ar
     7    38    35    1
     8    15    14   ar
     9    14    13    1
    10    36    35   ar
    11    36    37   ar
    12    35    34   ar
    13    12    13    1
    14    12     8    1
    15    37     2    2
    16    37    33   ar
    17     2     7    1
    18    34    33   ar
    19    34     5    2
    20    33     1    1
    21     8     7    1
    22     8     9    2
    23     7     6    2
    24     5    29    1
    25     6     1    1
    26     6    10    1
    27     9    11    1
    28     9    10    1
    29    29    25    2
    30    29    28    1
    31     1    25    1
    32     1    17    1
    33    10     3    2
    34    31    32    1
    35    31    28    1
    36    25    26    1
    37    28    27    2
    38     3    18    1
    39    26    27    1
    40    26     4    2
    41    17    18   ar
    42    17    21   ar
    43    27    30    1
    44    18    19   ar
    45    21     4    1
    46    21    20   ar
    47    19    20   ar
    48    19    22    1
    49    20    23    1
    50    23    24    1
