@<TRIPOS>MOLECULE
1dss_NAD_G_1.pdb
 44 48 0 0 0
SMALL
GASTEIGER

@<TRIPOS>ATOM
      1  PA        -4.4060    9.1900   17.9950 P.3   335  NAD335      0.2189
      2  O1A       -3.9990    7.9140   18.5910 O.3   335  NAD335     -0.4371
      3  O2A       -3.6800    9.7490   16.8310 O.2   335  NAD335     -0.5170
      4  O5B       -4.4220   10.2790   19.1680 O.3   335  NAD335     -0.3112
      5  C5B       -4.6750    9.9510   20.5590 C.3   335  NAD335      0.1813
      6  C4B       -3.7050   10.8140   21.3540 C.3   335  NAD335      0.1821
      7  O4B       -4.0920   10.8980   22.7300 O.3   335  NAD335     -0.3135
      8  C3B       -2.2830   10.2600   21.3260 C.3   335  NAD335      0.2184
      9  O3B       -1.3020   11.2440   20.9700 O.3   335  NAD335     -0.2174
     10  C2B       -2.0490    9.7800   22.7480 C.3   335  NAD335      0.2570
     11  O2B       -0.6430    9.8990   23.0780 O.3   335  NAD335     -0.2130
     12  C1B       -2.9360   10.7060   23.5540 C.3   335  NAD335      0.3186
     13  N9A       -3.2900   10.2110   24.9050 N.pl3 335  NAD335     -0.1439
     14  C8A       -3.5460    8.9470   25.3110 C.3   335  NAD335      0.3377
     15  N7A       -3.8860    8.8950   26.6070 N.2   335  NAD335     -0.2095
     16  C5A       -3.8210   10.1650   26.9970 C.2   335  NAD335      0.2526
     17  C6A       -4.1650   10.6050   28.2750 C.2   335  NAD335      0.4393
     18  N6A       -4.3630    9.7810   29.2890 N.pl3 335  NAD335      0.2180
     19  N1A       -4.1630   11.9400   28.4240 N.2   335  NAD335      0.0021
     20  C2A       -3.8650   12.7550   27.4110 C.3   335  NAD335      0.5254
     21  N3A       -3.5180   12.3250   26.2040 N.2   335  NAD335     -0.0055
     22  C4A       -3.4860   11.0120   25.9730 C.2   335  NAD335      0.3518
     23  O3        -5.9420    9.1290   17.5400 O.3   335  NAD335     -0.2703
     24  PN        -6.9180   10.1470   16.7780 P.3   335  NAD335      0.2189
     25  O1N       -6.3840   11.5150   16.9870 O.3   335  NAD335     -0.4371
     26  O2N       -7.1120    9.6560   15.4060 O.2   335  NAD335     -0.5170
     27  O5D       -8.3000   10.0050   17.5780 O.3   335  NAD335     -0.3112
     28  C5D       -8.5070   10.5800   18.8820 C.3   335  NAD335      0.1813
     29  C4D      -10.0100   10.6910   19.0960 C.3   335  NAD335      0.1799
     30  O4D      -10.6350   11.4820   18.0530 O.3   335  NAD335     -0.3327
     31  C3D      -10.7590    9.3540   19.0600 C.3   335  NAD335      0.2158
     32  O3D      -11.8760    9.4010   19.9610 O.3   335  NAD335     -0.2175
     33  C2D      -11.1650    9.2010   17.6140 C.3   335  NAD335      0.2309
     34  O2D      -12.2280    8.2780   17.3970 O.3   335  NAD335     -0.2158
     35  C1D      -11.5310   10.6490   17.2950 C.3   335  NAD335      0.2263
     36  N1N      -11.5250   10.9750   15.8630 N.pl3 335  NAD335     -0.2787
     37  C2N      -10.5400   10.5270   14.9590 C.3   335  NAD335      0.1244
     38  C3N      -10.5920   10.9900   13.6510 C.2   335  NAD335      0.0544
     39  C7N       -9.6030   10.5090   12.5620 C.2   335  NAD335      0.2818
     40  O7N       -9.9280   10.5610   11.3600 O.2   335  NAD335     -0.2670
     41  N7N       -8.4920    9.9430   12.9680 N.am  335  NAD335     -0.0839
     42  C4N      -11.5500   11.9010   13.2520 C.2   335  NAD335      0.0033
     43  C5N      -12.5190   12.3320   14.1380 C.2   335  NAD335      0.0157
     44  C6N      -12.5260   11.8480   15.4320 C.2   335  NAD335      0.0633
@<TRIPOS>BOND
     1    40    39    2
     2    39    41   am
     3    39    38    1
     4    42    38    2
     5    42    43    1
     6    38    37    1
     7    43    44    2
     8    37    36    1
     9    26    24    2
    10    44    36    1
    11    36    35    1
    12    24    25    1
    13    24    23    1
    14    24    27    1
    15     3     1    2
    16    35    33    1
    17    35    30    1
    18    34    33    1
    19    23     1    1
    20    27    28    1
    21    33    31    1
    22     1     2    1
    23     1     4    1
    24    30    29    1
    25    28    29    1
    26    31    29    1
    27    31    32    1
    28     4     5    1
    29     5     6    1
    30     9     8    1
    31     8     6    1
    32     8    10    1
    33     6     7    1
    34     7    12    1
    35    10    11    1
    36    10    12    1
    37    12    13    1
    38    13    14    1
    39    13    22    1
    40    14    15    1
    41    22    21    2
    42    22    16    1
    43    21    20    1
    44    15    16    2
    45    16    17    1
    46    20    19    1
    47    17    19    2
    48    17    18    1
