@<TRIPOS>MOLECULE
1dsy_PSF_A_1.pdb
 25 24 0 0 0
SMALL
GASTEIGER

@<TRIPOS>ATOM
      1  O2        16.3680   27.0650    9.6720 O.3   401  PSF401     -0.3057
      2  O1        17.2130   28.4750    7.9340 O.3   401  PSF401     -0.3119
      3  P         16.1590   28.2880    8.9190 P.3   401  PSF401      0.2145
      4  O4        14.8790   28.2180    8.2220 O.2   401  PSF401     -0.5172
      5  O3        16.1310   29.4280    9.8870 O.3   401  PSF401     -0.4373
      6  C2        15.2530   26.3970   10.3070 C.3   401  PSF401      0.2164
      7  C3        16.1280   25.3690   10.9150 C.2   401  PSF401      0.1936
      8  O11       16.4400   26.1820   12.2190 O.3   401  PSF401     -0.4227
      9  O12       17.4640   28.1540   12.9020 O.2   401  PSF401     -0.2497
     10  C1        17.4920   26.9220   12.3860 C.2   401  PSF401      0.3213
     11  C4        16.8070   24.0350   10.2680 C.2   401  PSF401      0.2182
     12  C5        16.8020   22.0980    8.4940 C.2   401  PSF401      0.3216
     13  O51       16.4180   22.0160    7.2620 O.2   401  PSF401     -0.2497
     14  O52       16.6260   23.4610    8.8030 O.3   401  PSF401     -0.4180
     15  C6        17.6750   21.1310    9.4430 C.3   401  PSF401      0.1100
     16  C7        17.6500   19.5040    9.4970 C.3   401  PSF401      0.0122
     17  C13       18.6940   26.3150   12.0460 C.3   401  PSF401      0.1100
     18  C14       18.7590   26.4170   10.6100 C.3   401  PSF401      0.0117
     19  C15       19.9030   25.8130   10.0440 C.3   401  PSF401      0.0006
     20  N         20.0350   28.6230    9.2570 N.3   401  PSF401     -0.1181
     21  CA        19.4890   28.5690    7.8740 C.3   401  PSF401      0.2241
     22  CB        18.3670   27.5810    7.7010 C.3   401  PSF401      0.1796
     23  C         19.4640   29.6890    6.8750 C.2   401  PSF401      0.3844
     24  OT1       18.7940   29.5040    5.8450 O.co2 401  PSF401     -0.2440
     25  OT2       20.1020   30.7170    7.1230 O.co2 401  PSF401     -0.2440
@<TRIPOS>BOND
     1    24    23   ar
     2    23    25   ar
     3    23    21    1
     4    13    12    2
     5    22    21    1
     6    22     2    1
     7    21    20    1
     8     2     3    1
     9     4     3    2
    10    12    14    1
    11    12    15    1
    12    14    11    1
    13     3     1    1
    14     3     5    1
    15    15    16    1
    16     1     6    1
    17    19    18    1
    18    11     7    2
    19     6     7    1
    20    18    17    1
    21     7     8    1
    22    17    10    1
    23     8    10    1
    24    10     9    2
