@<TRIPOS>MOLECULE
1dt1_HEM_A_1.pdb
 43 50 0 0 0
SMALL
GASTEIGER

@<TRIPOS>ATOM
      1  CHA       21.7500   24.7360   -0.1530 C.2   200  HEM200      0.0000
      2  CHB       25.3000   22.5040   -2.4970 C.2   200  HEM200      0.0000
      3  CHC       28.4690   24.8540    0.2180 C.2   200  HEM200      0.0000
      4  CHD       24.9140   25.8650    3.2820 C.2   200  HEM200      0.0000
      5  C1A       22.4080   23.9840   -1.1710 C.ar  200  HEM200      0.0000
      6  C2A       21.8440   23.3820   -2.2810 C.ar  200  HEM200      0.0000
      7  C3A       22.8800   22.7700   -2.9850 C.ar  200  HEM200      0.0000
      8  C4A       24.0240   23.0560   -2.2610 C.ar  200  HEM200      0.0000
      9  CMA       22.8440   21.8970   -4.2280 C.3   200  HEM200      0.0000
     10  CAA       20.3550   23.4060   -2.6540 C.3   200  HEM200      0.0000
     11  CBA       19.5090   22.2980   -2.0830 C.3   200  HEM200      0.0000
     12  CGA       18.0030   22.4940   -2.3290 C.2   200  HEM200      0.0000
     13  O1A       17.1970   21.6560   -1.9190 O.co2 200  HEM200      0.0000
     14  O2A       17.5950   23.4720   -2.9450 O.co2 200  HEM200      0.0000
     15  C1B       26.5310   23.0140   -2.0390 C.2   200  HEM200      0.0000
     16  C2B       27.7780   22.7610   -2.6130 C.2   200  HEM200      0.0000
     17  C3B       28.6800   23.4890   -1.8510 C.2   200  HEM200      0.0000
     18  C4B       27.9490   24.0860   -0.8360 C.2   200  HEM200      0.0000
     19  CMB       27.9820   21.8050   -3.7770 C.3   200  HEM200      0.0000
     20  CAB       30.0730   23.5800   -2.0480 C.3   200  HEM200      0.0000
     21  CBB       30.5800   23.8310   -3.4020 C.3   200  HEM200      0.0000
     22  C1C       27.7840   25.2300    1.4030 C.ar  200  HEM200      0.0000
     23  C2C       28.4360   25.6590    2.5620 C.ar  200  HEM200      0.0000
     24  C3C       27.4130   25.9050    3.4890 C.ar  200  HEM200      0.0000
     25  C4C       26.2200   25.6570    2.8170 C.ar  200  HEM200      0.0000
     26  CMC       29.9580   25.8480    2.6910 C.3   200  HEM200      0.0000
     27  CAC       27.5840   26.2760    4.8430 C.3   200  HEM200      0.0000
     28  CBC       28.2940   27.5160    5.2200 C.3   200  HEM200      0.0000
     29  C1D       23.7040   25.7160    2.6100 C.2   200  HEM200      0.0000
     30  C2D       22.4650   26.0380    3.1370 C.2   200  HEM200      0.0000
     31  C3D       21.5420   25.7550    2.1230 C.2   200  HEM200      0.0000
     32  C4D       22.2740   25.1930    1.0730 C.2   200  HEM200      0.0000
     33  CMD       22.1330   26.6390    4.4930 C.3   200  HEM200      0.0000
     34  CAD       20.0350   26.0350    2.2260 C.3   200  HEM200      0.0000
     35  CBD       19.7010   27.5460    2.1490 C.3   200  HEM200      0.0000
     36  CGD       18.2350   27.8540    2.4960 C.2   200  HEM200      0.0000
     37  O1D       17.5660   28.5500    1.7510 O.co2 200  HEM200      0.0000
     38  O2D       17.7940   27.3650    3.5240 O.co2 200  HEM200      0.0000
     39  NA        23.7320   23.7740   -1.1750 N.ar  200  HEM200      0.0000
     40  NB        26.6490   23.8130   -0.9800 N.2   200  HEM200      0.0000
     41  NC        26.4490   25.2360    1.5490 N.ar  200  HEM200      0.0000
     42  ND        23.5820   25.2100    1.3770 N.2   200  HEM200      0.0000
     43 FE         25.1020   24.4420    0.1980 Fe    200  HEM200      0.0000
@<TRIPOS>BOND
     1     9     7    1
     2    19    16    1
     3    21    20    1
     4     7     6   ar
     5     7     8   ar
     6    14    12   ar
     7    10     6    1
     8    10    11    1
     9    16    15    1
    10    16    17    2
    11     2     8    2
    12     2    15    1
    13    12    11    1
    14    12    13   ar
    15     6     5   ar
    16     8    39   ar
    17    20    17    1
    18    15    40    2
    19    17    18    1
    20    39     5   ar
    21    39    43    1
    22     5     1    2
    23    40    18    1
    24    40    43    1
    25    18     3    2
    26     1    32    1
    27    43    42    1
    28    43    41    1
    29     3    22    1
    30    32    42    2
    31    32    31    1
    32    42    29    1
    33    22    41   ar
    34    22    23   ar
    35    41    25   ar
    36    37    36   ar
    37    31    34    1
    38    31    30    2
    39    35    34    1
    40    35    36    1
    41    36    38   ar
    42    23    26    1
    43    23    24   ar
    44    29    30    1
    45    29     4    2
    46    25     4    1
    47    25    24   ar
    48    30    33    1
    49    24    27    1
    50    27    28    1
