@<TRIPOS>MOLECULE
1dt6_HEM_A_1.pdb
 43 50 0 0 0
SMALL
GASTEIGER

@<TRIPOS>ATOM
      1  CHA      -12.9690  -19.0240  -28.9360 C.2   501  HEM501      0.0000
      2  CHB       -9.3070  -22.0850  -29.5010 C.2   501  HEM501      0.0000
      3  CHC       -9.4790  -21.3180  -34.2090 C.2   501  HEM501      0.0000
      4  CHD      -13.2540  -18.4060  -33.6630 C.2   501  HEM501      0.0000
      5  C1A      -11.9340  -19.9330  -28.5940 C.2   501  HEM501      0.0000
      6  C2A      -11.5240  -20.2830  -27.3040 C.2   501  HEM501      0.0000
      7  C3A      -10.4810  -21.2190  -27.4780 C.2   501  HEM501      0.0000
      8  C4A      -10.3190  -21.3510  -28.8560 C.2   501  HEM501      0.0000
      9  CMA       -9.6780  -21.9580  -26.3990 C.3   501  HEM501      0.0000
     10  CAA      -12.1540  -19.7320  -25.9860 C.3   501  HEM501      0.0000
     11  CBA      -12.3810  -20.6980  -24.8260 C.3   501  HEM501      0.0000
     12  CGA      -13.7730  -20.6080  -24.1610 C.2   501  HEM501      0.0000
     13  O1A      -14.3250  -19.5160  -24.0290 O.co2 501  HEM501      0.0000
     14  O2A      -14.3440  -21.6110  -23.7450 O.co2 501  HEM501      0.0000
     15  C1B       -8.9120  -22.1090  -30.8620 C.ar  501  HEM501      0.0000
     16  C2B       -7.7870  -22.7770  -31.3850 C.ar  501  HEM501      0.0000
     17  C3B       -7.8370  -22.5680  -32.7670 C.ar  501  HEM501      0.0000
     18  C4B       -9.0000  -21.7770  -32.9710 C.ar  501  HEM501      0.0000
     19  CMB       -6.7880  -23.5570  -30.5420 C.3   501  HEM501      0.0000
     20  CAB       -6.9780  -23.0140  -33.8140 C.3   501  HEM501      0.0000
     21  CBB       -5.5560  -23.2400  -33.8460 C.3   501  HEM501      0.0000
     22  C1C      -10.5950  -20.5330  -34.5320 C.2   501  HEM501      0.0000
     23  C2C      -10.9350  -20.1370  -35.8260 C.2   501  HEM501      0.0000
     24  C3C      -12.1010  -19.3500  -35.6820 C.2   501  HEM501      0.0000
     25  C4C      -12.3610  -19.3070  -34.3070 C.2   501  HEM501      0.0000
     26  CMC      -10.1630  -20.5260  -37.1040 C.3   501  HEM501      0.0000
     27  CAC      -12.9140  -18.6790  -36.6510 C.3   501  HEM501      0.0000
     28  CBC      -13.4350  -19.1730  -37.9150 C.3   501  HEM501      0.0000
     29  C1D      -13.5780  -18.3460  -32.3020 C.ar  501  HEM501      0.0000
     30  C2D      -14.6150  -17.5860  -31.7660 C.ar  501  HEM501      0.0000
     31  C3D      -14.6060  -17.8590  -30.3990 C.ar  501  HEM501      0.0000
     32  C4D      -13.5420  -18.7690  -30.1910 C.ar  501  HEM501      0.0000
     33  CMD      -15.5700  -16.6610  -32.5180 C.3   501  HEM501      0.0000
     34  CAD      -15.5480  -17.2900  -29.3130 C.3   501  HEM501      0.0000
     35  CBD      -16.6490  -18.3290  -28.9480 C.3   501  HEM501      0.0000
     36  CGD      -17.6950  -17.9440  -27.8790 C.2   501  HEM501      0.0000
     37  O1D      -18.6950  -18.6310  -27.7380 O.co2 501  HEM501      0.0000
     38  O2D      -17.5080  -16.9540  -27.1830 O.co2 501  HEM501      0.0000
     39  NA       -11.1910  -20.5820  -29.5100 N.2   501  HEM501      0.0000
     40  NB        -9.6090  -21.5170  -31.8200 N.ar  501  HEM501      0.0000
     41  NC       -11.4380  -20.0450  -33.6120 N.2   501  HEM501      0.0000
     42  ND       -12.9390  -19.0530  -31.3460 N.ar  501  HEM501      0.0000
     43 FE        -11.1740  -20.1850  -31.5450 Fe    501  HEM501      0.0000
@<TRIPOS>BOND
     1    28    27    1
     2    26    23    1
     3    27    24    1
     4    23    24    2
     5    23    22    1
     6    24    25    1
     7    22     3    2
     8    22    41    1
     9    25     4    1
    10    25    41    2
    11     3    18    1
    12    21    20    1
    13    20    17    1
    14     4    29    2
    15    41    43    1
    16    18    17   ar
    17    18    40   ar
    18    17    16   ar
    19    33    30    1
    20    29    30   ar
    21    29    42   ar
    22    40    43    1
    23    40    15   ar
    24    30    31   ar
    25    43    42    1
    26    43    39    1
    27    16    15   ar
    28    16    19    1
    29    42    32   ar
    30    15     2    1
    31    31    32   ar
    32    31    34    1
    33    32     1    2
    34    39     8    1
    35    39     5    2
    36     2     8    2
    37    34    35    1
    38    35    36    1
    39     1     5    1
    40     8     7    1
    41     5     6    1
    42    36    37   ar
    43    36    38   ar
    44     7     6    2
    45     7     9    1
    46     6    10    1
    47    10    11    1
    48    11    12    1
    49    12    13   ar
    50    12    14   ar
