@<TRIPOS>MOLECULE
1dtd_GLU_A_1.pdb
 10 9 0 0 0
SMALL
GASTEIGER

@<TRIPOS>ATOM
      1  N         43.1320   44.6510    2.5640 N.3   300  GLU300     -0.1208
      2  CA        42.7320   43.2160    2.5540 C.3   300  GLU300      0.1949
      3  C         42.9430   42.7620    1.1780 C.2   300  GLU300      0.3819
      4  O         42.1000   43.1130    0.3970 O.co2 300  GLU300     -0.2441
      5  CB        43.3220   42.2690    3.4580 C.3   300  GLU300      0.0424
      6  CG        42.2560   41.2060    3.8280 C.3   300  GLU300      0.1161
      7  CD        41.0210   41.4920    3.0700 C.2   300  GLU300      0.3649
      8  OE1       40.4750   42.5350    3.4230 O.co2 300  GLU300     -0.2457
      9  OE2       40.4350   40.5660    2.4530 O.co2 300  GLU300     -0.2457
     10  OXT       44.0760   42.3450    0.8990 O.co2 300  GLU300     -0.2441
@<TRIPOS>BOND
     1     4     3   ar
     2    10     3   ar
     3     3     2    1
     4     9     7   ar
     5     2     1    1
     6     2     5    1
     7     7     8   ar
     8     7     6    1
     9     5     6    1
