@<TRIPOS>MOLECULE
1dth_BAT_A_1.pdb
 32 33 0 0 0
SMALL
GASTEIGER

@<TRIPOS>ATOM
      1  C1         0.7920   24.7450    4.8560 C.3   972  BAT972      0.1014
      2  C2        -0.2630   25.9070    4.8400 C.2   972  BAT972      0.2846
      3  C3         0.3100   23.6760    5.8560 C.3   972  BAT972      0.0724
      4  C4        -0.2370   22.9720    8.5430 C.ar  972  BAT972      0.0546
      5  C5        -1.1300   23.5310    9.4650 C.ar  972  BAT972      0.0132
      6  C6        -1.9180   22.4830   10.1190 C.ar  972  BAT972      0.0080
      7  C7        -1.5540   21.2200    9.6350 C.ar  972  BAT972      0.0359
      8  C8         1.1870   24.0170    3.5230 C.3   972  BAT972      0.0878
      9  C9         0.3100   23.1220    2.5980 C.3   972  BAT972      0.0096
     10  C10       -0.9920   23.7080    1.9890 C.3   972  BAT972      0.0005
     11  C11       -2.0500   24.4930    2.7870 C.3   972  BAT972      0.0000
     12  C12       -1.6830   22.3680    1.6670 C.3   972  BAT972      0.0000
     13  C13        2.0360   24.8390    2.5270 C.2   972  BAT972      0.2418
     14  C14        4.0160   24.6010    1.0720 C.3   972  BAT972      0.1770
     15  C15        4.7520   25.8210    1.6620 C.2   972  BAT972      0.2616
     16  C16        5.5300   28.0650    1.4470 C.3   972  BAT972      0.1386
     17  C17        3.2990   24.6910   -0.2760 C.3   972  BAT972      0.0574
     18  C18        2.9660   23.2830   -0.7290 C.ar  972  BAT972     -0.0200
     19  C19        3.9240   22.5100   -1.3840 C.ar  972  BAT972     -0.0042
     20  C20        3.6270   21.1950   -1.7730 C.ar  972  BAT972     -0.0003
     21  C21        2.3740   20.6560   -1.5010 C.ar  972  BAT972     -0.0000
     22  C22        1.4140   21.4250   -0.8440 C.ar  972  BAT972     -0.0003
     23  C23        1.7120   22.7420   -0.4570 C.ar  972  BAT972     -0.0042
     24  N1         0.3130   27.0680    4.4810 N.am  972  BAT972      0.0385
     25  N2         3.0650   24.1100    2.0520 N.am  972  BAT972     -0.1974
     26  N3         4.8310   26.9170    0.8930 N.am  972  BAT972     -0.2021
     27  O1        -1.4080   25.7970    5.1360 O.2   972  BAT972     -0.2697
     28  O2        -0.0950   28.0490    4.4010 O.2   972  BAT972     -0.1531
     29  O3         1.6630   25.8920    1.9890 O.2   972  BAT972     -0.2733
     30  O4         5.3100   25.7360    2.7580 O.2   972  BAT972     -0.2715
     31  S1         0.8630   23.8970    7.5670 S.3   972  BAT972     -0.1067
     32  S2        -0.3220   21.2450    8.4400 S.2   972  BAT972     -0.0802
@<TRIPOS>BOND
     1    20    21   ar
     2    20    19   ar
     3    21    22   ar
     4    19    18   ar
     5    22    23   ar
     6    18    23   ar
     7    18    17    1
     8    17    14    1
     9    26    16    1
    10    26    15   am
    11    14    15    1
    12    14    25    1
    13    15    30    2
    14    12    10    1
    15    10     9    1
    16    10    11    1
    17    29    13    2
    18    25    13   am
    19    13     8    1
    20     9     8    1
    21     8     1    1
    22    28    24    2
    23    24     2    1
    24     2     1    1
    25     2    27    2
    26     1     3    1
    27     3    31    1
    28    31     4    1
    29    32     4   ar
    30    32     7   ar
    31     4     5   ar
    32     5     6   ar
    33     7     6   ar
