@<TRIPOS>MOLECULE
1dti_HEM_A_1.pdb
 43 50 0 0 0
SMALL
GASTEIGER

@<TRIPOS>ATOM
      1 FE         18.0140   24.7190   28.2520 Fe    154  HEM154      0.0000
      2  CHA       21.1370   24.0800   29.1280 C.2   154  HEM154      0.0000
      3  CHB       19.0320   25.4900   25.1740 C.2   154  HEM154      0.0000
      4  CHC       14.8810   25.5030   27.3920 C.2   154  HEM154      0.0000
      5  CHD       16.9960   24.0940   31.3400 C.2   154  HEM154      0.0000
      6  NA        19.7260   24.8460   27.3640 N.ar  154  HEM154      0.0000
      7  C1A       20.9970   24.5190   27.8080 C.ar  154  HEM154      0.0000
      8  C2A       22.0670   24.6520   26.8450 C.ar  154  HEM154      0.0000
      9  C3A       21.4670   25.0680   25.7130 C.ar  154  HEM154      0.0000
     10  C4A       20.0570   25.1340   26.0520 C.ar  154  HEM154      0.0000
     11  CMA       22.0560   25.4180   24.3640 C.3   154  HEM154      0.0000
     12  CAA       23.5380   24.3540   27.1060 C.3   154  HEM154      0.0000
     13  CBA       24.0140   22.9090   26.9220 C.3   154  HEM154      0.0000
     14  CGA       22.8790   21.9380   26.6150 C.2   154  HEM154      0.0000
     15  O1A       22.5690   21.8220   25.4090 O.co2 154  HEM154      0.0000
     16  O2A       22.3630   21.3750   27.6010 O.co2 154  HEM154      0.0000
     17  NB        17.1480   25.4140   26.6460 N.2   154  HEM154      0.0000
     18  C1B       17.6620   25.6770   25.3890 C.2   154  HEM154      0.0000
     19  C2B       16.7210   26.1520   24.3990 C.2   154  HEM154      0.0000
     20  C3B       15.5170   26.1320   25.0220 C.2   154  HEM154      0.0000
     21  C4B       15.8230   25.6700   26.3700 C.2   154  HEM154      0.0000
     22  CMB       17.0660   26.5360   22.9730 C.3   154  HEM154      0.0000
     23  CAB       14.1740   26.4040   24.6640 C.3   154  HEM154      0.0000
     24  CBB       13.8160   27.3860   23.6650 C.3   154  HEM154      0.0000
     25  NC        16.2960   24.7570   29.1620 N.ar  154  HEM154      0.0000
     26  C1C       15.0400   25.1530   28.7370 C.ar  154  HEM154      0.0000
     27  C2C       13.9970   25.1800   29.7470 C.ar  154  HEM154      0.0000
     28  C3C       14.6070   24.8030   30.8930 C.ar  154  HEM154      0.0000
     29  C4C       15.9820   24.5420   30.4930 C.ar  154  HEM154      0.0000
     30  CMC       12.5650   25.6170   29.5030 C.3   154  HEM154      0.0000
     31  CAC       14.2740   24.6370   32.2690 C.3   154  HEM154      0.0000
     32  CBC       13.0690   25.1270   32.8640 C.3   154  HEM154      0.0000
     33  ND        18.8750   24.1530   29.8730 N.2   154  HEM154      0.0000
     34  C1D       18.3630   23.9170   31.1350 C.2   154  HEM154      0.0000
     35  C2D       19.3170   23.4820   32.1390 C.2   154  HEM154      0.0000
     36  C3D       20.5080   23.5160   31.5160 C.2   154  HEM154      0.0000
     37  C4D       20.2070   23.9000   30.1510 C.2   154  HEM154      0.0000
     38  CMD       18.9640   23.1070   33.5710 C.3   154  HEM154      0.0000
     39  CAD       21.9150   23.3330   32.0890 C.2   154  HEM154      0.0000
     40  CBD       22.6600   24.6150   32.4730 C.2   154  HEM154      0.0000
     41  CGD       23.8820   24.4650   33.3420 C.2   154  HEM154      0.0000
     42  O1D       23.6940   24.1840   34.5470 O.co2 154  HEM154      0.0000
     43  O2D       24.9940   24.6680   32.7880 O.co2 154  HEM154      0.0000
@<TRIPOS>BOND
     1    22    19    1
     2    24    23    1
     3    11     9    1
     4    19    20    2
     5    19    18    1
     6    23    20    1
     7    20    21    1
     8     3    18    1
     9     3    10    2
    10    18    17    2
    11    15    14   ar
    12     9    10   ar
    13     9     8   ar
    14    10     6   ar
    15    21    17    1
    16    21     4    2
    17    14    13    1
    18    14    16   ar
    19    17     1    1
    20     8    12    1
    21     8     7   ar
    22    13    12    1
    23     6     7   ar
    24     6     1    1
    25     4    26    1
    26     7     2    2
    27     1    25    1
    28     1    33    1
    29    26    25   ar
    30    26    27   ar
    31     2    37    1
    32    25    29   ar
    33    30    27    1
    34    27    28   ar
    35    33    37    2
    36    33    34    1
    37    37    36    1
    38    29    28   ar
    39    29     5    1
    40    28    31    1
    41    34     5    2
    42    34    35    1
    43    36    39    1
    44    36    35    2
    45    39    40    2
    46    35    38    1
    47    31    32    1
    48    40    41    1
    49    43    41   ar
    50    41    42   ar
