@<TRIPOS>MOLECULE
1dtl_BEP_A_1.pdb
 27 29 0 0 0
SMALL
GASTEIGER

@<TRIPOS>ATOM
      1  C1         6.7260    1.5570    1.5880 C.3   204  BEP204      0.1597
      2  C2         5.8580    2.4180    0.6410 C.3   204  BEP204      0.1073
      3  C3         4.3760    2.0730    0.7590 C.3   204  BEP204      0.1095
      4  O1         7.8900    2.3340    1.7940 O.3   204  BEP204     -0.3523
      5  N2         6.4010    2.2540   -0.6890 N.3   204  BEP204     -0.2704
      6  N3         4.2350    1.3840    2.0550 N.pl3 204  BEP204     -0.3021
      7  C4         8.0230    2.6060    3.1730 C.3   204  BEP204      0.1421
      8  C5         8.4950    4.0500    3.3470 C.3   204  BEP204      0.0297
      9  C6         7.5350    5.0090    2.6430 C.3   204  BEP204      0.0026
     10  C7         8.6080    4.4100    4.8310 C.3   204  BEP204      0.0026
     11  C8         5.4880    1.6360   -1.6270 C.3   204  BEP204      0.0722
     12  C9         6.3980    1.4960   -2.8560 C.3   204  BEP204      0.0188
     13  C10        7.7110    1.0670   -2.2020 C.3   204  BEP204      0.0188
     14  C11        7.3960    1.1930   -0.7120 C.3   204  BEP204      0.0722
     15  C12        3.9110    2.2880    3.1270 C.3   204  BEP204      0.1177
     16  C13        2.9700    3.3640    3.1540 C.ar  204  BEP204     -0.0024
     17  C14        3.2140    4.4140    4.0490 C.ar  204  BEP204     -0.0026
     18  C15        2.3270    5.4740    4.1440 C.ar  204  BEP204     -0.0003
     19  C16        1.2010    5.5410    3.3340 C.ar  204  BEP204     -0.0000
     20  C17        0.9560    4.5120    2.4330 C.ar  204  BEP204     -0.0003
     21  C18        1.8350    3.4360    2.3580 C.ar  204  BEP204     -0.0026
     22  C19        3.2620    0.3810    1.9200 C.ar  204  BEP204      0.0481
     23  C20        3.2240   -0.3760    0.7530 C.ar  204  BEP204      0.0145
     24  C21        2.2880   -1.3960    0.5990 C.ar  204  BEP204      0.0013
     25  C22        1.3740   -1.6490    1.6140 C.ar  204  BEP204      0.0001
     26  C23        1.4130   -0.9020    2.7910 C.ar  204  BEP204      0.0013
     27  C24        2.3220    0.1400    2.9180 C.ar  204  BEP204      0.0145
@<TRIPOS>BOND
     1    12    13    1
     2    12    11    1
     3    13    14    1
     4    11     5    1
     5    14     5    1
     6     5     2    1
     7    24    23   ar
     8    24    25   ar
     9     2     3    1
    10     2     1    1
    11    23    22   ar
    12     3     6    1
    13     1     4    1
    14    25    26   ar
    15     4     7    1
    16    22     6    1
    17    22    27   ar
    18     6    15    1
    19    21    20   ar
    20    21    16   ar
    21    20    19   ar
    22     9     8    1
    23    26    27   ar
    24    15    16    1
    25    16    17   ar
    26     7     8    1
    27    19    18   ar
    28     8    10    1
    29    17    18   ar
