@<TRIPOS>MOLECULE
1dtm_HEM_A_1.pdb
 43 50 0 0 0
SMALL
GASTEIGER

@<TRIPOS>ATOM
      1 FE         -5.4580   30.6770   -8.1920 Fe    154  HEM154      0.0000
      2  CHA       -6.4070   33.8220   -8.9090 C.2   154  HEM154      0.0000
      3  CHB       -4.7350   31.5800   -4.9590 C.2   154  HEM154      0.0000
      4  CHC       -4.3810   27.5060   -7.3240 C.2   154  HEM154      0.0000
      5  CHD       -6.2890   29.7600  -11.1030 C.2   154  HEM154      0.0000
      6  NA        -5.5260   32.1960   -7.2720 N.2   154  HEM154      0.0000
      7  C1A       -5.9050   33.4790   -7.7180 C.2   154  HEM154      0.0000
      8  C2A       -5.7460   34.4630   -6.6790 C.2   154  HEM154      0.0000
      9  C3A       -5.2910   33.8310   -5.6150 C.2   154  HEM154      0.0000
     10  C4A       -5.1750   32.4460   -5.9270 C.2   154  HEM154      0.0000
     11  CMA       -4.9620   34.3440   -4.2040 C.3   154  HEM154      0.0000
     12  CAA       -6.1740   35.9420   -6.7820 C.3   154  HEM154      0.0000
     13  CBA       -7.6460   36.2660   -6.3220 C.3   154  HEM154      0.0000
     14  CGA       -8.6750   35.3290   -6.9470 C.2   154  HEM154      0.0000
     15  O1A       -8.9860   35.5190   -8.1760 O.co2 154  HEM154      0.0000
     16  O2A       -9.0140   34.3470   -6.2310 O.co2 154  HEM154      0.0000
     17  NB        -4.6390   29.7750   -6.5580 N.ar  154  HEM154      0.0000
     18  C1B       -4.5460   30.3140   -5.2700 C.ar  154  HEM154      0.0000
     19  C2B       -4.1120   29.4040   -4.3110 C.ar  154  HEM154      0.0000
     20  C3B       -3.9620   28.2200   -4.9690 C.ar  154  HEM154      0.0000
     21  C4B       -4.3130   28.4680   -6.3650 C.ar  154  HEM154      0.0000
     22  CMB       -3.8490   29.9380   -2.8590 C.3   154  HEM154      0.0000
     23  CAB       -3.5830   26.7870   -4.4830 C.2   154  HEM154      0.0000
     24  CBB       -2.5400   26.4210   -3.7210 C.2   154  HEM154      0.0000
     25  NC        -5.3170   29.1280   -8.8970 N.2   154  HEM154      0.0000
     26  C1C       -4.8490   27.8540   -8.5180 C.2   154  HEM154      0.0000
     27  C2C       -4.9300   26.9160   -9.6240 C.2   154  HEM154      0.0000
     28  C3C       -5.3680   27.5970  -10.7040 C.2   154  HEM154      0.0000
     29  C4C       -5.6580   28.9170  -10.2430 C.2   154  HEM154      0.0000
     30  CMC       -4.5110   25.4590   -9.4780 C.3   154  HEM154      0.0000
     31  CAC       -5.7650   27.2160  -12.1530 C.2   154  HEM154      0.0000
     32  CBC       -5.3550   26.0740  -12.7210 C.2   154  HEM154      0.0000
     33  ND        -6.2490   31.6030   -9.6080 N.ar  154  HEM154      0.0000
     34  C1D       -6.5180   31.0540  -10.8580 C.ar  154  HEM154      0.0000
     35  C2D       -6.8590   32.0560  -11.8540 C.ar  154  HEM154      0.0000
     36  C3D       -6.9080   33.2050  -11.2040 C.ar  154  HEM154      0.0000
     37  C4D       -6.5440   32.9090   -9.8460 C.ar  154  HEM154      0.0000
     38  CMD       -7.1290   31.7550  -13.3490 C.3   154  HEM154      0.0000
     39  CAD       -7.0730   34.6400  -11.7140 C.3   154  HEM154      0.0000
     40  CBD       -5.7700   35.5190  -11.6810 C.3   154  HEM154      0.0000
     41  CGD       -5.6180   36.7080  -12.6320 C.2   154  HEM154      0.0000
     42  O1D       -5.2700   36.4270  -13.8010 O.co2 154  HEM154      0.0000
     43  O2D       -5.9510   37.8870  -12.2470 O.co2 154  HEM154      0.0000
@<TRIPOS>BOND
     1    42    41   ar
     2    38    35    1
     3    32    31    2
     4    41    43   ar
     5    41    40    1
     6    31    28    1
     7    35    36   ar
     8    35    34   ar
     9    39    40    1
    10    39    36    1
    11    36    37   ar
    12     5    34    2
    13     5    29    1
    14    34    33   ar
    15    28    29    1
    16    28    27    2
    17    29    25    2
    18    37    33   ar
    19    37     2    2
    20    27    30    1
    21    27    26    1
    22    33     1    1
    23     2     7    1
    24    25    26    1
    25    25     1    1
    26    26     4    2
    27     1     6    1
    28     1    17    1
    29    15    14   ar
    30     7     6    2
    31     7     8    1
    32     4    21    1
    33     6    10    1
    34    14    13    1
    35    14    16   ar
    36    12     8    1
    37    12    13    1
    38     8     9    2
    39    17    21   ar
    40    17    18   ar
    41    21    20   ar
    42    10     9    1
    43    10     3    2
    44     9    11    1
    45    18     3    1
    46    18    19   ar
    47    20    23    1
    48    20    19   ar
    49    23    24    2
    50    19    22    1
