@<TRIPOS>MOLECULE
1dtn_APG_A_1.pdb
 12 12 0 0 0
SMALL
GASTEIGER

@<TRIPOS>ATOM
      1  C1        33.4760    5.1120   17.2630 C.ar  399  APG399     -0.0002
      2  C2        32.2390    5.0980   17.8890 C.ar  399  APG399     -0.0014
      3  C3        31.1560    4.4950   17.2800 C.ar  399  APG399      0.0155
      4  C4        31.3130    3.9180   16.0340 C.ar  399  APG399     -0.0014
      5  C5        32.5310    3.9770   15.3780 C.ar  399  APG399     -0.0002
      6  C6        33.6170    4.5680   15.9980 C.ar  399  APG399     -0.0000
      7  C12       29.7910    4.4320   17.9960 C.3   399  APG399      0.2376
      8  O17       28.9040    3.7120   17.1030 O.3   399  APG399     -0.2096
      9  C13       29.2030    5.7950   18.4680 C.2   399  APG399      0.3955
     10  C14       29.9080    3.4850   19.2030 C.3   399  APG399      0.0494
     11  O14       28.2790    6.3320   17.9090 O.co2 399  APG399     -0.2426
     12  O15       29.5820    6.3530   19.4640 O.co2 399  APG399     -0.2426
@<TRIPOS>BOND
     1     5     6   ar
     2     5     4   ar
     3     6     1   ar
     4     4     3   ar
     5     8     7    1
     6     1     2   ar
     7     3     2   ar
     8     3     7    1
     9    11     9   ar
    10     7     9    1
    11     7    10    1
    12     9    12   ar
