@<TRIPOS>MOLECULE
1dtp_APU_A_1.pdb
 43 47 0 0 0
SMALL
GASTEIGER

@<TRIPOS>ATOM
      1  PA        -1.0130    4.3850   44.8400 P.3   200  APU200      0.2141
      2  O1A       -0.9110    5.0410   43.5430 O.2   200  APU200     -0.5172
      3  O2A       -2.0570    3.3770   45.0750 O.3   200  APU200     -0.4373
      4  O5B       -0.4830    3.9980   49.9710 O.3   200  APU200     -0.2176
      5  C5B       -1.6870    4.7760   49.6900 C.3   200  APU200      0.2142
      6  C4B       -2.0560    4.9630   48.2000 C.3   200  APU200      0.1822
      7  O4B       -2.9400    6.1000   48.2580 O.3   200  APU200     -0.3135
      8  C3B       -0.8960    5.4320   47.3000 C.3   200  APU200      0.1885
      9  O3B       -1.1490    5.5370   45.9040 O.3   200  APU200     -0.3111
     10  C2B       -0.7450    6.8780   47.7490 C.3   200  APU200      0.2541
     11  O2B        0.1090    7.6210   46.8060 O.3   200  APU200     -0.2131
     12  C1B       -2.2320    7.2880   47.8710 C.3   200  APU200      0.3185
     13  N9A       -2.5600    8.5520   48.6350 N.pl3 200  APU200     -0.1439
     14  C8A       -2.9470    9.7460   48.0400 C.3   200  APU200      0.3377
     15  N7A       -3.3920   10.6850   48.8520 N.2   200  APU200     -0.2095
     16  C5A       -3.1020   10.1370   50.1060 C.2   200  APU200      0.2526
     17  C6A       -3.1300   10.7050   51.3830 C.2   200  APU200      0.4393
     18  N6A       -3.2190   12.0120   51.5150 N.pl3 200  APU200      0.2180
     19  N1A       -2.9910    9.8800   52.4320 N.2   200  APU200      0.0021
     20  C2A       -2.6300    8.6130   52.2340 C.3   200  APU200      0.5254
     21  N3A       -2.3260    8.0350   51.0820 N.2   200  APU200     -0.0055
     22  C4A       -2.6440    8.8280   50.0150 C.2   200  APU200      0.3518
     23  N1U        3.4680    2.9210   47.6510 N.am  200  APU200     -0.1766
     24  C2U        4.6190    2.3960   48.1810 C.1   200  APU200      0.2845
     25  O2U        4.8100    1.1750   48.3900 O.2   200  APU200     -0.1918
     26  N3U        5.5930    3.3740   48.4530 N.2   200  APU200     -0.2452
     27  C4U        5.4490    4.7330   48.3660 C.1   200  APU200      0.2182
     28  O4U        6.2940    5.4190   48.9070 O.2   200  APU200     -0.2085
     29  C5U        4.2870    5.1780   47.6690 C.2   200  APU200      0.1242
     30  C6U        3.3450    4.2700   47.3410 C.2   200  APU200      0.0929
     31  C1D        2.6650    1.9030   47.0420 C.3   200  APU200      0.2400
     32  C2D        1.3440    1.7680   47.6850 C.3   200  APU200      0.2293
     33  O2D        1.5760    0.8790   48.7690 O.3   200  APU200     -0.2158
     34  C3D        0.5630    1.0740   46.5630 C.3   200  APU200      0.1902
     35  O3D        0.5950   -0.3590   46.7140 O.3   200  APU200     -0.2674
     36  C4D        1.3170    1.5190   45.2790 C.3   200  APU200      0.1773
     37  O4D        2.5780    2.0890   45.6500 O.3   200  APU200     -0.3321
     38  O5D        0.3390    3.7480   45.0120 O.3   200  APU200     -0.3114
     39  C5D        0.5780    2.5380   44.3640 C.3   200  APU200      0.1812
     40  PU        -0.6750   -1.2400   46.1880 P.3   200  APU200      0.5327
     41  O1X       -0.9630   -0.7920   44.7020 O.2   200  APU200     -0.2224
     42  O2X       -1.9420   -0.8830   46.8720 O.3   200  APU200     -0.1145
     43  O3X       -0.2550   -2.6630   46.0830 O.3   200  APU200     -0.1145
@<TRIPOS>BOND
     1     2     1    2
     2    39    38    1
     3    39    36    1
     4    41    40    2
     5     1    38    1
     6     1     3    1
     7     1     9    1
     8    36    37    1
     9    36    34    1
    10    37    31    1
    11     9     8    1
    12    43    40    1
    13    40    35    1
    14    40    42    1
    15    34    35    1
    16    34    32    1
    17    11    10    1
    18    31    23    1
    19    31    32    1
    20     8    10    1
    21     8     6    1
    22    30    23    1
    23    30    29    2
    24    23    24   am
    25    29    27    1
    26    32    33    1
    27    10    12    1
    28    12     7    1
    29    12    13    1
    30    14    13    1
    31    14    15    1
    32    24    25    2
    33    24    26    2
    34     6     7    1
    35     6     5    1
    36    27    26    2
    37    27    28    2
    38    13    22    1
    39    15    16    2
    40     5     4    1
    41    22    16    1
    42    22    21    2
    43    16    17    1
    44    21    20    1
    45    17    18    1
    46    17    19    2
    47    20    19    1
