@<TRIPOS>MOLECULE
1dtq_FPT_A_1.pdb
 24 25 0 0 0
SMALL
GASTEIGER

@<TRIPOS>ATOM
      1  C1         0.2380  -37.3790   19.0320 C.ar  999  FPT999      0.1536
      2  N2         0.2770  -37.4010   20.4190 N.ar  999  FPT999     -0.2266
      3  C3        -0.7440  -36.8670   21.1790 C.ar  999  FPT999      0.1106
      4  C4        -1.8570  -36.2940   20.5200 C.ar  999  FPT999      0.0877
      5  C5        -1.8760  -36.2550   19.1130 C.ar  999  FPT999      0.0148
      6  C6        -0.8430  -36.7850   18.3600 C.ar  999  FPT999      0.0369
      7  C7        -3.0160  -35.8050   21.2560 C.1   999  FPT999      0.1020
      8  N7        -3.9720  -35.4400   21.8140 N.1   999  FPT999     -0.1908
      9  N8         1.1040  -38.0740   18.2690 N.am  999  FPT999     -0.1717
     10  C9         2.4030  -38.2360   18.3360 C.2   999  FPT999      0.1758
     11  S9         3.4100  -38.2210   16.9450 S.2   999  FPT999     -0.0151
     12  N10        2.8830  -38.3830   19.5530 N.am  999  FPT999     -0.2160
     13  C11        2.9620  -39.6970   20.1960 C.3   999  FPT999      0.1205
     14  C12        3.7810  -39.7290   21.5000 C.3   999  FPT999      0.0716
     15  C13        3.7140  -38.4160   22.2530 C.ar  999  FPT999      0.0911
     16  N14        4.7770  -37.5450   22.0930 N.ar  999  FPT999     -0.2456
     17  C15        4.8590  -36.3330   22.7490 C.ar  999  FPT999      0.1017
     18  C16        3.8370  -35.9580   23.6240 C.ar  999  FPT999      0.0599
     19  C17        2.7420  -36.8290   23.8190 C.ar  999  FPT999      0.1685
     20  C18        2.6500  -38.0690   23.1240 C.ar  999  FPT999      0.1873
     21  O17        1.8120  -36.4960   24.8030 O.3   999  FPT999     -0.4731
     22  CA         0.8440  -35.5180   24.4280 C.3   999  FPT999      0.2056
     23  CB         0.0820  -35.0560   25.6660 C.3   999  FPT999      0.0512
     24  F18        1.5450  -38.8370   23.2280 F     999  FPT999     -0.1997
@<TRIPOS>BOND
     1    11    10    2
     2     9    10    1
     3     9     1    1
     4    10    12    1
     5     6     1   ar
     6     6     5   ar
     7     1     2   ar
     8     5     4   ar
     9    12    13    1
    10    13    14    1
    11     2     3   ar
    12     4     3   ar
    13     4     7    1
    14     7     8    3
    15    14    15    1
    16    16    15   ar
    17    16    17   ar
    18    15    20   ar
    19    17    18   ar
    20    20    24    1
    21    20    19   ar
    22    18    19   ar
    23    19    21    1
    24    22    21    1
    25    22    23    1
