@<TRIPOS>MOLECULE
1dtt_FTC_A_1.pdb
 23 24 0 0 0
SMALL
GASTEIGER

@<TRIPOS>ATOM
      1  C1        -1.9070  -34.6890   21.8880 C.ar  999  FTC999      0.1536
      2  N2        -1.8840  -34.8920   23.2680 N.ar  999  FTC999     -0.2264
      3  C3        -2.8370  -34.3510   24.1270 C.ar  999  FTC999      0.1117
      4  C4        -3.8600  -33.5890   23.5590 C.ar  999  FTC999      0.0769
      5  C5        -3.8880  -33.3710   22.1780 C.ar  999  FTC999      0.0159
      6  C6        -2.9350  -33.9140   21.3300 C.ar  999  FTC999      0.0371
      7 CL7        -5.0920  -32.9420   24.5360 Cl    999  FTC999     -0.0806
      8  N8        -1.0530  -35.2640   21.0040 N.am  999  FTC999     -0.1717
      9  C9         0.0140  -36.0400   21.2010 C.2   999  FTC999      0.1758
     10  S9         1.0970  -36.3310   19.8700 S.2   999  FTC999     -0.0151
     11  N10        0.1530  -36.5920   22.4310 N.am  999  FTC999     -0.2160
     12  C11        1.4790  -36.8940   23.0050 C.3   999  FTC999      0.1205
     13  C12        1.3560  -37.1530   24.5380 C.3   999  FTC999      0.0716
     14  C13        1.5140  -35.8510   25.3280 C.ar  999  FTC999      0.0911
     15  N14        2.6560  -35.0920   25.1450 N.ar  999  FTC999     -0.2456
     16  C15        2.8500  -33.8640   25.7430 C.ar  999  FTC999      0.1017
     17  C16        1.8560  -33.3500   26.5780 C.ar  999  FTC999      0.0599
     18  C17        0.6830  -34.0880   26.7940 C.ar  999  FTC999      0.1685
     19  C18        0.4940  -35.3450   26.1650 C.ar  999  FTC999      0.1873
     20  O17       -0.2550  -33.5690   27.6670 O.3   999  FTC999     -0.4731
     21  CA        -1.0880  -32.5880   27.0670 C.3   999  FTC999      0.2056
     22  CB        -2.1390  -32.1440   28.0580 C.3   999  FTC999      0.0512
     23  F18       -0.6420  -36.0320   26.3630 F     999  FTC999     -0.1997
@<TRIPOS>BOND
     1    10     9    2
     2     8     9    1
     3     8     1    1
     4     9    11    1
     5     6     1   ar
     6     6     5   ar
     7     1     2   ar
     8     5     4   ar
     9    11    12    1
    10    12    13    1
    11     2     3   ar
    12     4     3   ar
    13     4     7    1
    14    13    14    1
    15    15    14   ar
    16    15    16   ar
    17    14    19   ar
    18    16    17   ar
    19    19    23    1
    20    19    18   ar
    21    17    18   ar
    22    18    20    1
    23    21    20    1
    24    21    22    1
