@<TRIPOS>MOLECULE
1dtu_GLC_A_1.pdb
 11 11 0 0 0
SMALL
GASTEIGER

@<TRIPOS>ATOM
      1  C1        62.7390  104.3400   10.5260 C.3   689  GLC689      0.3022
      2  C2        62.2510  103.4020   11.5910 C.3   689  GLC689      0.2409
      3  C3        63.0350  102.1120   11.5810 C.3   689  GLC689      0.1899
      4  C4        63.0220  101.5110   10.1850 C.3   689  GLC689      0.0681
      5  C5        63.5490  102.5270    9.1710 C.3   689  GLC689      0.1534
      6  C6        63.4250  102.0350    7.7490 C.3   689  GLC689      0.2116
      7  O1        63.9810  104.8320   10.8700 O.3   689  GLC689     -0.1869
      8  O2        62.3770  104.0320   12.8690 O.3   689  GLC689     -0.2149
      9  O3        62.4590  101.2150   12.5210 O.3   689  GLC689     -0.2201
     10  O5        62.7290  103.6960    9.2490 O.3   689  GLC689     -0.3263
     11  O6        64.5920  102.4370    7.0270 O.3   689  GLC689     -0.2177
@<TRIPOS>BOND
     1    11     6    1
     2     6     5    1
     3     5    10    1
     4     5     4    1
     5    10     1    1
     6     4     3    1
     7     1     7    1
     8     1     2    1
     9     3     2    1
    10     3     9    1
    11     2     8    1
