@<TRIPOS>MOLECULE
1dtu_ADH_A_1.pdb
 11 11 0 0 0
SMALL
GASTEIGER

@<TRIPOS>ATOM
      1  C1        45.7060   85.5400   43.8760 C.3   693  ADH693      0.1247
      2  C2        44.3460   85.6700   43.2270 C.3   693  ADH693      0.1995
      3  C3        43.5240   86.6350   44.0360 C.3   693  ADH693      0.1837
      4  C4        43.2770   86.0270   45.4050 C.3   693  ADH693      0.0383
      5  C5        44.4650   85.5790   46.0020 C.3   693  ADH693      0.0372
      6  C6        44.3130   84.6080   47.1360 C.3   693  ADH693      0.1822
      7  C7        45.6190   85.2810   45.2570 C.3   693  ADH693      0.0244
      8  N1        46.4150   86.7910   43.6670 N.3   693  ADH693     -0.1301
      9  O2        44.4810   86.1100   41.8840 O.3   693  ADH693     -0.2189
     10  O3        42.2730   86.9520   43.4180 O.3   693  ADH693     -0.2204
     11  O6        43.9500   83.2840   46.7400 O.3   693  ADH693     -0.2204
@<TRIPOS>BOND
     1     9     2    1
     2     2     1    1
     3     2     3    1
     4    10     3    1
     5     8     1    1
     6     1     7    1
     7     3     4    1
     8     7     5    1
     9     4     5    1
    10     5     6    1
    11    11     6    1
