@<TRIPOS>MOLECULE
1dtu_G6D_A_1.pdb
 10 10 0 0 0
SMALL
GASTEIGER

@<TRIPOS>ATOM
      1  C1        49.4440   89.1750   46.0050 C.3   692  G6D692      0.3021
      2  O2        51.0900   87.5250   45.4200 O.3   692  G6D692     -0.2149
      3  C2        49.7260   87.7100   45.7670 C.3   692  G6D692      0.2409
      4  C3A       48.8310   87.0920   44.7200 C.3   692  G6D692      0.1898
      5  O3A       48.9050   85.6670   44.7950 O.3   692  G6D692     -0.2201
      6  C4A       47.3810   87.4610   44.9780 C.3   692  G6D692      0.0653
      7  C5A       47.2320   88.9720   44.9970 C.3   692  G6D692      0.1206
      8  O5        48.0690   89.5310   46.0130 O.3   692  G6D692     -0.3290
      9  C6A       45.8230   89.3770   45.3230 C.3   692  G6D692      0.0322
     10  O1        50.2030   89.9710   45.1220 O.3   692  G6D692     -0.1869
@<TRIPOS>BOND
     1     4     5    1
     2     4     6    1
     3     4     3    1
     4     6     7    1
     5     7     9    1
     6     7     8    1
     7    10     1    1
     8     2     3    1
     9     3     1    1
    10     1     8    1
