@<TRIPOS>MOLECULE
1dtw_TDP_A_1.pdb
 26 27 0 0 0
SMALL
GASTEIGER

@<TRIPOS>ATOM
      1  N1'       77.0640    0.1600   11.7000 N.2   403  TDP403     -0.1861
      2  C2'       77.1670    1.4580   12.1760 C.1   403  TDP403      0.0663
      3  C2A       77.2420    1.7410   13.6390 C.3   403  TDP403      0.1291
      4  N3'       77.2080    2.4900   11.3520 N.2   403  TDP403     -0.3368
      5  C4'       77.1480    2.2890    9.9760 C.2   403  TDP403      0.2292
      6  N4'       77.2010    3.3860    9.2290 N.pl3 403  TDP403     -0.0925
      7  C5'       77.0420    0.9550    9.4350 C.2   403  TDP403      0.0654
      8  C6'       77.0040   -0.0480   10.3530 C.2   403  TDP403      0.1115
      9  C35       76.9770    0.6740    7.9380 C.3   403  TDP403      0.1237
     10  N3        75.6410    1.1490    7.3740 N.pl3 403  TDP403     -0.2970
     11  C2        75.6070    2.3060    6.7280 C.3   403  TDP403      0.1543
     12  S1        74.1180    2.7560    6.1620 S.3   403  TDP403     -0.0951
     13  C5        73.3940    1.3100    6.8020 C.2   403  TDP403      0.0164
     14  C4        74.3760    0.5390    7.4310 C.2   403  TDP403      0.0279
     15  C4A       74.1220   -0.7690    8.0920 C.3   403  TDP403      0.0473
     16  C5A       71.9120    1.0510    6.6340 C.3   403  TDP403      0.0661
     17  C5B       70.9700    2.2220    6.4170 C.3   403  TDP403      0.1544
     18  O5G       69.8540    2.1890    7.2940 O.3   403  TDP403     -0.3134
     19  P1        68.5400    3.1070    7.5150 P.3   403  TDP403      0.2230
     20  O11       68.8400    4.3420    6.5430 O.3   403  TDP403     -0.2261
     21  O12       67.3200    2.4050    7.1450 O.2   403  TDP403     -0.5169
     22  O13       68.6390    3.6460    8.9060 O.3   403  TDP403     -0.4370
     23  P2        68.6860    4.6950    4.9480 P.3   403  TDP403      0.5373
     24  O21       67.7630    5.9080    4.8660 O.3   403  TDP403     -0.1143
     25  O22       70.0350    4.7190    4.4220 O.3   403  TDP403     -0.1143
     26  O23       67.9190    3.5000    4.4020 O.2   403  TDP403     -0.2221
@<TRIPOS>BOND
     1    26    23    2
     2    25    23    1
     3    24    23    1
     4    23    20    1
     5    12    11    1
     6    12    13    1
     7    17    16    1
     8    17    18    1
     9    20    19    1
    10    16    13    1
    11    11    10    1
    12    13    14    2
    13    21    19    2
    14    18    19    1
    15    10    14    1
    16    10     9    1
    17    14    15    1
    18    19    22    1
    19     9     7    1
    20     6     5    1
    21     7     5    1
    22     7     8    2
    23     5     4    2
    24     8     1    1
    25     4     2    2
    26     1     2    2
    27     2     3    1
