@<TRIPOS>MOLECULE
1dty_PLP_A_1.pdb
 15 15 0 0 0
SMALL
GASTEIGER

@<TRIPOS>ATOM
      1  N1        12.3340   -1.9380   19.7210 N.ar  450  PLP450     -0.2452
      2  C2        12.8620   -1.4600   18.5630 C.ar  450  PLP450      0.0978
      3  C2A       12.4860   -2.0420   17.2300 C.3   450  PLP450      0.0555
      4  C3        13.7650   -0.4120   18.6290 C.ar  450  PLP450      0.2049
      5  O3        14.3760    0.1410   17.4680 O.3   450  PLP450     -0.2857
      6  C4        14.0720    0.0690   19.9050 C.ar  450  PLP450      0.0182
      7  C4A       15.0370    1.2310   20.0000 C.3   450  PLP450      0.0342
      8  C5        13.4920   -0.4320   21.0240 C.ar  450  PLP450      0.0261
      9  C6        12.6030   -1.4910   20.9390 C.ar  450  PLP450      0.0965
     10  C5A       13.8480    0.0910   22.3810 C.3   450  PLP450      0.1815
     11  O4P       13.3710    1.2180   23.1210 O.3   450  PLP450     -0.2653
     12  P         14.1470    1.7750   24.3200 P.3   450  PLP450      0.5329
     13  O1P       13.9000    0.9140   25.5150 O.3   450  PLP450     -0.1145
     14  O2P       13.6940    3.2060   24.5460 O.3   450  PLP450     -0.1145
     15  O3P       15.6210    1.7780   23.9560 O.2   450  PLP450     -0.2224
@<TRIPOS>BOND
     1     3     2    1
     2     5     4    1
     3     2     4   ar
     4     2     1   ar
     5     4     6   ar
     6     1     9   ar
     7     6     7    1
     8     6     8   ar
     9     9     8   ar
    10     8    10    1
    11    10    11    1
    12    11    12    1
    13    15    12    2
    14    12    14    1
    15    12    13    1
