@<TRIPOS>MOLECULE
1duc_DUD_A_1.pdb
 24 25 0 0 0
SMALL
GASTEIGER

@<TRIPOS>ATOM
      1  N1        15.9710   34.8690   31.0160 N.am  201  DUD201     -0.1790
      2  C2        15.4690   33.8030   31.7340 C.1   201  DUD201      0.2844
      3  N3        15.8440   32.5330   31.3350 N.2   201  DUD201     -0.2452
      4  C4        16.6960   32.3350   30.2450 C.1   201  DUD201      0.2182
      5  C5        17.2120   33.4810   29.5410 C.2   201  DUD201      0.1242
      6  C6        16.8100   34.7400   29.9280 C.2   201  DUD201      0.0928
      7  O2        14.7450   33.9700   32.6980 O.2   201  DUD201     -0.1918
      8  O4        17.0000   31.1840   29.9700 O.2   201  DUD201     -0.2085
      9  C1'       15.5240   36.2240   31.5040 C.3   201  DUD201      0.2090
     10  C2'       16.7150   36.9520   32.1870 C.3   201  DUD201      0.0874
     11  C3'       17.2320   37.8890   31.0850 C.3   201  DUD201      0.1857
     12  C4'       15.9490   38.2650   30.3630 C.3   201  DUD201      0.1773
     13  O4'       15.2020   36.9910   30.3380 O.3   201  DUD201     -0.3339
     14  O3'       17.8460   39.0840   31.5640 O.3   201  DUD201     -0.2203
     15  C5'       16.1850   38.7420   28.9270 C.3   201  DUD201      0.1812
     16  O5'       14.9040   38.9420   28.3000 O.3   201  DUD201     -0.3111
     17  PA        14.8630   39.9210   27.0250 P.3   201  DUD201      0.2231
     18  O1A       15.8380   41.0270   27.1820 O.3   201  DUD201     -0.4370
     19  O2A       13.4670   40.3730   26.8470 O.2   201  DUD201     -0.5169
     20  O3A       15.2020   38.9790   25.7520 O.3   201  DUD201     -0.2261
     21  PB        16.4330   38.7460   24.7910 P.3   201  DUD201      0.5373
     22  O1B       17.3870   37.8730   25.5750 O.3   201  DUD201     -0.1143
     23  O2B       17.0740   40.0200   24.3930 O.3   201  DUD201     -0.1143
     24  O3B       15.7870   37.9490   23.6390 O.2   201  DUD201     -0.2221
@<TRIPOS>BOND
     1    24    21    2
     2    23    21    1
     3    21    22    1
     4    21    20    1
     5    20    17    1
     6    19    17    2
     7    17    18    1
     8    17    16    1
     9    16    15    1
    10    15    12    1
    11     5     6    2
    12     5     4    1
    13     6     1    1
    14     8     4    2
    15     4     3    2
    16    13    12    1
    17    13     9    1
    18    12    11    1
    19     1     9    1
    20     1     2   am
    21    11    14    1
    22    11    10    1
    23     3     2    2
    24     9    10    1
    25     2     7    2
