@<TRIPOS>MOLECULE
1dud_DUD_A_1.pdb
 24 25 0 0 0
SMALL
GASTEIGER

@<TRIPOS>ATOM
      1  N1        -5.3450   37.0560   33.0000 N.am  153  DUD153     -0.1790
      2  C2        -4.2650   36.3950   32.4540 C.1   153  DUD153      0.2844
      3  N3        -3.4110   37.1320   31.7020 N.2   153  DUD153     -0.2452
      4  C4        -3.5560   38.4800   31.4050 C.1   153  DUD153      0.2182
      5  C5        -4.6860   39.0980   32.0090 C.2   153  DUD153      0.1242
      6  C6        -5.5340   38.3970   32.7830 C.2   153  DUD153      0.0928
      7  O2        -4.0260   35.1870   32.6250 O.2   153  DUD153     -0.1918
      8  O4        -2.6970   39.0530   30.7450 O.2   153  DUD153     -0.2085
      9  C1'       -6.3230   36.2960   33.8620 C.3   153  DUD153      0.2090
     10  C2'       -6.4360   36.8710   35.2620 C.3   153  DUD153      0.0874
     11  C3'       -7.7800   37.5500   35.3380 C.3   153  DUD153      0.1857
     12  C4'       -8.6160   36.8480   34.2660 C.3   153  DUD153      0.1773
     13  O4'       -7.6520   36.3970   33.2700 O.3   153  DUD153     -0.3339
     14  O3'       -8.3520   37.3170   36.6090 O.3   153  DUD153     -0.2203
     15  C5'       -9.6260   37.8250   33.6480 C.3   153  DUD153      0.1812
     16  O5'       -8.9810   39.0360   33.1330 O.3   153  DUD153     -0.3111
     17  PA        -9.6540   40.5010   32.9690 P.3   153  DUD153      0.2231
     18  O1A      -10.7200   40.6150   33.9840 O.3   153  DUD153     -0.4370
     19  O2A       -8.6160   41.5830   32.8710 O.2   153  DUD153     -0.5169
     20  O3A      -10.4620   40.5340   31.5670 O.3   153  DUD153     -0.2261
     21  PB       -11.7520   39.7940   30.9000 P.3   153  DUD153      0.5373
     22  O1B      -11.4910   38.3390   30.7070 O.3   153  DUD153     -0.1143
     23  O2B      -12.0480   40.6250   29.7090 O.2   153  DUD153     -0.2221
     24  O3B      -13.0120   40.0010   31.9780 O.3   153  DUD153     -0.1143
@<TRIPOS>BOND
     1    23    21    2
     2    22    21    1
     3     8     4    2
     4    21    20    1
     5    21    24    1
     6     4     3    2
     7     4     5    1
     8    20    17    1
     9     3     2    2
    10     5     6    2
    11     2     7    2
    12     2     1   am
    13     6     1    1
    14    19    17    2
    15    17    16    1
    16    17    18    1
    17     1     9    1
    18    16    15    1
    19    13     9    1
    20    13    12    1
    21    15    12    1
    22     9    10    1
    23    12    11    1
    24    10    11    1
    25    11    14    1
