@<TRIPOS>MOLECULE
1dug_GSH_A_1.pdb
 20 19 0 0 0
SMALL
GASTEIGER

@<TRIPOS>ATOM
      1  N1        18.3900   51.5510   27.3270 N.3   1239  GSH1239    -0.1208
      2  CA1       16.9420   51.7140   27.4780 C.3   1239  GSH1239     0.1948
      3  C1        16.2190   52.0610   26.1460 C.2   1239  GSH1239     0.3819
      4  O11       15.0090   51.8150   26.0370 O.co2 1239  GSH1239    -0.2441
      5  O12       16.9430   52.6060   25.1990 O.co2 1239  GSH1239    -0.2441
      6  CB1       16.6420   52.7680   28.5710 C.3   1239  GSH1239     0.0402
      7  CG1       15.2290   52.5610   29.1770 C.3   1239  GSH1239     0.0889
      8  CD1       15.0320   53.5730   30.3250 C.2   1239  GSH1239     0.2418
      9  OE1       15.9050   53.7400   31.1880 O.2   1239  GSH1239    -0.2733
     10  N2        13.8550   54.2140   30.3130 N.am  1239  GSH1239    -0.1968
     11  CA2       13.5620   55.1990   31.3590 C.3   1239  GSH1239     0.1843
     12  C2        12.3550   54.7250   32.1950 C.2   1239  GSH1239     0.2627
     13  O2        11.5800   55.5140   32.7490 O.2   1239  GSH1239    -0.2714
     14  CB2       13.1960   56.5450   30.6960 C.3   1239  GSH1239     0.0997
     15  SG2       14.6440   57.3670   29.9650 S.3   1239  GSH1239    -0.0797
     16  N3        12.1980   53.3830   32.3100 N.am  1239  GSH1239    -0.1917
     17  CA3       11.0580   52.7730   33.0150 C.3   1239  GSH1239     0.2285
     18  C3        11.5580   52.0030   34.2310 C.2   1239  GSH1239     0.3865
     19  O31       10.6960   51.3910   34.8850 O.co2 1239  GSH1239    -0.2437
     20  O32       12.7840   52.0300   34.5050 O.co2 1239  GSH1239    -0.2437
@<TRIPOS>BOND
     1     5     3   ar
     2     4     3   ar
     3     3     2    1
     4     1     2    1
     5     2     6    1
     6     6     7    1
     7     7     8    1
     8    15    14    1
     9    10     8   am
    10    10    11    1
    11     8     9    2
    12    14    11    1
    13    11    12    1
    14    12    16   am
    15    12    13    2
    16    16    17    1
    17    17    18    1
    18    18    20   ar
    19    18    19   ar
