@<TRIPOS>MOLECULE
1duk_HEM_A_1.pdb
 43 50 0 0 0
SMALL
GASTEIGER

@<TRIPOS>ATOM
      1 FE         -5.2600   30.4480   -8.4910 Fe    155  HEM155      0.0000
      2  CHA       -5.8080   33.6590   -9.2400 C.2   155  HEM155      0.0000
      3  CHB       -4.4060   31.3230   -5.2440 C.2   155  HEM155      0.0000
      4  CHC       -4.6500   27.2030   -7.6240 C.2   155  HEM155      0.0000
      5  CHD       -6.0310   29.4650  -11.6060 C.2   155  HEM155      0.0000
      6  NA        -5.1210   32.0410   -7.5120 N.2   155  HEM155      0.0000
      7  C1A       -5.3770   33.3510   -7.9780 C.2   155  HEM155      0.0000
      8  C2A       -5.1610   34.3210   -6.8940 C.2   155  HEM155      0.0000
      9  C3A       -4.7530   33.6490   -5.8070 C.2   155  HEM155      0.0000
     10  C4A       -4.7570   32.2650   -6.1610 C.2   155  HEM155      0.0000
     11  CMA       -4.4080   34.1440   -4.3810 C.3   155  HEM155      0.0000
     12  CAA       -5.4160   35.8320   -7.0290 C.2   155  HEM155      0.0000
     13  CBA       -6.8650   36.3590   -7.2350 C.2   155  HEM155      0.0000
     14  CGA       -7.9720   35.3610   -7.4670 C.2   155  HEM155      0.0000
     15  O1A       -8.4760   35.3240   -8.6330 O.co2 155  HEM155      0.0000
     16  O2A       -8.3480   34.7040   -6.4490 O.co2 155  HEM155      0.0000
     17  NB        -4.6460   29.4680   -6.8470 N.ar  155  HEM155      0.0000
     18  C1B       -4.4090   29.9980   -5.5470 C.ar  155  HEM155      0.0000
     19  C2B       -4.1650   28.9980   -4.5590 C.ar  155  HEM155      0.0000
     20  C3B       -4.2180   27.8680   -5.2300 C.ar  155  HEM155      0.0000
     21  C4B       -4.4740   28.1430   -6.6510 C.ar  155  HEM155      0.0000
     22  CMB       -3.6890   29.2670   -3.1000 C.3   155  HEM155      0.0000
     23  CAB       -3.9020   26.4860   -4.6410 C.2   155  HEM155      0.0000
     24  CBB       -2.8170   26.3780   -3.8480 C.2   155  HEM155      0.0000
     25  NC        -5.4320   28.6870   -9.3730 N.2   155  HEM155      0.0000
     26  C1C       -4.9790   27.4680   -8.9010 C.2   155  HEM155      0.0000
     27  C2C       -4.9440   26.4840   -9.9420 C.2   155  HEM155      0.0000
     28  C3C       -5.3860   27.0790  -11.0420 C.2   155  HEM155      0.0000
     29  C4C       -5.6350   28.4740  -10.7130 C.2   155  HEM155      0.0000
     30  CMC       -4.5430   25.0180   -9.6530 C.3   155  HEM155      0.0000
     31  CAC       -5.5530   26.5520  -12.4840 C.2   155  HEM155      0.0000
     32  CBC       -5.0400   25.3730  -12.8090 C.2   155  HEM155      0.0000
     33  ND        -5.7690   31.3470   -9.9900 N.ar  155  HEM155      0.0000
     34  C1D       -5.9810   30.7910  -11.2800 C.ar  155  HEM155      0.0000
     35  C2D       -6.1980   31.8390  -12.2370 C.ar  155  HEM155      0.0000
     36  C3D       -6.2330   32.9770  -11.5450 C.ar  155  HEM155      0.0000
     37  C4D       -5.9330   32.7030  -10.1830 C.ar  155  HEM155      0.0000
     38  CMD       -6.4550   31.6010  -13.7500 C.3   155  HEM155      0.0000
     39  CAD       -6.2930   34.3990  -12.0690 C.3   155  HEM155      0.0000
     40  CBD       -4.9790   34.7970  -12.8030 C.3   155  HEM155      0.0000
     41  CGD       -4.7640   36.2440  -13.1400 C.2   155  HEM155      0.0000
     42  O1D       -4.8290   36.4760  -14.3670 O.co2 155  HEM155      0.0000
     43  O2D       -4.6010   37.0790  -12.1850 O.co2 155  HEM155      0.0000
@<TRIPOS>BOND
     1    42    41   ar
     2    38    35    1
     3    41    40    1
     4    41    43   ar
     5    32    31    2
     6    40    39    1
     7    31    28    1
     8    35    36   ar
     9    35    34   ar
    10    39    36    1
    11     5    34    2
    12     5    29    1
    13    36    37   ar
    14    34    33   ar
    15    28    29    1
    16    28    27    2
    17    29    25    2
    18    37    33   ar
    19    37     2    2
    20    33     1    1
    21    27    30    1
    22    27    26    1
    23    25    26    1
    24    25     1    1
    25     2     7    1
    26    26     4    2
    27    15    14   ar
    28     1     6    1
    29     1    17    1
    30     7     6    2
    31     7     8    1
    32     4    21    1
    33     6    10    1
    34    14    13    1
    35    14    16   ar
    36    13    12    2
    37    12     8    1
    38     8     9    2
    39    17    21   ar
    40    17    18   ar
    41    21    20   ar
    42    10     9    1
    43    10     3    2
    44     9    11    1
    45    18     3    1
    46    18    19   ar
    47    20    23    1
    48    20    19   ar
    49    23    24    2
    50    19    22    1
