@<TRIPOS>MOLECULE
1duo_HEM_A_1.pdb
 43 50 0 0 0
SMALL
GASTEIGER

@<TRIPOS>ATOM
      1 FE         -5.0750   30.4230   -8.4990 Fe    154  HEM154      0.0000
      2  CHA       -5.8730   33.5740   -9.3220 C.2   154  HEM154      0.0000
      3  CHB       -4.3660   31.3760   -5.2150 C.2   154  HEM154      0.0000
      4  CHC       -4.1950   27.2400   -7.6260 C.2   154  HEM154      0.0000
      5  CHD       -6.0010   29.3090  -11.5750 C.2   154  HEM154      0.0000
      6  NA        -5.0510   31.9860   -7.5520 N.2   154  HEM154      0.0000
      7  C1A       -5.4600   33.2290   -8.0480 C.2   154  HEM154      0.0000
      8  C2A       -5.2620   34.2160   -6.9890 C.2   154  HEM154      0.0000
      9  C3A       -4.8450   33.6070   -5.8900 C.2   154  HEM154      0.0000
     10  C4A       -4.7450   32.2440   -6.1790 C.2   154  HEM154      0.0000
     11  CMA       -4.6150   34.1320   -4.4410 C.3   154  HEM154      0.0000
     12  CAA       -5.6400   35.6910   -7.1350 C.3   154  HEM154      0.0000
     13  CBA       -7.1190   36.0980   -6.8580 C.3   154  HEM154      0.0000
     14  CGA       -8.1870   35.2810   -7.5340 C.2   154  HEM154      0.0000
     15  O1A       -8.2170   35.3380   -8.7980 O.co2 154  HEM154      0.0000
     16  O2A       -8.9190   34.5960   -6.7690 O.co2 154  HEM154      0.0000
     17  NB        -4.4310   29.5650   -6.8340 N.ar  154  HEM154      0.0000
     18  C1B       -4.2510   30.1030   -5.5510 C.ar  154  HEM154      0.0000
     19  C2B       -3.8590   29.0990   -4.5920 C.ar  154  HEM154      0.0000
     20  C3B       -3.8090   27.9630   -5.2480 C.ar  154  HEM154      0.0000
     21  C4B       -4.1710   28.2260   -6.6560 C.ar  154  HEM154      0.0000
     22  CMB       -3.6920   29.4410   -3.1140 C.3   154  HEM154      0.0000
     23  CAB       -3.4890   26.5490   -4.7330 C.2   154  HEM154      0.0000
     24  CBB       -2.6100   26.3490   -3.7510 C.2   154  HEM154      0.0000
     25  NC        -5.0730   28.6800   -9.4070 N.2   154  HEM154      0.0000
     26  C1C       -4.6760   27.4610   -8.8600 C.2   154  HEM154      0.0000
     27  C2C       -4.7820   26.4160   -9.8090 C.2   154  HEM154      0.0000
     28  C3C       -5.3110   26.9540  -10.9590 C.2   154  HEM154      0.0000
     29  C4C       -5.5240   28.3660  -10.6910 C.2   154  HEM154      0.0000
     30  CMC       -4.3710   24.9710   -9.4400 C.3   154  HEM154      0.0000
     31  CAC       -5.8070   26.2180  -12.2420 C.2   154  HEM154      0.0000
     32  CBC       -5.1390   25.9740  -13.3500 C.2   154  HEM154      0.0000
     33  ND        -5.8020   31.2640  -10.0380 N.ar  154  HEM154      0.0000
     34  C1D       -6.0060   30.6450  -11.2820 C.ar  154  HEM154      0.0000
     35  C2D       -6.3010   31.6520  -12.2680 C.ar  154  HEM154      0.0000
     36  C3D       -6.3550   32.8030  -11.6300 C.ar  154  HEM154      0.0000
     37  C4D       -5.9960   32.5980  -10.2650 C.ar  154  HEM154      0.0000
     38  CMD       -6.5790   31.3380  -13.7480 C.3   154  HEM154      0.0000
     39  CAD       -6.4600   34.2050  -12.1910 C.3   154  HEM154      0.0000
     40  CBD       -5.1900   35.0070  -11.8680 C.3   154  HEM154      0.0000
     41  CGD       -4.9450   36.1670  -12.7960 C.2   154  HEM154      0.0000
     42  O1D       -5.4380   36.0130  -13.9530 O.co2 154  HEM154      0.0000
     43  O2D       -4.4550   37.2370  -12.3010 O.co2 154  HEM154      0.0000
@<TRIPOS>BOND
     1    42    41   ar
     2    38    35    1
     3    32    31    2
     4    41    43   ar
     5    41    40    1
     6    35    36   ar
     7    35    34   ar
     8    31    28    1
     9    39    40    1
    10    39    36    1
    11    36    37   ar
    12     5    34    2
    13     5    29    1
    14    34    33   ar
    15    28    29    1
    16    28    27    2
    17    29    25    2
    18    37    33   ar
    19    37     2    2
    20    33     1    1
    21    27    30    1
    22    27    26    1
    23    25    26    1
    24    25     1    1
    25     2     7    1
    26    26     4    2
    27    15    14   ar
    28     1     6    1
    29     1    17    1
    30     7     6    2
    31     7     8    1
    32     4    21    1
    33     6    10    1
    34    14    13    1
    35    14    16   ar
    36    12     8    1
    37    12    13    1
    38     8     9    2
    39    17    21   ar
    40    17    18   ar
    41    21    20   ar
    42    10     9    1
    43    10     3    2
    44     9    11    1
    45    18     3    1
    46    18    19   ar
    47    20    23    1
    48    20    19   ar
    49    23    24    2
    50    19    22    1
