@<TRIPOS>MOLECULE
1duv_PSQ_G_1.pdb
 17 16 0 0 0
SMALL
GASTEIGER

@<TRIPOS>ATOM
      1  S         27.6570   16.4910   23.5070 S.3   401  PSQ401     -0.1210
      2  O         27.3000   17.2980   22.2810 O.3   401  PSQ401     -0.2915
      3  O1        28.7920   15.7870   23.4180 O.3   401  PSQ401     -0.2915
      4  O2        27.7220   17.4660   24.7420 O.3   401  PSQ401     -0.2915
      5  P         26.3190   14.3010   24.8570 P.3   401  PSQ401      0.3648
      6  N         24.6690   13.8230   24.8630 N.3   401  PSQ401     -0.0405
      7  O3        26.6320   14.7490   26.2730 O.2   401  PSQ401     -0.2620
      8  N1        27.4460   13.2060   24.4900 N.3   401  PSQ401     -0.1396
      9  C         31.1920    9.3800   24.6430 C.2   401  PSQ401      0.3819
     10  O4        31.7350    9.7760   23.5750 O.co2 401  PSQ401     -0.2441
     11  O5        31.8020    9.3970   25.7440 O.co2 401  PSQ401     -0.2441
     12  C1        29.7540    8.8020   24.5930 C.3   401  PSQ401      0.1944
     13  C2        28.6760    9.7060   25.2530 C.3   401  PSQ401      0.0321
     14  C3        28.5300   11.1030   24.6040 C.3   401  PSQ401      0.0214
     15  C4        27.4790   11.9640   25.2980 C.3   401  PSQ401      0.0987
     16  N2        26.3940   15.5350   23.7070 N.3   401  PSQ401     -0.0368
     17  N3        29.7720    7.4710   25.2470 N.3   401  PSQ401     -0.1208
@<TRIPOS>BOND
     1     2     1    1
     2     3     1    1
     3     1    16    1
     4     1     4    1
     5    10     9   ar
     6    16     5    1
     7     8     5    1
     8     8    15    1
     9    12     9    1
    10    12    17    1
    11    12    13    1
    12    14    13    1
    13    14    15    1
    14     9    11   ar
    15     5     6    1
    16     5     7    2
