@<TRIPOS>MOLECULE
1duw_HEM_A_1.pdb
 43 50 0 0 0
SMALL
GASTEIGER

@<TRIPOS>ATOM
      1  CHA       19.7180   -9.3710   16.1100 C.2   293  HEM293      0.0000
      2  CHB       21.2970   -4.8400   17.0170 C.2   293  HEM293      0.0000
      3  CHC       25.5710   -6.6090   18.5080 C.2   293  HEM293      0.0000
      4  CHD       24.0150  -11.1410   17.6000 C.2   293  HEM293      0.0000
      5  C1A       19.8060   -8.0020   16.2400 C.ar  293  HEM293      0.0000
      6  C2A       18.7460   -7.0840   15.9050 C.ar  293  HEM293      0.0000
      7  C3A       19.2000   -5.8120   16.1590 C.ar  293  HEM293      0.0000
      8  C4A       20.5440   -5.9240   16.6530 C.ar  293  HEM293      0.0000
      9  CMA       18.5480   -4.4870   15.8530 C.3   293  HEM293      0.0000
     10  CAA       17.2950   -7.5230   15.6880 C.3   293  HEM293      0.0000
     11  CBA       16.9330   -7.5820   14.2170 C.3   293  HEM293      0.0000
     12  CGA       15.4710   -7.8680   13.9760 C.2   293  HEM293      0.0000
     13  O1A       14.7830   -8.4630   14.8320 O.co2 293  HEM293      0.0000
     14  O2A       15.0930   -7.7330   12.7870 O.co2 293  HEM293      0.0000
     15  C1B       22.5760   -4.9590   17.4940 C.2   293  HEM293      0.0000
     16  C2B       23.3880   -3.8300   17.8750 C.2   293  HEM293      0.0000
     17  C3B       24.6000   -4.3140   18.2970 C.2   293  HEM293      0.0000
     18  C4B       24.5360   -5.7600   18.1780 C.2   293  HEM293      0.0000
     19  CMB       22.9970   -2.3930   17.6280 C.3   293  HEM293      0.0000
     20  CAB       25.7510   -3.5600   18.9210 C.3   293  HEM293      0.0000
     21  CBB       25.3820   -2.5580   20.0090 C.3   293  HEM293      0.0000
     22  C1C       25.4650   -7.9690   18.3740 C.ar  293  HEM293      0.0000
     23  C2C       26.5380   -8.8870   18.7070 C.ar  293  HEM293      0.0000
     24  C3C       26.1070  -10.1570   18.4440 C.ar  293  HEM293      0.0000
     25  C4C       24.7870  -10.0340   17.8630 C.ar  293  HEM293      0.0000
     26  CMC       27.8310   -8.4610   19.3340 C.3   293  HEM293      0.0000
     27  CAC       26.9370  -11.4110   18.2850 C.3   293  HEM293      0.0000
     28  CBC       27.5170  -11.9540   19.5810 C.3   293  HEM293      0.0000
     29  C1D       22.7270  -10.9870   17.1550 C.2   293  HEM293      0.0000
     30  C2D       21.8550  -12.1190   16.9460 C.2   293  HEM293      0.0000
     31  C3D       20.6500  -11.6230   16.5360 C.2   293  HEM293      0.0000
     32  C4D       20.6980  -10.1810   16.6510 C.2   293  HEM293      0.0000
     33  CMD       22.3340  -13.5480   17.0340 C.3   293  HEM293      0.0000
     34  CAD       19.3200  -12.3670   16.4760 C.3   293  HEM293      0.0000
     35  CBD       18.7780  -12.7070   17.8630 C.3   293  HEM293      0.0000
     36  CGD       17.2820  -12.9760   17.8290 C.2   293  HEM293      0.0000
     37  O1D       16.7660  -13.0890   16.6930 O.co2 293  HEM293      0.0000
     38  O2D       16.6120  -12.5410   18.7990 O.co2 293  HEM293      0.0000
     39  NA        20.8630   -7.2580   16.6860 N.ar  293  HEM293      0.0000
     40  NB        23.3040   -6.0990   17.6860 N.2   293  HEM293      0.0000
     41  NC        24.4160   -8.7230   17.9210 N.ar  293  HEM293      0.0000
     42  ND        21.9990   -9.8530   16.9350 N.2   293  HEM293      0.0000
     43 FE         22.6260   -7.9680   17.3530 Fe    293  HEM293      0.0000
@<TRIPOS>BOND
     1    14    12   ar
     2    12    11    1
     3    12    13   ar
     4    11    10    1
     5    10     6    1
     6     9     7    1
     7     6     7   ar
     8     6     5   ar
     9     1     5    2
    10     1    32    1
    11     7     8   ar
    12     5    39   ar
    13    34    31    1
    14    34    35    1
    15    31    32    1
    16    31    30    2
    17    32    42    2
    18     8    39   ar
    19     8     2    2
    20    39    43    1
    21    37    36   ar
    22    42    29    1
    23    42    43    1
    24    30    33    1
    25    30    29    1
    26     2    15    1
    27    29     4    2
    28    43    40    1
    29    43    41    1
    30    15    40    2
    31    15    16    1
    32     4    25    1
    33    19    16    1
    34    40    18    1
    35    36    35    1
    36    36    38   ar
    37    25    41   ar
    38    25    24   ar
    39    16    17    2
    40    41    22   ar
    41    18    17    1
    42    18     3    2
    43    27    24    1
    44    27    28    1
    45    17    20    1
    46    22     3    1
    47    22    23   ar
    48    24    23   ar
    49    23    26    1
    50    20    21    1
