@<TRIPOS>MOLECULE
1dv2_ATP_A_1.pdb
 31 33 0 0 0
SMALL
GASTEIGER

@<TRIPOS>ATOM
      1  PG        28.5610   36.1550   42.4000 P.3   1000  ATP1000     0.5373
      2  O1G       27.7010   35.8010   43.5920 O.3   1000  ATP1000    -0.1143
      3  O2G       28.7580   37.6370   42.3980 O.3   1000  ATP1000    -0.1143
      4  O3G       27.8920   35.7810   41.1130 O.2   1000  ATP1000    -0.2221
      5  PB        30.4800   34.2130   43.2740 P.3   1000  ATP1000     0.2277
      6  O1B       31.0170   34.2100   44.6590 O.3   1000  ATP1000    -0.4368
      7  O2B       29.6190   33.0080   43.1140 O.2   1000  ATP1000    -0.5168
      8  O3B       29.9410   35.4870   42.5350 O.3   1000  ATP1000    -0.2258
      9  PA        31.9150   33.2550   41.0730 P.3   1000  ATP1000     0.2189
     10  O1A       32.1270   31.8060   41.3270 O.3   1000  ATP1000    -0.4371
     11  O2A       30.8150   33.4790   40.1010 O.2   1000  ATP1000    -0.5170
     12  O3A       31.7810   34.1160   42.3210 O.3   1000  ATP1000    -0.2700
     13  O5'       33.2740   33.9100   40.6020 O.3   1000  ATP1000    -0.3112
     14  C5'       33.4800   35.2990   40.8060 C.3   1000  ATP1000     0.1813
     15  C4'       34.4800   35.7340   39.7560 C.3   1000  ATP1000     0.1821
     16  O4'       35.6560   34.9530   39.9240 O.3   1000  ATP1000    -0.3135
     17  C3'       34.1470   35.4340   38.3260 C.3   1000  ATP1000     0.2184
     18  O3'       33.2830   36.3940   37.7240 O.3   1000  ATP1000    -0.2174
     19  C2'       35.2900   35.3430   37.7220 C.3   1000  ATP1000     0.2570
     20  O2'       35.7090   36.6800   37.4600 O.3   1000  ATP1000    -0.2130
     21  C1'       36.2730   34.7300   38.6600 C.3   1000  ATP1000     0.3186
     22  N9        36.4790   33.2890   38.4650 N.pl3 1000  ATP1000    -0.1439
     23  C8        35.8900   32.2780   39.1450 C.3   1000  ATP1000     0.3377
     24  N7        36.4210   31.0600   38.9050 N.2   1000  ATP1000    -0.2095
     25  C5        37.4550   31.3290   38.0260 C.2   1000  ATP1000     0.2526
     26  C6        38.3920   30.4680   37.4090 C.2   1000  ATP1000     0.4393
     27  N6        38.4120   29.1400   37.6190 N.pl3 1000  ATP1000     0.2180
     28  N1        39.2910   31.0870   36.6190 N.2   1000  ATP1000     0.0021
     29  C2        39.2160   32.4380   36.4070 C.3   1000  ATP1000     0.5254
     30  N3        38.3750   33.2940   36.8870 N.2   1000  ATP1000    -0.0055
     31  C4        37.5120   32.6860   37.7410 C.2   1000  ATP1000     0.3518
@<TRIPOS>BOND
     1    29    28    1
     2    29    30    1
     3    28    26    2
     4    30    31    2
     5    26    27    1
     6    26    25    1
     7    20    19    1
     8    19    17    1
     9    19    21    1
    10    18    17    1
    11    31    25    1
    12    31    22    1
    13    25    24    2
    14    17    15    1
    15    22    21    1
    16    22    23    1
    17    21    16    1
    18    24    23    1
    19    15    16    1
    20    15    14    1
    21    11     9    2
    22    13    14    1
    23    13     9    1
    24     9    10    1
    25     9    12    1
    26     4     1    2
    27    12     5    1
    28     3     1    1
    29     1     8    1
    30     1     2    1
    31     8     5    1
    32     7     5    2
    33     5     6    1
