@<TRIPOS>MOLECULE
1dv3_BPH_M_1.pdb
 50 55 0 0 0
SMALL
GASTEIGER

@<TRIPOS>ATOM
      1  CHA       70.7050  110.7690   49.2240 C.2   1005  BPH1005     0.0827
      2  CHB       68.7150  106.4210   49.6940 C.2   1005  BPH1005     0.1301
      3  CHC       64.9020  107.7450   47.0980 C.2   1005  BPH1005     0.1305
      4  CHD       67.1800  111.9290   46.0770 C.2   1005  BPH1005     0.0981
      5  NA        69.4940  108.7270   49.3220 N.2   1005  BPH1005    -0.3677
      6  C1A       70.5640  109.5000   49.7300 C.2   1005  BPH1005     0.1431
      7  C2A       71.5630  108.7450   50.5710 C.2   1005  BPH1005     0.0140
      8  C3A       70.9750  107.3500   50.5600 C.2   1005  BPH1005     0.0336
      9  C4A       69.6580  107.4510   49.8010 C.1   1005  BPH1005     0.0084
     10  CMA       71.8760  106.4300   49.7630 C.3   1005  BPH1005     0.0412
     11  CAA       71.5950  109.2660   52.0210 C.3   1005  BPH1005     0.0410
     12  CBA       72.4390  108.3780   52.9540 C.3   1005  BPH1005     0.1143
     13  CGA       72.1520  108.5580   54.4430 C.2   1005  BPH1005     0.3176
     14  O1A       71.5240  109.5280   54.8600 O.2   1005  BPH1005    -0.2501
     15  O2A       72.5850  107.6680   55.2060 O.3   1005  BPH1005    -0.4435
     16  NB        66.9160  107.4370   48.3570 N.2   1005  BPH1005    -0.3323
     17  C1B       67.4530  106.3850   49.0670 C.1   1005  BPH1005     0.0187
     18  C2B       66.5740  105.2800   49.1050 C.2   1005  BPH1005     0.0476
     19  C3B       65.4310  105.6780   48.3690 C.2   1005  BPH1005     0.0972
     20  C4B       65.6960  106.9860   47.9290 C.1   1005  BPH1005     0.0251
     21  CMB       66.9040  103.9350   49.7840 C.3   1005  BPH1005     0.0422
     22  CAB       64.2670  104.9000   48.0910 C.2   1005  BPH1005     0.1827
     23  OBB       63.7180  104.9230   47.0020 O.2   1005  BPH1005    -0.2906
     24  CBB       63.8270  103.8390   49.0480 C.3   1005  BPH1005     0.0780
     25  NC        66.2360  109.7800   46.7560 N.2   1005  BPH1005    -0.3673
     26  C1C       65.1060  109.0170   46.5340 C.1   1005  BPH1005     0.0085
     27  C2C       64.1830  109.7110   45.5190 C.2   1005  BPH1005     0.0336
     28  C3C       64.9370  110.9900   45.1270 C.2   1005  BPH1005     0.0138
     29  C4C       66.1910  110.9370   45.9880 C.2   1005  BPH1005     0.1469
     30  CMC       63.9230  108.7170   44.3840 C.3   1005  BPH1005     0.0412
     31  CAC       64.1340  112.2240   45.4950 C.3   1005  BPH1005     0.0293
     32  CBC       63.7000  113.0230   44.3130 C.3   1005  BPH1005     0.0051
     33  ND        68.7100  110.9190   47.7330 N.2   1005  BPH1005    -0.3337
     34  C1D       68.3470  111.9340   46.8880 C.1   1005  BPH1005     0.0116
     35  C2D       69.2670  112.9660   46.9530 C.2   1005  BPH1005     0.0470
     36  C3D       70.2970  112.6630   47.8530 C.2   1005  BPH1005     0.0972
     37  C4D       69.8720  111.3930   48.2960 C.1   1005  BPH1005     0.0143
     38  CMD       69.2120  114.2790   46.2120 C.3   1005  BPH1005     0.0422
     39  CAD       71.5050  112.8970   48.5590 C.2   1005  BPH1005     0.1973
     40  OBD       72.2350  113.9010   48.4460 O.2   1005  BPH1005    -0.2897
     41  CBD       71.8410  111.7410   49.4660 C.3   1005  BPH1005     0.1947
     42  CGD       73.1590  111.1380   48.9920 C.2   1005  BPH1005     0.3290
     43  O1D       74.1950  111.3380   49.6220 O.2   1005  BPH1005    -0.2492
     44  O2D       73.1340  110.4480   47.9420 O.3   1005  BPH1005    -0.4439
     45  CED       74.3110  109.6680   47.5920 C.3   1005  BPH1005     0.2556
     46  C1        72.7790  107.7120   56.6560 C.3   1005  BPH1005     0.2342
     47  C2        73.1430  106.3040   56.9500 C.2   1005  BPH1005     0.0123
     48  C3        74.4460  105.8170   57.1410 C.2   1005  BPH1005    -0.0443
     49  C4        75.5940  106.8140   57.1880 C.3   1005  BPH1005     0.0261
     50  C5        74.7480  104.2980   57.2900 C.3   1005  BPH1005     0.0261
@<TRIPOS>BOND
     1    32    31    1
     2    30    27    1
     3    28    31    1
     4    28    27    2
     5    28    29    1
     6    27    26    1
     7    29     4    1
     8    29    25    2
     9     4    34    2
    10    38    35    1
    11    26    25    2
    12    26     3    2
    13    34    35    1
    14    34    33    2
    15    35    36    2
    16    23    22    2
    17     3    20    1
    18    45    44    1
    19    33    37    2
    20    36    37    1
    21    36    39    1
    22    20    16    2
    23    20    19    2
    24    44    42    1
    25    22    19    1
    26    22    24    1
    27    37     1    2
    28    16    17    2
    29    19    18    1
    30    40    39    2
    31    39    41    1
    32    42    41    1
    33    42    43    2
    34    17    18    2
    35    17     2    1
    36    18    21    1
    37     1    41    1
    38     1     6    1
    39     5     6    2
    40     5     9    2
    41     2     9    2
    42     6     7    1
    43    10     8    1
    44     9     8    1
    45     8     7    2
    46     7    11    1
    47    11    12    1
    48    12    13    1
    49    13    14    2
    50    13    15    1
    51    15    46    1
    52    46    47    1
    53    47    48    2
    54    48    49    1
    55    48    50    1
