@<TRIPOS>MOLECULE
1dv3_U10_L_1.pdb
 26 26 0 0 0
SMALL
GASTEIGER

@<TRIPOS>ATOM
      1  C1        77.0080  112.5200   39.4530 C.2   1009  U101009     0.0198
      2  C2        77.2290  113.3840   38.3060 C.2   1009  U101009     0.2282
      3  C3        78.5110  113.4010   37.6470 C.2   1009  U101009     0.2140
      4  C4        79.5660  112.5770   38.1310 C.2   1009  U101009     0.2140
      5  C5        79.3520  111.7040   39.2520 C.2   1009  U101009     0.2285
      6  C6        78.0860  111.6680   39.9280 C.2   1009  U101009     0.0235
      7  C1M       75.6710  112.5210   40.1820 C.3   1009  U101009     0.0343
      8  C3M       78.8160  115.6000   36.5970 C.3   1009  U101009     0.2528
      9  C4M       81.6200  113.8470   38.1260 C.3   1009  U101009     0.2528
     10  C7        77.9800  110.7960   41.1900 C.3   1009  U101009     0.0548
     11  C8        77.1030  109.6510   40.9500 C.2   1009  U101009    -0.0298
     12  C9        77.3300  108.4000   41.5150 C.2   1009  U101009    -0.0475
     13  C10       78.5310  108.1360   42.4180 C.3   1009  U101009     0.0260
     14  C11       76.3180  107.2990   41.2860 C.3   1009  U101009     0.0264
     15  C12       75.9420  106.5680   42.5640 C.3   1009  U101009     0.0297
     16  C13       75.3190  105.2890   42.1920 C.2   1009  U101009    -0.0343
     17  C14       73.9450  105.1210   42.0330 C.2   1009  U101009    -0.0482
     18  C15       73.0420  106.3370   42.2370 C.3   1009  U101009     0.0260
     19  C16       73.3170  103.7970   41.5950 C.3   1009  U101009     0.0217
     20  C17       73.8310  102.6000   42.3770 C.3   1009  U101009     0.0043
     21  C18       73.3200  101.3920   41.7360 C.3   1009  U101009     0.0003
     22  C19       73.7280  100.9100   40.4940 C.3   1009  U101009     0.0000
     23  O2        76.3470  114.1500   37.9020 O.2   1009  U101009    -0.2836
     24  O3        78.7620  114.1740   36.5160 O.2   1009  U101009    -0.4652
     25  O4        80.8230  112.7760   37.5970 O.2   1009  U101009    -0.4652
     26  O5        80.2450  110.9650   39.6700 O.2   1009  U101009    -0.2835
@<TRIPOS>BOND
     1    24     8    1
     2    24     3    1
     3    25     9    1
     4    25     4    1
     5     3     4    2
     6     3     2    1
     7    23     2    2
     8     4     5    1
     9     2     1    1
    10     5    26    2
    11     5     6    1
    12     1     6    2
    13     1     7    1
    14     6    10    1
    15    22    21    1
    16    11    10    1
    17    11    12    2
    18    14    12    1
    19    14    15    1
    20    12    13    1
    21    19    17    1
    22    19    20    1
    23    21    20    1
    24    17    16    2
    25    17    18    1
    26    16    15    1
