@<TRIPOS>MOLECULE
1dv6_U10_L_1.pdb
 44 44 0 0 0
SMALL
GASTEIGER

@<TRIPOS>ATOM
      1  C1        77.0240  107.9480   42.1450 C.2   1009  U101009     0.0198
      2  C2        78.1300  108.8340   41.8810 C.2   1009  U101009     0.2282
      3  C3        77.9330  110.1630   41.3540 C.2   1009  U101009     0.2140
      4  C4        76.5960  110.6190   41.0630 C.2   1009  U101009     0.2140
      5  C5        75.4860  109.7330   41.3290 C.2   1009  U101009     0.2285
      6  C6        75.6750  108.3920   41.8610 C.2   1009  U101009     0.0235
      7  C1M       77.2770  106.5560   42.7390 C.3   1009  U101009     0.0343
      8  C3M       79.3720  111.6110   39.9610 C.3   1009  U101009     0.2528
      9  C4M       76.2660  113.0990   41.0990 C.3   1009  U101009     0.2528
     10  C7        74.4590  107.4540   41.9990 C.3   1009  U101009     0.0548
     11  C8        74.2300  107.1090   43.3800 C.2   1009  U101009    -0.0298
     12  C9        73.9420  105.8230   43.8450 C.2   1009  U101009    -0.0475
     13  C10       73.8060  104.6040   42.9110 C.3   1009  U101009     0.0260
     14  C11       73.7750  105.5960   45.3460 C.3   1009  U101009     0.0264
     15  C12       74.6920  106.4830   46.1970 C.3   1009  U101009     0.0297
     16  C13       75.9350  105.7670   46.4890 C.2   1009  U101009    -0.0342
     17  C14       76.5150  105.6480   47.7430 C.2   1009  U101009    -0.0478
     18  C15       75.8280  106.2640   48.9610 C.3   1009  U101009     0.0260
     19  C16       77.7550  104.7940   47.9740 C.3   1009  U101009     0.0263
     20  C17       78.7240  104.7960   46.7920 C.3   1009  U101009     0.0297
     21  C18       79.9800  104.2710   47.3320 C.2   1009  U101009    -0.0342
     22  C19       80.9420  103.5420   46.6370 C.2   1009  U101009    -0.0478
     23  C20       80.7420  103.2060   45.1630 C.3   1009  U101009     0.0260
     24  C21       82.1970  103.0130   47.3200 C.3   1009  U101009     0.0263
     25  C22       82.4610  103.6570   48.6820 C.3   1009  U101009     0.0297
     26  C23       83.8850  103.9520   48.8190 C.2   1009  U101009    -0.0342
     27  C24       84.5130  104.3390   49.9910 C.2   1009  U101009    -0.0478
     28  C25       83.6940  104.5000   51.2690 C.3   1009  U101009     0.0260
     29  C26       86.0020  104.6550   49.9210 C.3   1009  U101009     0.0263
     30  C27       86.6940  104.6420   51.2830 C.3   1009  U101009     0.0297
     31  C28       88.1290  104.2720   51.1410 C.2   1009  U101009    -0.0342
     32  C29       89.1370  104.4200   52.1150 C.2   1009  U101009    -0.0478
     33  C30       88.8250  105.0390   53.4850 C.3   1009  U101009     0.0260
     34  C31       90.5690  104.0080   51.7890 C.3   1009  U101009     0.0263
     35  C32       91.3300  103.4550   52.9940 C.3   1009  U101009     0.0297
     36  C33       92.1570  104.4960   53.6160 C.2   1009  U101009    -0.0343
     37  C34       92.7990  104.3510   54.8430 C.2   1009  U101009    -0.0482
     38  C35       92.6770  103.0460   55.6380 C.3   1009  U101009     0.0260
     39  C36       93.5740  105.5110   55.4490 C.3   1009  U101009     0.0217
     40  C37       92.9380  106.0320   56.7330 C.3   1009  U101009     0.0047
     41  O2        79.2650  108.4150   42.0590 O.2   1009  U101009    -0.2836
     42  O3        79.0330  111.0140   41.2030 O.2   1009  U101009    -0.4652
     43  O4        76.3560  111.8560   40.4280 O.2   1009  U101009    -0.4652
     44  O5        74.3460  110.1540   41.1090 O.2   1009  U101009    -0.2835
@<TRIPOS>BOND
     1     8    42    1
     2    43     4    1
     3    43     9    1
     4     4     5    1
     5     4     3    2
     6    44     5    2
     7    42     3    1
     8     5     6    1
     9     3     2    1
    10     6    10    1
    11     6     1    2
    12     2    41    2
    13     2     1    1
    14    10    11    1
    15     1     7    1
    16    13    12    1
    17    11    12    2
    18    12    14    1
    19    23    22    1
    20    14    15    1
    21    15    16    1
    22    16    17    2
    23    22    24    1
    24    22    21    2
    25    20    21    1
    26    20    19    1
    27    24    25    1
    28    17    19    1
    29    17    18    1
    30    25    26    1
    31    26    27    2
    32    29    27    1
    33    29    30    1
    34    27    28    1
    35    31    30    1
    36    31    32    2
    37    34    32    1
    38    34    35    1
    39    32    33    1
    40    35    36    1
    41    36    37    2
    42    37    39    1
    43    37    38    1
    44    39    40    1
