@<TRIPOS>MOLECULE
1dva_GLC_M_1.pdb
 11 11 0 0 0
SMALL
GASTEIGER

@<TRIPOS>ATOM
      1  C1         5.8750   14.8940   -9.2730 C.3   503  GLC503      0.1777
      2  C2         4.6960   15.5680   -8.5190 C.3   503  GLC503      0.2141
      3  C3         4.6820   15.1230   -7.0530 C.3   503  GLC503      0.2173
      4  C4         4.5880   13.5930   -7.0020 C.3   503  GLC503      0.2142
      5  C5         5.7650   12.9750   -7.8110 C.3   503  GLC503      0.1810
      6  C6         5.7720   11.4470   -7.8720 C.3   503  GLC503      0.2141
      7  O2         4.8000   16.9850   -8.5820 O.3   503  GLC503     -0.2176
      8  O3         3.5960   15.7310   -6.3550 O.3   503  GLC503     -0.2175
      9  O4         4.6360   13.1680   -5.6460 O.3   503  GLC503     -0.2176
     10  O5         5.7550   13.4620   -9.1840 O.3   503  GLC503     -0.3481
     11  O6         4.5400   10.9340   -8.3620 O.3   503  GLC503     -0.2176
@<TRIPOS>BOND
     1     1    10    1
     2     1     2    1
     3    10     5    1
     4     7     2    1
     5     2     3    1
     6    11     6    1
     7     6     5    1
     8     5     4    1
     9     3     4    1
    10     3     8    1
    11     4     9    1
