@<TRIPOS>MOLECULE
1dva_0Z6_H_1.pdb
 34 35 0 0 0
SMALL
GASTEIGER

@<TRIPOS>ATOM
      1  N         41.7090   -8.9970   20.6210 N.3     1  0Z61       -0.1227
      2  CA        42.2080   -7.6380   20.7780 C.3     1  0Z61        0.1736
      3  C         41.0330   -6.6980   20.8550 C.2     1  0Z61        0.2595
      4  O         39.9160   -7.1240   21.1690 O.2     1  0Z61       -0.2718
      5  CB        43.0410   -7.5020   22.0490 C.3     1  0Z61        0.0547
      6  CG        42.2870   -7.8240   23.3060 C.ar    1  0Z61       -0.0202
      7  CD1       42.4900   -9.0330   23.9530 C.ar    1  0Z61       -0.0042
      8  CD2       41.3740   -6.9250   23.8440 C.ar    1  0Z61       -0.0042
      9  CE1       41.7980   -9.3470   25.1150 C.ar    1  0Z61       -0.0003
     10  CE2       40.6840   -7.2320   25.0030 C.ar    1  0Z61       -0.0003
     11  CZ        40.8980   -8.4510   25.6390 C.ar    1  0Z61       -0.0000
     12  N1        41.3110   -5.4190   20.6010 N.am    1  0Z61       -0.1962
     13  CA1       40.3020   -4.3460   20.5910 C.3     1  0Z61        0.1771
     14  C1        39.8750   -4.2040   19.1420 C.2     1  0Z61        0.2616
     15  O1        40.7080   -4.2740   18.2440 O.2     1  0Z61       -0.2715
     16  CB1       40.9070   -3.0130   21.0500 C.3     1  0Z61        0.0574
     17  CG1       41.1450   -2.9290   22.5220 C.ar    1  0Z61       -0.0200
     18 CD11       40.0870   -2.6910   23.3830 C.ar    1  0Z61       -0.0042
     19 CD21       42.4200   -3.1070   23.0450 C.ar    1  0Z61       -0.0042
     20 CE11       40.2900   -2.6360   24.7350 C.ar    1  0Z61       -0.0003
     21 CE21       42.6340   -3.0540   24.4030 C.ar    1  0Z61       -0.0003
     22  CZ1       41.5660   -2.8190   25.2520 C.ar    1  0Z61       -0.0000
     23  N2        38.5970   -3.9810   18.8940 N.am    1  0Z61       -0.2031
     24  CA2       38.1680   -3.8930   17.5140 C.3     1  0Z61        0.1257
     25  C2        37.8470   -2.4640   17.0140 C.3     1  0Z61        0.1718
     26  O2        38.0300   -2.4270   15.8050 O.3     1  0Z61       -0.2213
     27  CB2       36.9970   -4.8410   17.3110 C.3     1  0Z61        0.0280
     28  CG2       37.4520   -6.2800   17.1700 C.3     1  0Z61        0.0488
     29  CD        36.4550   -7.2460   17.7650 C.3     1  0Z61        0.2205
     30  NE        37.1150   -8.3940   18.3790 N.pl3   1  0Z61       -0.0865
     31  CZ2       36.6330   -9.6310   18.3410 C.cat   1  0Z61        0.5346
     32  NH1       35.4780   -9.8730   17.7120 N.pl3   1  0Z61        0.1354
     33  NH2       37.3180  -10.6230   18.9170 N.pl3   1  0Z61        0.1354
     34  C3        38.6370   -1.4310   17.8020 C.3     1  0Z61        0.0373
@<TRIPOS>BOND
     1    26    25    1
     2    25    24    1
     3    25    34    1
     4    28    27    1
     5    28    29    1
     6    27    24    1
     7    24    23    1
     8    32    31    1
     9    29    30    1
    10    15    14    2
    11    31    30    2
    12    31    33    1
    13    23    14   am
    14    14    13    1
    15    13    12    1
    16    13    16    1
    17    12     3   am
    18     1     2    1
    19     2     3    1
    20     2     5    1
    21     3     4    2
    22    16    17    1
    23     5     6    1
    24    17    19   ar
    25    17    18   ar
    26    19    21   ar
    27     6     8   ar
    28     6     7   ar
    29    18    20   ar
    30     8    10   ar
    31     7     9   ar
    32    21    22   ar
    33    20    22   ar
    34    10    11   ar
    35     9    11   ar
