@<TRIPOS>MOLECULE
1dva_FUC_L_1.pdb
 10 10 0 0 0
SMALL
GASTEIGER

@<TRIPOS>ATOM
      1  C1       -19.5810    6.3310   42.8180 C.3   504  FUC504      0.1776
      2  C2       -20.8410    5.7500   43.2900 C.3   504  FUC504      0.2141
      3  C3       -20.8470    4.2170   43.1550 C.3   504  FUC504      0.2172
      4  C4       -19.4600    3.6250   43.1350 C.3   504  FUC504      0.2116
      5  C5       -18.6320    4.2410   41.9710 C.3   504  FUC504      0.1483
      6  C6       -17.1200    4.2470   42.1310 C.3   504  FUC504      0.0349
      7  O2       -21.8360    6.3130   42.4270 O.3   504  FUC504     -0.2176
      8  O3       -21.6290    3.6370   44.1930 O.3   504  FUC504     -0.2175
      9  O4       -18.8430    3.9080   44.3930 O.3   504  FUC504     -0.2177
     10  O5       -19.0180    5.6440   41.7030 O.3   504  FUC504     -0.3508
@<TRIPOS>BOND
     1    10     5    1
     2    10     1    1
     3     5     6    1
     4     5     4    1
     5     7     2    1
     6     1     2    1
     7     4     3    1
     8     4     9    1
     9     3     2    1
    10     3     8    1
