@<TRIPOS>MOLECULE
1dva_BGC_L_1.pdb
 11 11 0 0 0
SMALL
GASTEIGER

@<TRIPOS>ATOM
      1  C2       -23.7140   12.2350   27.8880 C.3   501  BGC501      0.2141
      2  C3       -22.7570   13.1080   27.0570 C.3   501  BGC501      0.2173
      3  C4       -21.6740   12.2970   26.3210 C.3   501  BGC501      0.2142
      4  C5       -22.3900   11.1540   25.5790 C.3   501  BGC501      0.1810
      5  C6       -21.5070   10.2970   24.6630 C.3   501  BGC501      0.2141
      6  C1       -24.1470   10.9270   27.2160 C.3   501  BGC501      0.1777
      7  O2       -24.8700   13.0120   28.1560 O.3   501  BGC501     -0.2176
      8  O3       -22.1440   14.0250   27.9430 O.3   501  BGC501     -0.2175
      9  O4       -20.9710   13.1290   25.3500 O.3   501  BGC501     -0.2176
     10  O5       -23.0480   10.2800   26.5320 O.3   501  BGC501     -0.3481
     11  O6       -20.5870    9.4770   25.3860 O.3   501  BGC501     -0.2176
@<TRIPOS>BOND
     1     5    11    1
     2     5     4    1
     3     9     3    1
     4     4     3    1
     5     4    10    1
     6     3     2    1
     7    10     6    1
     8     2     1    1
     9     2     8    1
    10     6     1    1
    11     1     7    1
