@<TRIPOS>MOLECULE
1dva_GAL_L_1.pdb
 11 11 0 0 0
SMALL
GASTEIGER

@<TRIPOS>ATOM
      1  C1       -19.9470   14.0450   25.6560 C.3   502  GAL502      0.1777
      2  C2       -20.4520   15.2850   26.3920 C.3   502  GAL502      0.2141
      3  C3       -19.3310   16.3160   26.3250 C.3   502  GAL502      0.2173
      4  C4       -18.0260   15.7400   26.9380 C.3   502  GAL502      0.2142
      5  C5       -17.6590   14.3230   26.4060 C.3   502  GAL502      0.1810
      6  C6       -16.6170   13.6660   27.3210 C.3   502  GAL502      0.2141
      7  O2       -21.6310   15.7780   25.7610 O.3   502  GAL502     -0.2176
      8  O3       -19.7190   17.5090   26.9970 O.3   502  GAL502     -0.2175
      9  O4       -18.1140   15.6890   28.3500 O.3   502  GAL502     -0.2176
     10  O5       -18.8350   13.4390   26.3520 O.3   502  GAL502     -0.3481
     11  O6       -15.7120   14.6220   27.8740 O.3   502  GAL502     -0.2176
@<TRIPOS>BOND
     1     1    10    1
     2     1     2    1
     3     7     2    1
     4     3     2    1
     5     3     4    1
     6     3     8    1
     7    10     5    1
     8     5     4    1
     9     5     6    1
    10     4     9    1
    11     6    11    1
