@<TRIPOS>MOLECULE
1dve_HEM_A_1.pdb
 43 50 0 0 0
SMALL
GASTEIGER

@<TRIPOS>ATOM
      1 FE         45.0500   24.0220 -125.8190 Fe    300  HEM300      0.0000
      2  CHA       42.9700   21.7360 -124.2030 C.2   300  HEM300      0.0000
      3  CHB       42.6280   24.4570 -128.1660 C.2   300  HEM300      0.0000
      4  CHC       47.1340   26.1030 -127.3880 C.2   300  HEM300      0.0000
      5  CHD       47.4490   23.2910 -123.5030 C.2   300  HEM300      0.0000
      6  NA        43.1700   23.2190 -126.1180 N.ar  300  HEM300      0.0000
      7  C1A       42.4600   22.3370 -125.3400 C.ar  300  HEM300      0.0000
      8  C2A       41.0990   22.1180 -125.8900 C.ar  300  HEM300      0.0000
      9  C3A       41.0370   22.8970 -127.0210 C.ar  300  HEM300      0.0000
     10  C4A       42.3020   23.5690 -127.1530 C.ar  300  HEM300      0.0000
     11  CMA       39.8590   23.0500 -127.9740 C.3   300  HEM300      0.0000
     12  CAA       40.0470   21.2270 -125.2910 C.3   300  HEM300      0.0000
     13  CBA       40.1720   19.7040 -125.6760 C.3   300  HEM300      0.0000
     14  CGA       39.4250   18.7910 -124.7030 C.2   300  HEM300      0.0000
     15  O1A       38.4140   19.1880 -124.0880 O.co2 300  HEM300      0.0000
     16  O2A       39.8700   17.5880 -124.5460 O.co2 300  HEM300      0.0000
     17  NB        44.9350   25.0520 -127.4370 N.2   300  HEM300      0.0000
     18  C1B       43.8390   25.1460 -128.3070 C.2   300  HEM300      0.0000
     19  C2B       44.1640   26.1010 -129.3960 C.2   300  HEM300      0.0000
     20  C3B       45.4080   26.5590 -129.1700 C.2   300  HEM300      0.0000
     21  C4B       45.8680   25.8980 -127.9570 C.2   300  HEM300      0.0000
     22  CMB       43.2100   26.4450 -130.5150 C.3   300  HEM300      0.0000
     23  CAB       46.2140   27.5600 -129.9810 C.2   300  HEM300      0.0000
     24  CBB       47.1500   27.2240 -130.8440 C.2   300  HEM300      0.0000
     25  NC        46.9510   24.5820 -125.4920 N.ar  300  HEM300      0.0000
     26  C1C       47.6530   25.5000 -126.2500 C.ar  300  HEM300      0.0000
     27  C2C       48.9790   25.7210 -125.7030 C.ar  300  HEM300      0.0000
     28  C3C       49.0580   24.9110 -124.6130 C.ar  300  HEM300      0.0000
     29  C4C       47.7830   24.2160 -124.4990 C.ar  300  HEM300      0.0000
     30  CMC       50.0000   26.6670 -126.2930 C.3   300  HEM300      0.0000
     31  CAC       50.1680   24.6520 -123.6120 C.2   300  HEM300      0.0000
     32  CBC       51.3720   25.1690 -123.5610 C.2   300  HEM300      0.0000
     33  ND        45.1940   22.7320 -124.1520 N.2   300  HEM300      0.0000
     34  C1D       46.2690   22.6000 -123.3240 C.2   300  HEM300      0.0000
     35  C2D       46.0040   21.6760 -122.2760 C.2   300  HEM300      0.0000
     36  C3D       44.7160   21.2360 -122.4790 C.2   300  HEM300      0.0000
     37  C4D       44.2170   21.9030 -123.6580 C.2   300  HEM300      0.0000
     38  CMD       46.9660   21.2770 -121.1710 C.3   300  HEM300      0.0000
     39  CAD       43.9870   20.2420 -121.6240 C.3   300  HEM300      0.0000
     40  CBD       42.9220   20.9510 -120.7270 C.3   300  HEM300      0.0000
     41  CGD       42.1990   19.9730 -119.8880 C.2   300  HEM300      0.0000
     42  O1D       42.3710   19.9060 -118.6510 O.co2 300  HEM300      0.0000
     43  O2D       41.4090   19.1940 -120.4890 O.co2 300  HEM300      0.0000
@<TRIPOS>BOND
     1    24    23    2
     2    22    19    1
     3    23    20    1
     4    19    20    2
     5    19    18    1
     6    20    21    1
     7    18     3    1
     8    18    17    2
     9     3    10    2
    10    11     9    1
    11    21    17    1
    12    21     4    2
    13    17     1    1
    14     4    26    1
    15    10     9   ar
    16    10     6   ar
    17     9     8   ar
    18    30    27    1
    19    26    27   ar
    20    26    25   ar
    21     6     1    1
    22     6     7   ar
    23     8     7   ar
    24     8    12    1
    25     1    25    1
    26     1    33    1
    27    27    28   ar
    28    13    12    1
    29    13    14    1
    30    25    29   ar
    31     7     2    2
    32    14    16   ar
    33    14    15   ar
    34    28    29   ar
    35    28    31    1
    36    29     5    1
    37     2    37    1
    38    33    37    2
    39    33    34    1
    40    37    36    1
    41    31    32    2
    42     5    34    2
    43    34    35    1
    44    36    35    2
    45    36    39    1
    46    35    38    1
    47    39    40    1
    48    40    41    1
    49    43    41   ar
    50    41    42   ar
