@<TRIPOS>MOLECULE
1dvg_HEM_A_1.pdb
 43 50 0 0 0
SMALL
GASTEIGER

@<TRIPOS>ATOM
      1 FE         22.9010  -19.9490 -128.4960 Fe    300  HEM300      0.0000
      2  CHA       20.1810  -18.4340 -127.2370 C.2   300  HEM300      0.0000
      3  CHB       23.2010  -17.2880 -130.8090 C.2   300  HEM300      0.0000
      4  CHC       25.6190  -21.4180 -129.9600 C.2   300  HEM300      0.0000
      5  CHD       22.5030  -22.5480 -126.4690 C.2   300  HEM300      0.0000
      6  NA        21.8860  -18.1970 -128.9580 N.ar  300  HEM300      0.0000
      7  C1A       20.7830  -17.7500 -128.2780 C.ar  300  HEM300      0.0000
      8  C2A       20.3320  -16.4580 -128.8100 C.ar  300  HEM300      0.0000
      9  C3A       21.2010  -16.1570 -129.8310 C.ar  300  HEM300      0.0000
     10  C4A       22.1500  -17.2230 -129.9130 C.ar  300  HEM300      0.0000
     11  CMA       21.1830  -14.9180 -130.7210 C.3   300  HEM300      0.0000
     12  CAA       19.1580  -15.6670 -128.3030 C.3   300  HEM300      0.0000
     13  CBA       17.7690  -16.1510 -128.8540 C.3   300  HEM300      0.0000
     14  CGA       17.5560  -15.7410 -130.2870 C.2   300  HEM300      0.0000
     15  O1A       17.5100  -16.5920 -131.1880 O.co2 300  HEM300      0.0000
     16  O2A       17.4340  -14.4840 -130.5350 O.co2 300  HEM300      0.0000
     17  NB        24.1560  -19.4630 -130.0840 N.2   300  HEM300      0.0000
     18  C1B       24.1400  -18.3210 -130.8880 C.2   300  HEM300      0.0000
     19  C2B       25.2760  -18.3740 -131.8290 C.2   300  HEM300      0.0000
     20  C3B       25.9480  -19.5130 -131.5820 C.2   300  HEM300      0.0000
     21  C4B       25.2370  -20.1740 -130.5050 C.2   300  HEM300      0.0000
     22  CMB       25.5610  -17.2900 -132.8510 C.3   300  HEM300      0.0000
     23  CAB       27.2060  -20.0550 -132.2590 C.2   300  HEM300      0.0000
     24  CBB       27.2680  -20.4520 -133.5190 C.2   300  HEM300      0.0000
     25  NC        23.8750  -21.6810 -128.2510 N.ar  300  HEM300      0.0000
     26  C1C       24.9960  -22.1320 -128.9270 C.ar  300  HEM300      0.0000
     27  C2C       25.4090  -23.4330 -128.4190 C.ar  300  HEM300      0.0000
     28  C3C       24.5110  -23.7350 -127.4440 C.ar  300  HEM300      0.0000
     29  C4C       23.5750  -22.6300 -127.3560 C.ar  300  HEM300      0.0000
     30  CMC       26.5970  -24.2170 -128.9350 C.3   300  HEM300      0.0000
     31  CAC       24.3580  -24.9230 -126.5400 C.2   300  HEM300      0.0000
     32  CBC       25.0870  -26.0100 -126.4760 C.2   300  HEM300      0.0000
     33  ND        21.5960  -20.4210 -127.1160 N.2   300  HEM300      0.0000
     34  C1D       21.5830  -21.5390 -126.3350 C.2   300  HEM300      0.0000
     35  C2D       20.5140  -21.5090 -125.3940 C.2   300  HEM300      0.0000
     36  C3D       19.8540  -20.3230 -125.6160 C.2   300  HEM300      0.0000
     37  C4D       20.5400  -19.6490 -126.7030 C.2   300  HEM300      0.0000
     38  CMD       20.1920  -22.5790 -124.3690 C.3   300  HEM300      0.0000
     39  CAD       18.6390  -19.8360 -124.8630 C.3   300  HEM300      0.0000
     40  CBD       19.0540  -19.0220 -123.6040 C.3   300  HEM300      0.0000
     41  CGD       17.8750  -18.5430 -122.8290 C.2   300  HEM300      0.0000
     42  O1D       17.6210  -18.9850 -121.6950 O.co2 300  HEM300      0.0000
     43  O2D       17.1310  -17.6680 -123.3730 O.co2 300  HEM300      0.0000
@<TRIPOS>BOND
     1    24    23    2
     2    22    19    1
     3    23    20    1
     4    19    20    2
     5    19    18    1
     6    20    21    1
     7    15    14   ar
     8    18     3    1
     9    18    17    2
    10     3    10    2
    11    11     9    1
    12    16    14   ar
    13    21    17    1
    14    21     4    2
    15    14    13    1
    16    17     1    1
    17     4    26    1
    18    10     9   ar
    19    10     6   ar
    20     9     8   ar
    21     6     1    1
    22     6     7   ar
    23    30    27    1
    24    26    27   ar
    25    26    25   ar
    26    13    12    1
    27     8    12    1
    28     8     7   ar
    29     1    25    1
    30     1    33    1
    31    27    28   ar
    32     7     2    2
    33    25    29   ar
    34    28    29   ar
    35    28    31    1
    36    29     5    1
    37     2    37    1
    38    33    37    2
    39    33    34    1
    40    37    36    1
    41    31    32    2
    42     5    34    2
    43    34    35    1
    44    36    35    2
    45    36    39    1
    46    35    38    1
    47    39    40    1
    48    40    41    1
    49    43    41   ar
    50    41    42   ar
