@<TRIPOS>MOLECULE
1dvh_HEM_A_1.pdb
 43 50 0 0 0
SMALL
GASTEIGER

@<TRIPOS>ATOM
      1 FE          0.6250    3.9040   -2.2340 Fe     80  HEM80       0.0000
      2  CHA        0.3960    5.0610    0.9310 C.2    80  HEM80       0.0000
      3  CHB       -0.2170    0.7610   -1.1070 C.2    80  HEM80       0.0000
      4  CHC        0.4150    2.7980   -5.4660 C.2    80  HEM80       0.0000
      5  CHD        1.1970    7.1130   -3.3720 C.2    80  HEM80       0.0000
      6  NA         0.3170    3.0480   -0.4350 N.2    80  HEM80       0.0000
      7  C1A        0.2840    3.6960    0.7750 C.2    80  HEM80       0.0000
      8  C2A        0.0890    2.7630    1.8560 C.2    80  HEM80       0.0000
      9  C3A       -0.1420    1.5570    1.2910 C.2    80  HEM80       0.0000
     10  C4A       -0.0050    1.7370   -0.1440 C.2    80  HEM80       0.0000
     11  CMA       -0.4600    0.2810    2.0180 C.3    80  HEM80       0.0000
     12  CAA        0.1730    3.0990    3.3220 C.3    80  HEM80       0.0000
     13  CBA       -0.8280    4.1450    3.8390 C.3    80  HEM80       0.0000
     14  CGA       -0.1810    5.2870    4.6210 C.2    80  HEM80       0.0000
     15  O1A        0.9730    5.6180    4.3550 O.co2  80  HEM80       0.0000
     16  O2A       -0.8530    5.8450    5.4840 O.co2  80  HEM80       0.0000
     17  NB         0.1600    2.1590   -3.1050 N.ar   80  HEM80       0.0000
     18  C1B       -0.2140    0.9820   -2.4830 C.ar   80  HEM80       0.0000
     19  C2B       -0.5780   -0.0020   -3.4710 C.ar   80  HEM80       0.0000
     20  C3B       -0.1850    0.4940   -4.6750 C.ar   80  HEM80       0.0000
     21  C4B        0.1510    1.8800   -4.4580 C.ar   80  HEM80       0.0000
     22  CMB       -1.1790   -1.3460   -3.1590 C.3    80  HEM80       0.0000
     23  CAB       -0.0600   -0.2330   -5.9940 C.3    80  HEM80       0.0000
     24  CBB       -1.3410   -0.8060   -6.5920 C.3    80  HEM80       0.0000
     25  NC         0.8540    4.7630   -4.0430 N.2    80  HEM80       0.0000
     26  C1C        0.7250    4.1370   -5.2700 C.2    80  HEM80       0.0000
     27  C2C        1.0020    5.0580   -6.3390 C.2    80  HEM80       0.0000
     28  C3C        1.3670    6.2340   -5.7630 C.2    80  HEM80       0.0000
     29  C4C        1.1480    6.0880   -4.3270 C.2    80  HEM80       0.0000
     30  CMC        0.9590    4.6860   -7.8010 C.3    80  HEM80       0.0000
     31  CAC        1.9110    7.4560   -6.4620 C.3    80  HEM80       0.0000
     32  CBC        0.8220    8.2610   -7.1850 C.3    80  HEM80       0.0000
     33  ND         0.7610    5.7190   -1.3980 N.ar   80  HEM80       0.0000
     34  C1D        0.9900    6.9440   -1.9990 C.ar   80  HEM80       0.0000
     35  C2D        1.0050    7.9950   -0.9790 C.ar   80  HEM80       0.0000
     36  C3D        0.8510    7.3750    0.2280 C.ar   80  HEM80       0.0000
     37  C4D        0.6500    5.9870   -0.0560 C.ar   80  HEM80       0.0000
     38  CMD        1.1800    9.4680   -1.2440 C.3    80  HEM80       0.0000
     39  CAD        0.8500    7.9160    1.6480 C.3    80  HEM80       0.0000
     40  CBD       -0.5210    8.3780    2.1380 C.3    80  HEM80       0.0000
     41  CGD       -0.8660    9.7470    1.5870 C.2    80  HEM80       0.0000
     42  O1D       -1.5470    9.8260    0.5670 O.co2  80  HEM80       0.0000
     43  O2D       -0.4770   10.7260    2.2170 O.co2  80  HEM80       0.0000
@<TRIPOS>BOND
     1    30    27    1
     2    32    31    1
     3    24    23    1
     4    31    28    1
     5    27    28    2
     6    27    26    1
     7    23    20    1
     8    28    29    1
     9     4    26    2
    10     4    21    1
    11    26    25    1
    12    20    21   ar
    13    20    19   ar
    14    21    17   ar
    15    29    25    2
    16    29     5    1
    17    25     1    1
    18    19    22    1
    19    19    18   ar
    20     5    34    2
    21    17    18   ar
    22    17     1    1
    23    18     3    1
    24     1    33    1
    25     1     6    1
    26    34    33   ar
    27    34    35   ar
    28    33    37   ar
    29    38    35    1
    30     3    10    2
    31    35    36   ar
    32     6    10    1
    33     6     7    2
    34    10     9    1
    35    37    36   ar
    36    37     2    2
    37    36    39    1
    38    42    41   ar
    39     7     2    1
    40     7     8    1
    41     9     8    2
    42     9    11    1
    43    41    40    1
    44    41    43   ar
    45    39    40    1
    46     8    12    1
    47    12    13    1
    48    13    14    1
    49    15    14   ar
    50    14    16   ar
