@<TRIPOS>MOLECULE
1dvj_UP6_A_1.pdb
 21 22 0 0 0
SMALL
GASTEIGER

@<TRIPOS>ATOM
      1  N1        15.1950    1.2550   30.8930 N.am  5001  UP65001    -0.0968
      2  C2        14.5400    2.2410   31.6070 C.1   5001  UP65001     0.3005
      3  N3        14.5820    2.0900   32.9710 N.2   5001  UP65001    -0.2426
      4  C4        15.2170    1.0560   33.6400 C.1   5001  UP65001     0.2380
      5  C5        15.8620    0.0760   32.8220 C.2   5001  UP65001     0.2253
      6  N6        15.8460    0.1870   31.5080 N.2   5001  UP65001    -0.1496
      7  O2        14.0020    3.1600   31.0760 O.2   5001  UP65001    -0.1905
      8  O4        15.1950    1.0620   34.8480 O.2   5001  UP65001    -0.2069
      9  C1'       15.2660    1.3240   29.4560 C.3   5001  UP65001     0.2577
     10  C2'       13.9710    1.4320   28.6480 C.3   5001  UP65001     0.2334
     11  C3'       14.4240    2.1980   27.4270 C.3   5001  UP65001     0.2159
     12  C4'       15.4990    3.1240   27.9910 C.3   5001  UP65001     0.1801
     13  O2'       13.4330    0.1460   28.3220 O.3   5001  UP65001    -0.2157
     14  O3'       14.9890    1.3290   26.4580 O.3   5001  UP65001    -0.2175
     15  O4'       16.0960    2.4120   29.0830 O.3   5001  UP65001    -0.3309
     16  C5'       15.1240    4.5220   28.4300 C.3   5001  UP65001     0.1859
     17  O5'       14.5050    5.1360   27.3100 O.3   5001  UP65001    -0.2675
     18  P         13.8120    6.6030   27.4050 P.3   5001  UP65001     0.5327
     19  O1P       12.9180    6.6970   28.6170 O.3   5001  UP65001    -0.1145
     20  O2P       13.0710    6.6830   26.1040 O.2   5001  UP65001    -0.2224
     21  O3P       14.9900    7.6750   27.4010 O.3   5001  UP65001    -0.1145
@<TRIPOS>BOND
     1    20    18    2
     2    14    11    1
     3    17    18    1
     4    17    16    1
     5    21    18    1
     6    18    19    1
     7    11    12    1
     8    11    10    1
     9    12    16    1
    10    12    15    1
    11    13    10    1
    12    10     9    1
    13    15     9    1
    14     9     1    1
    15     1     6    1
    16     1     2   am
    17     7     2    2
    18     6     5    2
    19     2     3    2
    20     5     4    1
    21     3     4    2
    22     4     8    2
