@<TRIPOS>MOLECULE
1dvp_CIT_A_1.pdb
 13 12 0 0 0
SMALL
GASTEIGER

@<TRIPOS>ATOM
      1  C1        59.5880   41.1310   18.9510 C.2   300  CIT300      0.3680
      2  O1        59.1310   42.1700   18.3760 O.co2 300  CIT300     -0.2455
      3  O2        59.1730   41.0810   20.2990 O.co2 300  CIT300     -0.2455
      4  C2        60.4860   39.8930   18.3770 C.3   300  CIT300      0.1560
      5  C3        59.4810   38.7770   18.0490 C.3   300  CIT300      0.2402
      6  O7        58.6880   38.3290   19.1550 O.3   300  CIT300     -0.2129
      7  C4        59.9850   37.4270   17.5220 C.3   300  CIT300      0.1560
      8  C5        58.8600   36.4480   17.3570 C.2   300  CIT300      0.3680
      9  O3        57.6520   36.7320   17.1590 O.co2 300  CIT300     -0.2455
     10  O4        59.2420   35.1680   17.5000 O.co2 300  CIT300     -0.2455
     11  C6        58.7660   39.3770   16.7810 C.2   300  CIT300      0.3927
     12  O5        59.2760   39.4500   15.7000 O.co2 300  CIT300     -0.2429
     13  O6        57.5710   39.8140   16.8010 O.co2 300  CIT300     -0.2429
@<TRIPOS>BOND
     1    12    11   ar
     2    11    13   ar
     3    11     5    1
     4     9     8   ar
     5     8    10   ar
     6     8     7    1
     7     7     5    1
     8     5     4    1
     9     5     6    1
    10     2     1   ar
    11     4     1    1
    12     1     3   ar
