@<TRIPOS>MOLECULE
1dvr_ATF_A_1.pdb
 33 35 0 0 0
SMALL
GASTEIGER

@<TRIPOS>ATOM
      1  PG        23.0910   43.1200  -14.6890 P.3   230  ATF230      0.1913
      2  O1G       24.2650   42.6900  -13.8930 O.3   230  ATF230     -0.3531
      3  O2G       21.8780   42.2890  -14.6240 O.2   230  ATF230     -0.4540
      4  O3G       22.6790   44.5050  -14.0510 O.3   230  ATF230     -0.3531
      5  PB        23.0500   44.0580  -17.6770 P.3   230  ATF230      0.4402
      6  O1B       21.6080   44.0670  -17.6880 O.3   230  ATF230     -0.1351
      7  O2B       23.5710   45.4460  -17.8930 O.2   230  ATF230     -0.2491
      8  C3B       23.7440   43.1320  -16.3350 C.3   230  ATF230      0.3975
      9  F1B       23.9770   41.8290  -16.7550 F     230  ATF230     -0.1836
     10  F2B       25.1090   43.2350  -16.2630 F     230  ATF230     -0.1836
     11  PA        23.2720   42.1490  -20.0240 P.3   230  ATF230      0.2210
     12  O1A       22.5660   40.9180  -19.6120 O.3   230  ATF230     -0.4371
     13  O2A       24.4650   41.8410  -20.7980 O.2   230  ATF230     -0.5170
     14  O3A       23.7110   43.3520  -19.0280 O.3   230  ATF230     -0.2448
     15  O5'       22.3520   42.9280  -21.0500 O.3   230  ATF230     -0.3111
     16  C5'       20.9920   43.2260  -20.7740 C.3   230  ATF230      0.1813
     17  C4'       20.1290   42.7050  -21.8460 C.3   230  ATF230      0.1821
     18  O4'       20.2590   43.5230  -22.9600 O.3   230  ATF230     -0.3135
     19  C3'       20.4530   41.3430  -22.3990 C.3   230  ATF230      0.2184
     20  O3'       19.2240   40.9300  -22.9170 O.3   230  ATF230     -0.2174
     21  C2'       21.4960   41.5620  -23.5810 C.3   230  ATF230      0.2570
     22  O2'       21.1770   40.7660  -24.7390 O.3   230  ATF230     -0.2130
     23  C1'       21.2540   42.9820  -23.8690 C.3   230  ATF230      0.3186
     24  N9        22.0940   43.8610  -24.7040 N.pl3 230  ATF230     -0.1439
     25  C8        23.2790   44.3680  -24.1810 C.3   230  ATF230      0.3377
     26  N7        23.7320   45.3550  -24.8880 N.2   230  ATF230     -0.2095
     27  C5        22.8630   45.5680  -25.9320 C.2   230  ATF230      0.2526
     28  C6        22.8000   46.5250  -26.9750 C.2   230  ATF230      0.4393
     29  N6        23.7020   47.5060  -26.9670 N.pl3 230  ATF230      0.2180
     30  N1        21.7950   46.4730  -27.9030 N.2   230  ATF230      0.0021
     31  C2        20.8910   45.5080  -27.7800 C.3   230  ATF230      0.5254
     32  N3        20.8230   44.5520  -26.8200 N.2   230  ATF230     -0.0055
     33  C4        21.8210   44.5930  -25.8750 C.2   230  ATF230      0.3518
@<TRIPOS>BOND
     1    30    31    1
     2    30    28    2
     3    31    32    1
     4    28    29    1
     5    28    27    1
     6    32    33    2
     7    27    33    1
     8    27    26    2
     9    33    24    1
    10    26    25    1
    11    22    21    1
    12    24    25    1
    13    24    23    1
    14    23    21    1
    15    23    18    1
    16    21    19    1
    17    18    17    1
    18    20    19    1
    19    19    17    1
    20    17    16    1
    21    15    16    1
    22    15    11    1
    23    13    11    2
    24    11    12    1
    25    11    14    1
    26    14     5    1
    27     7     5    2
    28     6     5    1
    29     5     8    1
    30     9     8    1
    31     8    10    1
    32     8     1    1
    33     1     3    2
    34     1     4    1
    35     1     2    1
