@<TRIPOS>MOLECULE
1dvs_STL_A_1.pdb
 17 18 0 0 0
SMALL
GASTEIGER

@<TRIPOS>ATOM
      1  C1        21.4520   43.6540    2.1190 C.ar  125  STL125      0.1989
      2  C2        20.8200   42.4870    1.6210 C.ar  125  STL125      0.0840
      3  C3        20.3690   41.4850    2.5150 C.ar  125  STL125      0.1989
      4  C4        20.5490   41.6490    3.9120 C.ar  125  STL125      0.0422
      5  C5        21.1860   42.8250    4.4360 C.ar  125  STL125      0.0064
      6  C6        21.6340   43.8240    3.5190 C.ar  125  STL125      0.0422
      7  C7        21.4120   43.0660    5.9400 C.2   125  STL125      0.0002
      8  C8        21.0860   42.2670    6.9790 C.2   125  STL125      0.0000
      9  C9        21.2790   42.4870    8.4880 C.ar  125  STL125      0.0002
     10  C10       20.8460   41.4490    9.3710 C.ar  125  STL125      0.0033
     11  C11       20.9920   41.5830   10.7760 C.ar  125  STL125      0.0420
     12  C12       21.5730   42.7580   11.3180 C.ar  125  STL125      0.1957
     13  C13       22.0080   43.8000   10.4610 C.ar  125  STL125      0.0420
     14  C14       21.8660   43.6690    9.0540 C.ar  125  STL125      0.0033
     15  O1        21.7120   42.8860   12.6760 O.3   125  STL125     -0.2866
     16  O2        19.7570   40.3590    2.0290 O.3   125  STL125     -0.2865
     17  O3        21.8860   44.6160    1.2500 O.3   125  STL125     -0.2865
@<TRIPOS>BOND
     1    17     1    1
     2     2     1   ar
     3     2     3   ar
     4    16     3    1
     5     1     6   ar
     6     3     4   ar
     7     6     5   ar
     8     4     5   ar
     9     5     7    1
    10     7     8    2
    11     8     9    1
    12     9    14   ar
    13     9    10   ar
    14    14    13   ar
    15    10    11   ar
    16    13    12   ar
    17    11    12   ar
    18    12    15    1
