@<TRIPOS>MOLECULE
1dvt_FLP_A_1.pdb
 18 19 0 0 0
SMALL
GASTEIGER

@<TRIPOS>ATOM
      1  C         21.4150   42.7390   11.2130 C.ar  125  FLP125      0.0000
      2  C1        21.2450   42.4750    9.8350 C.ar  125  FLP125      0.0001
      3  C2        21.6240   43.4440    8.8270 C.ar  125  FLP125      0.0022
      4  C3        22.1830   44.6930    9.3020 C.ar  125  FLP125      0.0001
      5  C4        22.3480   44.9480   10.6820 C.ar  125  FLP125      0.0000
      6  C5        21.9640   43.9720   11.6280 C.ar  125  FLP125      0.0000
      7  C6        21.4530   43.1780    7.4480 C.ar  125  FLP125      0.0275
      8  C7        22.1210   42.0510    6.8360 C.ar  125  FLP125      0.0019
      9  C8        21.9650   41.7600    5.4650 C.ar  125  FLP125     -0.0036
     10  C9        21.1410   42.5770    4.6300 C.ar  125  FLP125     -0.0096
     11  C10       20.4800   43.6890    5.2040 C.ar  125  FLP125      0.0259
     12  C11       20.6230   43.9950    6.5780 C.ar  125  FLP125      0.1398
     13  C12       20.9390   42.2900    3.1080 C.3   125  FLP125      0.1257
     14  C13       20.5340   40.8220    2.8140 C.3   125  FLP125      0.0166
     15  C14       22.2000   42.6980    2.2820 C.2   125  FLP125      0.3683
     16  O         23.3330   42.2720    2.6010 O.co2 125  FLP125     -0.2453
     17  O1        22.0380   43.4570    1.3070 O.co2 125  FLP125     -0.2453
     18  F         19.9410   45.0860    7.0370 F     125  FLP125     -0.2042
@<TRIPOS>BOND
     1    17    15   ar
     2    15    16   ar
     3    15    13    1
     4    14    13    1
     5    13    10    1
     6    10    11   ar
     7    10     9   ar
     8    11    12   ar
     9     9     8   ar
    10    12    18    1
    11    12     7   ar
    12     8     7   ar
    13     7     3    1
    14     3     4   ar
    15     3     2   ar
    16     4     5   ar
    17     2     1   ar
    18     5     6   ar
    19     1     6   ar
