@<TRIPOS>MOLECULE
1dvu_DBF_B_1.pdb
 19 21 0 0 0
SMALL
GASTEIGER

@<TRIPOS>ATOM
      1  C1        19.0010   41.4830    5.3280 C.ar  125  DBF125      0.0097
      2  C2        19.4850   41.8710    4.0340 C.ar  125  DBF125      0.1142
      3  C3        20.7390   42.6560    3.9790 C.ar  125  DBF125      0.1516
      4  C4        21.4100   42.9910    5.2290 C.ar  125  DBF125      0.0377
      5  C5        20.8740   42.5720    6.5000 C.ar  125  DBF125      0.0031
      6  C6        19.6780   41.8260    6.5250 C.ar  125  DBF125      0.0004
      7  O         21.4770   43.1870    2.9030 O.2   125  DBF125     -0.4531
      8  C7        23.7210   44.5840    2.8770 C.ar  125  DBF125      0.1142
      9  C8        22.5880   43.8400    3.4720 C.ar  125  DBF125      0.1516
     10  C9        22.5260   43.7060    4.9230 C.ar  125  DBF125      0.0377
     11  C10       23.5390   44.2810    5.7690 C.ar  125  DBF125      0.0031
     12  C11       24.6100   44.9830    5.1760 C.ar  125  DBF125      0.0004
     13  C12       24.7010   45.1320    3.7710 C.ar  125  DBF125      0.0097
     14  O1        19.0900   41.7850    1.6610 O.co2 125  DBF125     -0.2404
     15  C13       18.6910   41.4600    2.8010 C.2   125  DBF125      0.3907
     16  O2        17.6270   40.7900    2.9170 O.co2 125  DBF125     -0.2404
     17  O3        24.8900   45.4400    0.9340 O.co2 125  DBF125     -0.2404
     18  C14       23.8990   44.7960    1.3780 C.2   125  DBF125      0.3907
     19  O4        23.0590   44.3320    0.5780 O.co2 125  DBF125     -0.2404
@<TRIPOS>BOND
     1    19    18   ar
     2    17    18   ar
     3    18     8    1
     4    14    15   ar
     5    15    16   ar
     6    15     2    1
     7     8     9   ar
     8     8    13   ar
     9     7     9   ar
    10     7     3   ar
    11     9    10   ar
    12    13    12   ar
    13     3     2   ar
    14     3     4   ar
    15     2     1   ar
    16    10     4   ar
    17    10    11   ar
    18    12    11   ar
    19     4     5   ar
    20     1     6   ar
    21     5     6   ar
