@<TRIPOS>MOLECULE
1dvx_DIF_B_1.pdb
 19 20 0 0 0
SMALL
GASTEIGER

@<TRIPOS>ATOM
      1  C1        21.7210   42.9630    3.6540 C.ar  125  DIF125      0.0128
      2  C2        21.9020   42.9560    5.0600 C.ar  125  DIF125      0.0737
      3 CL2        23.4970   43.4710    5.6350 Cl    125  DIF125     -0.0809
      4  C3        20.8510   42.4610    5.9220 C.ar  125  DIF125      0.0915
      5  C4        19.6320   41.9930    5.3180 C.ar  125  DIF125      0.0737
      6 CL4        18.2700   41.3770    6.2710 Cl    125  DIF125     -0.0809
      7  C5        19.4740   42.0190    3.9080 C.ar  125  DIF125      0.0128
      8  C6        20.5110   42.5040    3.0810 C.ar  125  DIF125      0.0018
      9  N1        20.9480   42.4420    7.3840 N.pl3 125  DIF125     -0.2111
     10  C7        21.6130   42.9350    9.7560 C.ar  125  DIF125      0.0043
     11  C8        21.1910   43.4070    8.4570 C.ar  125  DIF125      0.0671
     12  C9        21.0190   44.8100    8.2480 C.ar  125  DIF125      0.0162
     13  C10       21.2610   45.7260    9.2950 C.ar  125  DIF125      0.0013
     14  C11       21.6730   45.2660   10.5670 C.ar  125  DIF125     -0.0002
     15  C12       21.8490   43.8810   10.7990 C.ar  125  DIF125     -0.0024
     16  C13       21.8430   41.4420   10.1130 C.3   125  DIF125      0.1416
     17  C14       20.6110   40.5610   10.1310 C.2   125  DIF125      0.3693
     18  O1        19.9920   40.4130   11.2050 O.co2 125  DIF125     -0.2453
     19  O2        20.2830   39.9960    9.0720 O.co2 125  DIF125     -0.2453
@<TRIPOS>BOND
     1     8     1   ar
     2     8     7   ar
     3     1     2   ar
     4     7     5   ar
     5     2     3    1
     6     2     4   ar
     7     5     4   ar
     8     5     6    1
     9     4     9    1
    10     9    11    1
    11    12    11   ar
    12    12    13   ar
    13    11    10   ar
    14    19    17   ar
    15    13    14   ar
    16    10    16    1
    17    10    15   ar
    18    16    17    1
    19    17    18   ar
    20    14    15   ar
