@<TRIPOS>MOLECULE
1dvy_BPD_A_1.pdb
 30 33 0 0 0
SMALL
GASTEIGER

@<TRIPOS>ATOM
      1  F1        21.7630   40.8000    8.2370 F     125  BPD125     -0.1659
      2  F2        22.0590   42.3410    9.6290 F     125  BPD125     -0.1659
      3  F3        23.5840   41.8870    8.2220 F     125  BPD125     -0.1659
      4  O1        22.2790   43.0050    0.9080 O.3   125  BPD125     -0.4505
      5  O2        19.9530   40.3110   -1.3760 O.co2 125  BPD125     -0.2404
      6  O3        21.7200   41.6070   -1.3140 O.co2 125  BPD125     -0.2404
      7  O4        25.8240   44.2330   -0.8910 O.co2 125  BPD125     -0.2404
      8  O5        23.8450   43.2530   -1.0230 O.co2 125  BPD125     -0.2404
      9  N1        21.6060   43.5990    3.6190 N.pl3 125  BPD125     -0.2604
     10  C1        22.2900   41.9990    8.3730 C.3   125  BPD125      0.4186
     11  C2        21.7030   42.9760    7.4000 C.ar  125  BPD125      0.0727
     12  C3        20.9190   44.0640    7.8550 C.ar  125  BPD125      0.0039
     13  C4        20.3790   44.9690    6.9370 C.ar  125  BPD125      0.0012
     14  C5        20.6040   44.8170    5.5540 C.ar  125  BPD125      0.0151
     15  C6        21.3840   43.7380    5.0800 C.ar  125  BPD125      0.0557
     16  C7        21.9430   42.8030    6.0050 C.ar  125  BPD125      0.0190
     17  C8        20.8010   42.6540    2.8470 C.ar  125  BPD125      0.0907
     18  C9        19.6660   41.9880    3.3840 C.ar  125  BPD125      0.0183
     19  C10       18.9150   41.0820    2.6020 C.ar  125  BPD125      0.0017
     20  C11       19.2790   40.8300    1.2940 C.ar  125  BPD125      0.0098
     21  C12       20.4020   41.4540    0.6860 C.ar  125  BPD125      0.1154
     22  C13       21.1680   42.3770    1.4820 C.ar  125  BPD125      0.1654
     23  C14       20.6590   41.0620   -0.7600 C.2   125  BPD125      0.3907
     24  C16       22.8660   44.0780    3.0530 C.ar  125  BPD125      0.0907
     25  C17       23.8150   44.8500    3.7810 C.ar  125  BPD125      0.0183
     26  C18       25.0090   45.2840    3.1820 C.ar  125  BPD125      0.0017
     27  C19       25.3000   44.9760    1.8620 C.ar  125  BPD125      0.0098
     28  C20       24.4030   44.2110    1.0680 C.ar  125  BPD125      0.1154
     29  C21       23.1680   43.7560    1.6750 C.ar  125  BPD125      0.1654
     30  C22       24.8060   43.9250   -0.3660 C.2   125  BPD125      0.3907
@<TRIPOS>BOND
     1     5    23   ar
     2     6    23   ar
     3     8    30   ar
     4     7    30   ar
     5    23    21    1
     6    30    28    1
     7    21    20   ar
     8    21    22   ar
     9     4    22    1
    10     4    29    1
    11    28    29   ar
    12    28    27   ar
    13    20    19   ar
    14    22    17   ar
    15    29    24   ar
    16    27    26   ar
    17    19    18   ar
    18    17    18   ar
    19    17     9    1
    20    24     9    1
    21    24    25   ar
    22    26    25   ar
    23     9    15    1
    24    15    14   ar
    25    15    16   ar
    26    14    13   ar
    27    16    11   ar
    28    13    12   ar
    29    11    12   ar
    30    11    10    1
    31     3    10    1
    32     1    10    1
    33    10     2    1
