@<TRIPOS>MOLECULE
1dvz_OFL_A_1.pdb
 20 21 0 0 0
SMALL
GASTEIGER

@<TRIPOS>ATOM
      1  C1'       21.2420   40.5680    9.4740 C.ar  125  OFL125      0.0013
      2  C2'       21.5990   41.1060    8.2140 C.ar  125  OFL125      0.0165
      3  C3'       21.6750   42.5290    8.0230 C.ar  125  OFL125      0.0744
      4  C4'       21.3840   43.4040    9.1470 C.ar  125  OFL125      0.0866
      5  C5'       21.0260   42.8260   10.4150 C.ar  125  OFL125      0.0052
      6  C6'       20.9570   41.4210   10.5640 C.ar  125  OFL125      0.0000
      7  C7'       21.4650   44.9750    8.9840 C.3   125  OFL125      0.4198
      8  N         22.0550   43.1260    6.7120 N.pl3 125  OFL125     -0.2123
      9  C1        19.8910   41.5800    3.9140 C.ar  125  OFL125      0.0013
     10  C2        20.4280   42.2050    2.7700 C.ar  125  OFL125      0.0003
     11  C3        21.4880   43.1300    2.8890 C.ar  125  OFL125      0.0079
     12  C4        22.0350   43.4460    4.1740 C.ar  125  OFL125      0.0950
     13  C5        21.4810   42.7980    5.3660 C.ar  125  OFL125      0.0768
     14  C6        20.4030   41.8650    5.2000 C.ar  125  OFL125      0.0167
     15  C7        23.1940   44.4630    4.2790 C.2   125  OFL125      0.3890
     16  O1        23.6590   45.0110    3.2420 O.co2 125  OFL125     -0.2405
     17  O2        23.6860   44.7540    5.3980 O.co2 125  OFL125     -0.2405
     18  F1        21.5570   45.5700   10.2040 F     125  OFL125     -0.1658
     19  F2        22.5700   45.2960    8.2570 F     125  OFL125     -0.1658
     20  F3        20.3520   45.4320    8.3400 F     125  OFL125     -0.1658
@<TRIPOS>BOND
     1    10    11   ar
     2    10     9   ar
     3    11    12   ar
     4    16    15   ar
     5     9    14   ar
     6    12    15    1
     7    12    13   ar
     8    15    17   ar
     9    14    13   ar
    10    13     8    1
    11     8     3    1
    12     3     2   ar
    13     3     4   ar
    14     2     1   ar
    15    19     7    1
    16    20     7    1
    17     7     4    1
    18     7    18    1
    19     4     5   ar
    20     1     6   ar
    21     5     6   ar
