@<TRIPOS>MOLECULE
1dw0_HEM_A_1.pdb
 43 50 0 0 0
SMALL
GASTEIGER

@<TRIPOS>ATOM
      1 FE         22.8730   17.2890   98.3630 Fe    113  HEM113      0.0000
      2  CHA       25.3260   15.9340  100.2960 C.2   113  HEM113      0.0000
      3  CHB       24.3790   15.9680   95.5110 C.2   113  HEM113      0.0000
      4  CHC       20.1610   18.2330   96.4650 C.2   113  HEM113      0.0000
      5  CHD       21.4400   18.7460  101.1220 C.2   113  HEM113      0.0000
      6  NA        24.5300   16.2020   97.9800 N.ar  113  HEM113      0.0000
      7  C1A       25.3710   15.6450   98.9450 C.ar  113  HEM113      0.0000
      8  C2A       26.3160   14.7970   98.2800 C.ar  113  HEM113      0.0000
      9  C3A       26.0600   14.8010   96.9750 C.ar  113  HEM113      0.0000
     10  C4A       24.9160   15.6890   96.7600 C.ar  113  HEM113      0.0000
     11  CMA       26.7460   14.0490   95.8220 C.3   113  HEM113      0.0000
     12  CAA       27.4110   13.9180   98.9860 C.3   113  HEM113      0.0000
     13  CBA       28.8010   14.5310   98.8860 C.3   113  HEM113      0.0000
     14  CGA       29.9150   13.6880   99.4680 C.2   113  HEM113      0.0000
     15  O1A       30.3940   14.1370  100.5270 O.co2 113  HEM113      0.0000
     16  O2A       30.1690   12.6410   98.8420 O.co2 113  HEM113      0.0000
     17  NB        22.3970   17.1710   96.4020 N.2   113  HEM113      0.0000
     18  C1B       23.1110   16.5530   95.3920 C.2   113  HEM113      0.0000
     19  C2B       22.3390   16.5560   94.1700 C.2   113  HEM113      0.0000
     20  C3B       21.1660   17.1470   94.4570 C.2   113  HEM113      0.0000
     21  C4B       21.1970   17.5890   95.8350 C.2   113  HEM113      0.0000
     22  CMB       22.8180   15.9340   92.8440 C.3   113  HEM113      0.0000
     23  CAB       19.9560   17.3220   93.4870 C.3   113  HEM113      0.0000
     24  CBB       19.4190   16.0700   93.1150 C.3   113  HEM113      0.0000
     25  NC        21.1330   18.2800   98.7330 N.ar  113  HEM113      0.0000
     26  C1C       20.1480   18.5940   97.8120 C.ar  113  HEM113      0.0000
     27  C2C       19.0990   19.3320   98.4700 C.ar  113  HEM113      0.0000
     28  C3C       19.4490   19.4640   99.7580 C.ar  113  HEM113      0.0000
     29  C4C       20.7290   18.8200   99.9410 C.ar  113  HEM113      0.0000
     30  CMC       17.8460   19.8730   97.7350 C.3   113  HEM113      0.0000
     31  CAC       18.6690   20.1860  100.9080 C.3   113  HEM113      0.0000
     32  CBC       17.3690   19.7310  101.2020 C.3   113  HEM113      0.0000
     33  ND        23.3120   17.3590  100.3030 N.2   113  HEM113      0.0000
     34  C1D       22.5820   17.9730  101.3080 C.2   113  HEM113      0.0000
     35  C2D       23.2340   17.7410  102.5740 C.2   113  HEM113      0.0000
     36  C3D       24.2930   16.9510  102.3540 C.2   113  HEM113      0.0000
     37  C4D       24.3820   16.7060  100.9320 C.2   113  HEM113      0.0000
     38  CMD       22.6870   18.2950  103.9020 C.3   113  HEM113      0.0000
     39  CAD       25.2730   16.3750  103.4050 C.3   113  HEM113      0.0000
     40  CBD       26.2510   17.3370  104.0730 C.3   113  HEM113      0.0000
     41  CGD       27.5460   17.4200  103.2970 C.2   113  HEM113      0.0000
     42  O1D       28.2920   18.4030  103.4730 O.co2 113  HEM113      0.0000
     43  O2D       27.8190   16.4700  102.5170 O.co2 113  HEM113      0.0000
@<TRIPOS>BOND
     1    22    19    1
     2    24    23    1
     3    23    20    1
     4    19    20    2
     5    19    18    1
     6    20    21    1
     7    18     3    1
     8    18    17    2
     9     3    10    2
    10    11     9    1
    11    21    17    1
    12    21     4    2
    13    17     1    1
    14     4    26    1
    15    10     9   ar
    16    10     6   ar
    17     9     8   ar
    18    30    27    1
    19    26    27   ar
    20    26    25   ar
    21     6     1    1
    22     6     7   ar
    23     8     7   ar
    24     8    12    1
    25     1    25    1
    26     1    33    1
    27    27    28   ar
    28    25    29   ar
    29    16    14   ar
    30    13    12    1
    31    13    14    1
    32     7     2    2
    33    14    15   ar
    34    28    29   ar
    35    28    31    1
    36    29     5    1
    37     2    37    1
    38    33    37    2
    39    33    34    1
    40    31    32    1
    41    37    36    1
    42     5    34    2
    43    34    35    1
    44    36    35    2
    45    36    39    1
    46    43    41   ar
    47    35    38    1
    48    41    42   ar
    49    41    40    1
    50    39    40    1
