@<TRIPOS>MOLECULE
1dw1_HEM_A_1.pdb
 43 50 0 0 0
SMALL
GASTEIGER

@<TRIPOS>ATOM
      1 FE         22.9700   17.4110   98.1560 Fe    113  HEM113      0.0000
      2  CHA       25.4230   16.0460  100.0800 C.2   113  HEM113      0.0000
      3  CHB       24.6040   16.4500   95.3060 C.2   113  HEM113      0.0000
      4  CHC       20.1730   18.0800   96.3530 C.2   113  HEM113      0.0000
      5  CHD       21.5740   18.8780  100.9230 C.2   113  HEM113      0.0000
      6  NA        24.7150   16.5050   97.7620 N.ar  113  HEM113      0.0000
      7  C1A       25.5040   15.8480   98.7090 C.ar  113  HEM113      0.0000
      8  C2A       26.4190   14.9860   98.0220 C.ar  113  HEM113      0.0000
      9  C3A       26.2140   15.1050   96.7060 C.ar  113  HEM113      0.0000
     10  C4A       25.1210   16.0500   96.5230 C.ar  113  HEM113      0.0000
     11  CMA       26.8770   14.3520   95.5330 C.3   113  HEM113      0.0000
     12  CAA       27.4690   14.0520   98.7140 C.3   113  HEM113      0.0000
     13  CBA       28.8190   14.7710   98.8600 C.3   113  HEM113      0.0000
     14  CGA       29.9700   13.8770   99.2950 C.2   113  HEM113      0.0000
     15  O1A       30.6900   14.3910  100.1720 O.co2 113  HEM113      0.0000
     16  O2A       30.0700   12.7940   98.6770 O.co2 113  HEM113      0.0000
     17  NB        22.5010   17.3520   96.1920 N.2   113  HEM113      0.0000
     18  C1B       23.2900   16.8480   95.1770 C.2   113  HEM113      0.0000
     19  C2B       22.5180   16.8210   93.9460 C.2   113  HEM113      0.0000
     20  C3B       21.2750   17.2160   94.2680 C.2   113  HEM113      0.0000
     21  C4B       21.2630   17.6070   95.6650 C.2   113  HEM113      0.0000
     22  CMB       23.1020   16.2830   92.6380 C.3   113  HEM113      0.0000
     23  CAB       20.0380   17.2610   93.3320 C.3   113  HEM113      0.0000
     24  CBB       19.6010   15.9910   92.9150 C.3   113  HEM113      0.0000
     25  NC        21.2170   18.3120   98.5580 N.ar  113  HEM113      0.0000
     26  C1C       20.1880   18.5030   97.6530 C.ar  113  HEM113      0.0000
     27  C2C       19.1330   19.2540   98.3150 C.ar  113  HEM113      0.0000
     28  C3C       19.5240   19.4350   99.5820 C.ar  113  HEM113      0.0000
     29  C4C       20.8370   18.8920   99.7480 C.ar  113  HEM113      0.0000
     30  CMC       17.8320   19.6900   97.6100 C.3   113  HEM113      0.0000
     31  CAC       18.7520   20.1770  100.7200 C.2   113  HEM113      0.0000
     32  CBC       17.5690   19.6150  101.1320 C.2   113  HEM113      0.0000
     33  ND        23.4350   17.4810  100.1020 N.2   113  HEM113      0.0000
     34  C1D       22.7120   18.1110  101.0940 C.2   113  HEM113      0.0000
     35  C2D       23.4000   17.9210  102.3580 C.2   113  HEM113      0.0000
     36  C3D       24.4600   17.1380  102.1230 C.2   113  HEM113      0.0000
     37  C4D       24.5000   16.8320  100.7110 C.2   113  HEM113      0.0000
     38  CMD       22.9130   18.5160  103.6880 C.3   113  HEM113      0.0000
     39  CAD       25.4710   16.6110  103.1770 C.3   113  HEM113      0.0000
     40  CBD       26.3680   17.7110  103.7550 C.3   113  HEM113      0.0000
     41  CGD       27.7670   17.6960  103.2030 C.2   113  HEM113      0.0000
     42  O1D       28.5540   18.6220  103.4900 O.co2 113  HEM113      0.0000
     43  O2D       28.0630   16.6950  102.4950 O.co2 113  HEM113      0.0000
@<TRIPOS>BOND
     1    22    19    1
     2    24    23    1
     3    23    20    1
     4    19    20    2
     5    19    18    1
     6    20    21    1
     7    18     3    1
     8    18    17    2
     9     3    10    2
    10    11     9    1
    11    21    17    1
    12    21     4    2
    13    17     1    1
    14     4    26    1
    15    10     9   ar
    16    10     6   ar
    17     9     8   ar
    18    30    27    1
    19    26    27   ar
    20    26    25   ar
    21     6     1    1
    22     6     7   ar
    23     8     7   ar
    24     8    12    1
    25     1    25    1
    26     1    33    1
    27    27    28   ar
    28    25    29   ar
    29    16    14   ar
    30     7     2    2
    31    12    13    1
    32    13    14    1
    33    14    15   ar
    34    28    29   ar
    35    28    31    1
    36    29     5    1
    37     2    37    1
    38    33    37    2
    39    33    34    1
    40    37    36    1
    41    31    32    2
    42     5    34    2
    43    34    35    1
    44    36    35    2
    45    36    39    1
    46    35    38    1
    47    43    41   ar
    48    39    40    1
    49    41    42   ar
    50    41    40    1
