@<TRIPOS>MOLECULE
1dw2_HEM_A_1.pdb
 43 50 0 0 0
SMALL
GASTEIGER

@<TRIPOS>ATOM
      1 FE         22.9240   17.2640   98.1940 Fe    113  HEM113      0.0000
      2  CHA       25.4380   16.0200  100.1300 C.2   113  HEM113      0.0000
      3  CHB       24.5030   16.2410   95.3340 C.2   113  HEM113      0.0000
      4  CHC       20.1700   18.1250   96.3480 C.2   113  HEM113      0.0000
      5  CHD       21.5200   18.7120  100.9720 C.2   113  HEM113      0.0000
      6  NA        24.6690   16.4280   97.8120 N.ar  113  HEM113      0.0000
      7  C1A       25.4890   15.8490   98.7580 C.ar  113  HEM113      0.0000
      8  C2A       26.4290   15.0120   98.0580 C.ar  113  HEM113      0.0000
      9  C3A       26.1770   15.0570   96.7480 C.ar  113  HEM113      0.0000
     10  C4A       25.0610   15.9380   96.5590 C.ar  113  HEM113      0.0000
     11  CMA       26.8870   14.3180   95.5720 C.3   113  HEM113      0.0000
     12  CAA       27.5040   14.1360   98.7590 C.3   113  HEM113      0.0000
     13  CBA       28.8490   14.7420   98.7810 C.3   113  HEM113      0.0000
     14  CGA       29.9680   13.7910   99.1970 C.2   113  HEM113      0.0000
     15  O1A       30.5460   14.1750  100.2330 O.co2 113  HEM113      0.0000
     16  O2A       30.2540   12.7880   98.4940 O.co2 113  HEM113      0.0000
     17  NB        22.4610   17.2220   96.2560 N.2   113  HEM113      0.0000
     18  C1B       23.2280   16.7180   95.2220 C.2   113  HEM113      0.0000
     19  C2B       22.4530   16.7280   93.9930 C.2   113  HEM113      0.0000
     20  C3B       21.2670   17.2230   94.3020 C.2   113  HEM113      0.0000
     21  C4B       21.2340   17.5940   95.7050 C.2   113  HEM113      0.0000
     22  CMB       23.0080   16.1930   92.6420 C.3   113  HEM113      0.0000
     23  CAB       20.0210   17.3630   93.3500 C.3   113  HEM113      0.0000
     24  CBB       19.5180   16.0400   93.1090 C.3   113  HEM113      0.0000
     25  NC        21.1980   18.2140   98.5730 N.ar  113  HEM113      0.0000
     26  C1C       20.1980   18.5030   97.6870 C.ar  113  HEM113      0.0000
     27  C2C       19.1960   19.2710   98.3640 C.ar  113  HEM113      0.0000
     28  C3C       19.5630   19.3990   99.6510 C.ar  113  HEM113      0.0000
     29  C4C       20.8170   18.7990   99.7970 C.ar  113  HEM113      0.0000
     30  CMC       17.8820   19.7720   97.7060 C.3   113  HEM113      0.0000
     31  CAC       18.7680   20.1480  100.7990 C.3   113  HEM113      0.0000
     32  CBC       17.4890   19.6550  101.0370 C.3   113  HEM113      0.0000
     33  ND        23.3670   17.3330  100.1530 N.2   113  HEM113      0.0000
     34  C1D       22.6910   17.9700  101.1500 C.2   113  HEM113      0.0000
     35  C2D       23.3770   17.8370  102.3980 C.2   113  HEM113      0.0000
     36  C3D       24.4280   17.0580  102.1470 C.2   113  HEM113      0.0000
     37  C4D       24.4520   16.7470  100.7430 C.2   113  HEM113      0.0000
     38  CMD       22.9040   18.4440  103.7330 C.3   113  HEM113      0.0000
     39  CAD       25.5060   16.5450  103.1420 C.3   113  HEM113      0.0000
     40  CBD       26.4210   17.6210  103.6700 C.3   113  HEM113      0.0000
     41  CGD       27.7990   17.5680  103.1350 C.2   113  HEM113      0.0000
     42  O1D       28.6260   18.4550  103.4720 O.co2 113  HEM113      0.0000
     43  O2D       28.0700   16.6020  102.3830 O.co2 113  HEM113      0.0000
@<TRIPOS>BOND
     1    22    19    1
     2    24    23    1
     3    23    20    1
     4    19    20    2
     5    19    18    1
     6    20    21    1
     7    18     3    1
     8    18    17    2
     9     3    10    2
    10    11     9    1
    11    21    17    1
    12    21     4    2
    13    17     1    1
    14     4    26    1
    15    10     9   ar
    16    10     6   ar
    17     9     8   ar
    18    26    27   ar
    19    26    25   ar
    20    30    27    1
    21     6     1    1
    22     6     7   ar
    23     8     7   ar
    24     8    12    1
    25     1    25    1
    26     1    33    1
    27    27    28   ar
    28    16    14   ar
    29    25    29   ar
    30     7     2    2
    31    12    13    1
    32    13    14    1
    33    14    15   ar
    34    28    29   ar
    35    28    31    1
    36    29     5    1
    37     2    37    1
    38    33    37    2
    39    33    34    1
    40    37    36    1
    41    31    32    1
    42     5    34    2
    43    34    35    1
    44    36    35    2
    45    36    39    1
    46    43    41   ar
    47    35    38    1
    48    41    42   ar
    49    41    40    1
    50    39    40    1
