@<TRIPOS>MOLECULE
1dw3_HEM_A_1.pdb
 43 50 0 0 0
SMALL
GASTEIGER

@<TRIPOS>ATOM
      1 FE         23.0550   17.4900   98.3400 Fe    113  HEM113      0.0000
      2  CHA       25.3760   15.9570  100.2960 C.2   113  HEM113      0.0000
      3  CHB       24.3610   15.9760   95.5460 C.2   113  HEM113      0.0000
      4  CHC       20.2440   18.2680   96.5050 C.2   113  HEM113      0.0000
      5  CHD       21.4970   18.7870  101.0850 C.2   113  HEM113      0.0000
      6  NA        24.5640   16.2250   97.9860 N.ar  113  HEM113      0.0000
      7  C1A       25.3830   15.6510   98.9440 C.ar  113  HEM113      0.0000
      8  C2A       26.2790   14.7590   98.2950 C.ar  113  HEM113      0.0000
      9  C3A       26.0160   14.7530   96.9910 C.ar  113  HEM113      0.0000
     10  C4A       24.9180   15.6740   96.7750 C.ar  113  HEM113      0.0000
     11  CMA       26.6800   13.9110   95.8710 C.3   113  HEM113      0.0000
     12  CAA       27.3790   13.9450   99.0510 C.3   113  HEM113      0.0000
     13  CBA       28.8000   14.5080   98.8900 C.3   113  HEM113      0.0000
     14  CGA       29.9230   13.7040   99.4500 C.2   113  HEM113      0.0000
     15  O1A       30.4640   14.2040  100.4740 O.co2 113  HEM113      0.0000
     16  O2A       30.1980   12.6620   98.8290 O.co2 113  HEM113      0.0000
     17  NB        22.4240   17.1990   96.4240 N.2   113  HEM113      0.0000
     18  C1B       23.1240   16.5620   95.4140 C.2   113  HEM113      0.0000
     19  C2B       22.3380   16.5390   94.1790 C.2   113  HEM113      0.0000
     20  C3B       21.1670   17.1260   94.4760 C.2   113  HEM113      0.0000
     21  C4B       21.2340   17.5920   95.8470 C.2   113  HEM113      0.0000
     22  CMB       22.8350   15.8720   92.8920 C.3   113  HEM113      0.0000
     23  CAB       19.9390   17.3250   93.5340 C.3   113  HEM113      0.0000
     24  CBB       19.3070   16.1320   93.2020 C.3   113  HEM113      0.0000
     25  NC        21.2140   18.3420   98.7200 N.ar  113  HEM113      0.0000
     26  C1C       20.2380   18.6610   97.8090 C.ar  113  HEM113      0.0000
     27  C2C       19.1860   19.4590   98.4600 C.ar  113  HEM113      0.0000
     28  C3C       19.5180   19.5400   99.7680 C.ar  113  HEM113      0.0000
     29  C4C       20.7780   18.8810   99.9190 C.ar  113  HEM113      0.0000
     30  CMC       17.9340   19.9420   97.7310 C.3   113  HEM113      0.0000
     31  CAC       18.7370   20.2480  100.9280 C.3   113  HEM113      0.0000
     32  CBC       17.5120   19.7730  101.3750 C.3   113  HEM113      0.0000
     33  ND        23.3640   17.3910  100.2920 N.2   113  HEM113      0.0000
     34  C1D       22.6350   18.0260  101.2920 C.2   113  HEM113      0.0000
     35  C2D       23.2980   17.8410  102.5440 C.2   113  HEM113      0.0000
     36  C3D       24.3620   17.0490  102.3160 C.2   113  HEM113      0.0000
     37  C4D       24.4470   16.7660  100.9140 C.2   113  HEM113      0.0000
     38  CMD       22.7650   18.3900  103.8670 C.3   113  HEM113      0.0000
     39  CAD       25.3410   16.4250  103.3370 C.3   113  HEM113      0.0000
     40  CBD       26.2620   17.4120  104.0540 C.3   113  HEM113      0.0000
     41  CGD       27.6160   17.4110  103.3690 C.2   113  HEM113      0.0000
     42  O1D       28.3790   18.3800  103.5190 O.co2 113  HEM113      0.0000
     43  O2D       27.9690   16.4370  102.6460 O.co2 113  HEM113      0.0000
@<TRIPOS>BOND
     1    22    19    1
     2    24    23    1
     3    23    20    1
     4    19    20    2
     5    19    18    1
     6    20    21    1
     7    18     3    1
     8    18    17    2
     9     3    10    2
    10    21    17    1
    11    21     4    2
    12    11     9    1
    13    17     1    1
    14     4    26    1
    15    10     9   ar
    16    10     6   ar
    17     9     8   ar
    18    30    27    1
    19    26    27   ar
    20    26    25   ar
    21     6     1    1
    22     6     7   ar
    23     8     7   ar
    24     8    12    1
    25     1    25    1
    26     1    33    1
    27    27    28   ar
    28    25    29   ar
    29    16    14   ar
    30    13    12    1
    31    13    14    1
    32     7     2    2
    33    14    15   ar
    34    28    29   ar
    35    28    31    1
    36    29     5    1
    37    33    37    2
    38    33    34    1
    39     2    37    1
    40    37    36    1
    41    31    32    1
    42     5    34    2
    43    34    35    1
    44    36    35    2
    45    36    39    1
    46    35    38    1
    47    43    41   ar
    48    39    40    1
    49    41    42   ar
    50    41    40    1
