@<TRIPOS>MOLECULE
1dwc_MIT_H_1.pdb
 35 37 0 0 0
SMALL
GASTEIGER

@<TRIPOS>ATOM
      1  S         28.7520   13.5130   25.6380 S.O2    1  MIT1        0.0784
      2  O1        28.5540   13.6490   27.0570 O.2     1  MIT1       -0.1515
      3  O2        27.6690   13.3990   24.6800 O.2     1  MIT1       -0.1515
      4  C1        31.7960   11.7570   28.2400 C.3     1  MIT1        0.1258
      5  C2        32.8640   10.9560   27.6000 C.3     1  MIT1        0.0287
      6  C3        32.2630    9.8270   26.8440 C.3     1  MIT1        0.0296
      7  C4        31.3110   10.3570   25.8650 C.2     1  MIT1       -0.0075
      8  C5        31.0580    9.6760   24.6800 C.2     1  MIT1       -0.0241
      9  C6        30.1090   10.2040   23.8000 C.3     1  MIT1        0.0532
     10  C7        29.3790   11.3580   24.1210 C.2     1  MIT1        0.0000
     11  C8        29.5620   11.9600   25.3330 C.2     1  MIT1        0.1364
     12  C9        30.5960   11.5460   26.2180 C.2     1  MIT1        0.0900
     13  C10       33.7940   10.4240   28.6730 C.3     1  MIT1        0.0024
     14  N         30.8260   12.2470   27.3000 N.2     1  MIT1       -0.2694
     15  N1        29.7320   14.8200   25.1830 N.3     1  MIT1       -0.0699
     16  CA        30.4930   14.8340   23.9360 C.3     1  MIT1        0.1738
     17  C         31.8340   14.1520   24.1210 C.2     1  MIT1        0.2437
     18  O         32.5200   14.2960   25.1110 O.2     1  MIT1       -0.2733
     19  CB        30.7090   16.2410   23.4460 C.3     1  MIT1        0.0324
     20  CG        30.9130   17.1700   24.5960 C.3     1  MIT1        0.0489
     21  CD        31.3610   18.5140   24.0090 C.3     1  MIT1        0.2205
     22  NE        31.5800   19.5010   25.0670 N.pl3   1  MIT1       -0.0865
     23  CZ        32.8380   19.8780   25.3590 C.cat   1  MIT1        0.5346
     24  NH1       33.8690   19.3020   24.6870 N.pl3   1  MIT1        0.1354
     25  NH2       33.0480   20.7010   26.4060 N.pl3   1  MIT1        0.1354
     26  N2        32.3370   13.5310   23.0090 N.am    1  MIT1       -0.2701
     27  C11       31.6320   13.5940   21.7350 C.3     1  MIT1        0.1790
     28  C21       31.5630   12.2080   21.0910 C.3     1  MIT1        0.0315
     29  C31       32.9310   11.6240   21.0310 C.3     1  MIT1        0.0039
     30  C41       33.5710   11.5970   22.4090 C.3     1  MIT1        0.0216
     31  C51       33.6280   12.9300   23.0790 C.3     1  MIT1        0.0939
     32  C61       32.2420   14.6520   20.8170 C.2     1  MIT1        0.3825
     33  O11       31.8780   14.5770   19.6490 O.co2   1  MIT1       -0.2438
     34  O21       32.5180   15.7230   21.3050 O.co2   1  MIT1       -0.2438
     35  C71       32.8000   10.2190   20.4830 C.3     1  MIT1        0.0001
@<TRIPOS>BOND
     1    33    32   ar
     2    35    29    1
     3    32    34   ar
     4    32    27    1
     5    29    28    1
     6    29    30    1
     7    28    27    1
     8    27    26    1
     9    30    31    1
    10    26    31    1
    11    26    17   am
    12    19    16    1
    13    19    20    1
    14     9    10    1
    15     9     8    1
    16    16    17    1
    17    16    15    1
    18    21    20    1
    19    21    22    1
    20    10    11    2
    21    17    18    2
    22     3     1    2
    23     8     7    2
    24    24    23    1
    25    22    23    2
    26    15     1    1
    27    11     1    1
    28    11    12    1
    29    23    25    1
    30     1     2    2
    31     7    12    1
    32     7     6    1
    33    12    14    2
    34     6     5    1
    35    14     4    1
    36     5     4    1
    37     5    13    1
