@<TRIPOS>MOLECULE
1dwe_0G6_H_1.pdb
 30 31 0 0 0
SMALL
GASTEIGER

@<TRIPOS>ATOM
      1  N         29.3350   13.6530   26.0510 N.3     1  0G61       -0.1228
      2  CA        30.3280   12.5940   26.1540 C.3     1  0G61        0.1721
      3  C         31.4870   13.0240   25.3180 C.2     1  0G61        0.2437
      4  O         31.9690   14.1320   25.4890 O.2     1  0G61       -0.2733
      5  CB        30.7360   12.3180   27.6470 C.3     1  0G61        0.0547
      6  CG        31.6850   11.1580   27.8270 C.ar    1  0G61       -0.0202
      7  CD1       31.3570    9.8750   27.4010 C.ar    1  0G61       -0.0042
      8  CD2       32.9350   11.3560   28.4240 C.ar    1  0G61       -0.0042
      9  CE1       32.2510    8.8090   27.5660 C.ar    1  0G61       -0.0003
     10  CE2       33.8420   10.3100   28.5810 C.ar    1  0G61       -0.0003
     11  CZ        33.4940    9.0270   28.1530 C.ar    1  0G61       -0.0000
     12  N1        31.9290   12.1860   24.4070 N.am    1  0G61       -0.2718
     13  CA1       33.0250   12.5830   23.5660 C.3     1  0G61        0.1535
     14  C1        32.6100   13.7800   22.7470 C.2     1  0G61        0.2595
     15  O1        31.4370   13.9060   22.3740 O.2     1  0G61       -0.2716
     16  CB1       33.2920   11.4440   22.6060 C.3     1  0G61        0.0310
     17  CG1       32.4530   10.2810   23.0870 C.3     1  0G61        0.0237
     18  CD        31.6470   10.7530   24.2910 C.3     1  0G61        0.0939
     19  N2        33.5740   14.6690   22.4740 N.am    1  0G61       -0.2032
     20  CA2       33.3200   15.8410   21.6780 C.3     1  0G61        0.1257
     21  C2        34.1930   15.7230   20.4380 C.3     1  0G61        0.1718
     22  O2        33.7740   16.5980   19.4390 O.3     1  0G61       -0.2213
     23  CB2       33.5680   17.1280   22.3930 C.3     1  0G61        0.0280
     24  CG2       32.4840   17.4610   23.3650 C.3     1  0G61        0.0488
     25  CD3       32.8330   18.7070   24.1570 C.3     1  0G61        0.2205
     26  NE        31.8090   19.1420   25.1150 N.pl3   1  0G61       -0.0865
     27  CZ1       32.0170   20.1400   25.9760 C.cat   1  0G61        0.5346
     28  NH1       33.1780   20.7870   26.0090 N.pl3   1  0G61        0.1354
     29  NH2       31.0480   20.5060   26.8190 N.pl3   1  0G61        0.1354
     30  C3        34.4440   14.2840   19.8000 C.3     1  0G61        0.0373
@<TRIPOS>BOND
     1    22    21    1
     2    30    21    1
     3    21    20    1
     4    20    23    1
     5    20    19    1
     6    15    14    2
     7    23    24    1
     8    19    14   am
     9    16    17    1
    10    16    13    1
    11    14    13    1
    12    17    18    1
    13    24    25    1
    14    13    12    1
    15    25    26    1
    16    18    12    1
    17    12     3   am
    18    26    27    2
    19     3     4    2
    20     3     2    1
    21    27    28    1
    22    27    29    1
    23     1     2    1
    24     2     5    1
    25     7     9   ar
    26     7     6   ar
    27     9    11   ar
    28     5     6    1
    29     6     8   ar
    30    11    10   ar
    31     8    10   ar
