@<TRIPOS>MOLECULE
1dwg_MAN_M_1.pdb
 11 11 0 0 0
SMALL
GASTEIGER

@<TRIPOS>ATOM
      1  C1        40.9590   88.9000   33.5070 C.3   956  MAN956      0.1777
      2  C2        42.4390   88.5250   33.4360 C.3   956  MAN956      0.2141
      3  C3        43.3050   88.9520   34.6240 C.3   956  MAN956      0.2173
      4  C4        43.1770   90.5090   34.6710 C.3   956  MAN956      0.2142
      5  C5        41.6390   90.7440   35.0190 C.3   956  MAN956      0.1810
      6  C6        41.3820   92.2510   34.9410 C.3   956  MAN956      0.2141
      7  O2        43.1550   89.0630   32.2950 O.3   956  MAN956     -0.2176
      8  O3        44.6940   88.6350   34.3090 O.3   956  MAN956     -0.2175
      9  O4        43.9150   91.0110   35.8120 O.3   956  MAN956     -0.2176
     10  O5        40.7760   90.2570   33.8610 O.3   956  MAN956     -0.3481
     11  O6        40.0590   92.4660   35.3860 O.3   956  MAN956     -0.2176
@<TRIPOS>BOND
     1     7     2    1
     2     2     1    1
     3     2     3    1
     4     1    10    1
     5    10     5    1
     6     8     3    1
     7     3     4    1
     8     4     5    1
     9     4     9    1
    10     6     5    1
    11     6    11    1
