@<TRIPOS>MOLECULE
1dwj_MAN_M_1.pdb
 11 11 0 0 0
SMALL
GASTEIGER

@<TRIPOS>ATOM
      1  C1        41.0070   88.5740   33.4000 C.3   956  MAN956      0.1777
      2  C2        42.4840   88.2200   33.2540 C.3   956  MAN956      0.2141
      3  C3        43.2890   88.7340   34.4610 C.3   956  MAN956      0.2173
      4  C4        43.0380   90.2390   34.6860 C.3   956  MAN956      0.2142
      5  C5        41.5150   90.5630   34.6750 C.3   956  MAN956      0.1810
      6  C6        41.2040   92.0660   34.6580 C.3   956  MAN956      0.2141
      7  O2        42.9720   88.7850   32.0580 O.3   956  MAN956     -0.2176
      8  O3        44.6870   88.5070   34.2410 O.3   956  MAN956     -0.2175
      9  O4        43.6050   90.6160   35.9440 O.3   956  MAN956     -0.2176
     10  O5        40.8590   89.9880   33.5130 O.3   956  MAN956     -0.3481
     11  O6        39.8870   92.3470   35.1510 O.3   956  MAN956     -0.2176
@<TRIPOS>BOND
     1     7     2    1
     2     2     1    1
     3     2     3    1
     4     1    10    1
     5    10     5    1
     6     8     3    1
     7     3     4    1
     8     6     5    1
     9     6    11    1
    10     5     4    1
    11     4     9    1
