@<TRIPOS>MOLECULE
1dwl_HEC_B_1.pdb
 47 54 0 0 0
SMALL
GASTEIGER

@<TRIPOS>ATOM
      1 FE         10.8850   12.0960    2.5040 Fe     80  HEC80       0.0000
      2  CHA       14.1120   11.4080    3.2130 C.2    80  HEC80       0.0000
      3  CHB       11.2860   15.2810    3.5210 C.2    80  HEC80       0.0000
      4  CHC        7.8510   12.8420    1.2540 C.2    80  HEC80       0.0000
      5  CHD       10.2470    8.8200    2.0460 C.2    80  HEC80       0.0000
      6  NA        12.3800   13.1260    3.2200 N.2    80  HEC80       0.0000
      7  C1A       13.6740   12.7000    3.4430 C.2    80  HEC80       0.0000
      8  C2A       14.4610   13.7320    4.0890 C.2    80  HEC80       0.0000
      9  C3A       13.6300   14.7950    4.2550 C.2    80  HEC80       0.0000
     10  C4A       12.3590   14.4230    3.6790 C.2    80  HEC80       0.0000
     11  CMA       13.9290   16.1040    4.9750 C.3    80  HEC80       0.0000
     12  CAA       15.9060   13.5970    4.5600 C.3    80  HEC80       0.0000
     13  CBA       16.9260   14.5550    3.9320 C.3    80  HEC80       0.0000
     14  CGA       17.2520   14.3030    2.4710 C.2    80  HEC80       0.0000
     15  O1A       17.7920   13.2100    2.1950 O.co2  80  HEC80       0.0000
     16  O2A       16.9740   15.2070    1.6550 O.co2  80  HEC80       0.0000
     17  NB         9.7720   13.7060    2.4580 N.ar   80  HEC80       0.0000
     18  C1B       10.0860   14.9610    2.9150 C.ar   80  HEC80       0.0000
     19  C2B        9.0310   15.9000    2.6080 C.ar   80  HEC80       0.0000
     20  C3B        8.0170   15.2100    2.0150 C.ar   80  HEC80       0.0000
     21  C4B        8.5210   13.8540    1.8990 C.ar   80  HEC80       0.0000
     22  CMB        9.0930   17.4030    2.8440 C.3    80  HEC80       0.0000
     23  CAB        6.5640   15.6860    1.8910 C.3    80  HEC80       0.0000
     24  CBB        6.3470   16.4790    0.6100 C.3    80  HEC80       0.0000
     25  NC         9.3690   11.0600    1.8370 N.2    80  HEC80       0.0000
     26  C1C        8.2360   11.5270    1.2320 C.2    80  HEC80       0.0000
     27  C2C        7.3750   10.4480    0.8290 C.2    80  HEC80       0.0000
     28  C3C        7.9230    9.2940    1.2880 C.2    80  HEC80       0.0000
     29  C4C        9.2060    9.6990    1.8440 C.2    80  HEC80       0.0000
     30  CMC        6.1090   10.5920   -0.0070 C.3    80  HEC80       0.0000
     31  CAC        7.0820    8.0690    1.6480 C.3    80  HEC80       0.0000
     32  CBC        7.1640    7.0240    0.5490 C.3    80  HEC80       0.0000
     33  ND        11.9700   10.4710    2.5280 N.ar   80  HEC80       0.0000
     34  C1D       11.5530    9.1780    2.3090 C.ar   80  HEC80       0.0000
     35  C2D       12.6500    8.2490    2.3880 C.ar   80  HEC80       0.0000
     36  C3D       13.7520    8.9700    2.7220 C.ar   80  HEC80       0.0000
     37  C4D       13.3180   10.3540    2.7950 C.ar   80  HEC80       0.0000
     38  CMD       12.5550    6.7610    2.0850 C.3    80  HEC80       0.0000
     39  CAD       15.1490    8.4580    3.0610 C.3    80  HEC80       0.0000
     40  CBD       16.0820    8.2640    1.8680 C.3    80  HEC80       0.0000
     41  CGD       16.1930    6.8310    1.3780 C.2    80  HEC80       0.0000
     42  O1D       16.8290    6.0170    2.0810 O.co2  80  HEC80       0.0000
     43  O2D       15.7140    6.5620    0.2570 O.co2  80  HEC80       0.0000
     44  HHA       15.1700   11.2030    3.3740 H      80  HEC80       0.0000
     45  HHB       11.3970   16.2940    3.9060 H      80  HEC80       0.0000
     46  HHC        6.9390   13.1070    0.7180 H      80  HEC80       0.0000
     47  HHD       10.0200    7.7550    1.9970 H      80  HEC80       0.0000
@<TRIPOS>BOND
     1    30    27    1
     2    43    41   ar
     3    32    31    1
     4    24    23    1
     5    46     4    1
     6    27    26    1
     7    27    28    2
     8    26     4    2
     9    26    25    1
    10     4    21    1
    11    28    31    1
    12    28    29    1
    13    41    40    1
    14    41    42   ar
    15    16    14   ar
    16    25    29    2
    17    25     1    1
    18    29     5    1
    19    40    39    1
    20    23    20    1
    21    21    20   ar
    22    21    17   ar
    23    47     5    1
    24    20    19   ar
    25     5    34    2
    26    38    35    1
    27    15    14   ar
    28    34    35   ar
    29    34    33   ar
    30    35    36   ar
    31    17     1    1
    32    17    18   ar
    33    14    13    1
    34     1    33    1
    35     1     6    1
    36    33    37   ar
    37    19    22    1
    38    19    18   ar
    39    36    37   ar
    40    36    39    1
    41    37     2    2
    42    18     3    1
    43     2    44    1
    44     2     7    1
    45     6     7    2
    46     6    10    1
    47     7     8    1
    48     3    10    2
    49     3    45    1
    50    10     9    1
    51    13    12    1
    52     8     9    2
    53     8    12    1
    54     9    11    1
