@<TRIPOS>MOLECULE
1dwr_HEM_A_1.pdb
 43 50 0 0 0
SMALL
GASTEIGER

@<TRIPOS>ATOM
      1 FE         14.3470   28.6590    5.0740 Fe    154  HEM154      0.0000
      2  CHA       15.6590   31.8980    5.3150 C.2   154  HEM154      0.0000
      3  CHB       13.4900   28.7530    8.4330 C.2   154  HEM154      0.0000
      4  CHC       13.1450   25.5050    4.9030 C.2   154  HEM154      0.0000
      5  CHD       15.2620   28.6160    1.8240 C.2   154  HEM154      0.0000
      6  NA        14.6230   30.1050    6.6750 N.2   154  HEM154      0.0000
      7  C1A       15.1660   31.3530    6.4970 C.2   154  HEM154      0.0000
      8  C2A       15.0080   31.9740    7.7870 C.2   154  HEM154      0.0000
      9  C3A       14.4000   31.1340    8.6580 C.2   154  HEM154      0.0000
     10  C4A       14.1320   29.8890    7.9530 C.2   154  HEM154      0.0000
     11  CMA       14.1000   31.3390   10.1200 C.3   154  HEM154      0.0000
     12  CAA       15.3640   33.4150    8.0620 C.3   154  HEM154      0.0000
     13  CBA       14.1320   34.3290    8.1840 C.3   154  HEM154      0.0000
     14  CGA       13.2530   34.3470    6.9250 C.2   154  HEM154      0.0000
     15  O1A       13.7530   34.7260    5.8390 O.co2 154  HEM154      0.0000
     16  O2A       12.0600   33.9610    7.0440 O.co2 154  HEM154      0.0000
     17  NB        13.4190   27.3390    6.5090 N.ar  154  HEM154      0.0000
     18  C1B       13.1750   27.5490    7.8130 C.ar  154  HEM154      0.0000
     19  C2B       12.6540   26.3420    8.4080 C.ar  154  HEM154      0.0000
     20  C3B       12.5530   25.4150    7.4140 C.ar  154  HEM154      0.0000
     21  C4B       13.0300   26.0550    6.1810 C.ar  154  HEM154      0.0000
     22  CMB       12.3230   26.1790    9.8990 C.3   154  HEM154      0.0000
     23  CAB       11.9950   24.1310    7.4890 C.3   154  HEM154      0.0000
     24  CBB       12.2120   23.0060    8.3850 C.3   154  HEM154      0.0000
     25  NC        14.1470   27.2070    3.4730 N.2   154  HEM154      0.0000
     26  C1C       13.6600   25.9770    3.6930 C.2   154  HEM154      0.0000
     27  C2C       13.9040   25.2780    2.4230 C.2   154  HEM154      0.0000
     28  C3C       14.5460   26.1690    1.5340 C.2   154  HEM154      0.0000
     29  C4C       14.6710   27.4370    2.2470 C.2   154  HEM154      0.0000
     30  CMC       13.4790   23.8220    2.2760 C.3   154  HEM154      0.0000
     31  CAC       15.1350   26.0710    0.2660 C.3   154  HEM154      0.0000
     32  CBC       15.1750   24.9260   -0.5120 C.3   154  HEM154      0.0000
     33  ND        15.2130   30.1010    3.7180 N.ar  154  HEM154      0.0000
     34  C1D       15.5150   29.8260    2.4330 C.ar  154  HEM154      0.0000
     35  C2D       16.2040   30.9460    1.8370 C.ar  154  HEM154      0.0000
     36  C3D       16.3400   31.8110    2.8560 C.ar  154  HEM154      0.0000
     37  C4D       15.6980   31.3170    4.0540 C.ar  154  HEM154      0.0000
     38  CMD       16.6490   31.0810    0.3870 C.3   154  HEM154      0.0000
     39  CAD       17.1760   33.0450    2.8390 C.3   154  HEM154      0.0000
     40  CBD       18.6500   32.7880    3.1350 C.3   154  HEM154      0.0000
     41  CGD       19.4420   34.0740    3.1180 C.2   154  HEM154      0.0000
     42  O1D       19.7760   34.5960    4.1840 O.co2 154  HEM154      0.0000
     43  O2D       19.7330   34.6080    2.0300 O.co2 154  HEM154      0.0000
@<TRIPOS>BOND
     1    32    31    1
     2    31    28    1
     3    38    35    1
     4    28    29    1
     5    28    27    2
     6     5    29    1
     7     5    34    2
     8    35    34   ar
     9    35    36   ar
    10    43    41   ar
    11    29    25    2
    12    30    27    1
    13    27    26    1
    14    34    33   ar
    15    39    36    1
    16    39    40    1
    17    36    37   ar
    18    41    40    1
    19    41    42   ar
    20    25    26    1
    21    25     1    1
    22    26     4    2
    23    33    37   ar
    24    33     1    1
    25    37     2    2
    26     4    21    1
    27     1    17    1
    28     1     6    1
    29     2     7    1
    30    15    14   ar
    31    21    17   ar
    32    21    20   ar
    33     7     6    2
    34     7     8    1
    35    17    18   ar
    36     6    10    1
    37    14    16   ar
    38    14    13    1
    39    20    23    1
    40    20    19   ar
    41    23    24    1
    42     8    12    1
    43     8     9    2
    44    18    19   ar
    45    18     3    1
    46    10     3    2
    47    10     9    1
    48    12    13    1
    49    19    22    1
    50     9    11    1
