@<TRIPOS>MOLECULE
1dws_HEM_A_1.pdb
 43 50 0 0 0
SMALL
GASTEIGER

@<TRIPOS>ATOM
      1 FE         14.1270   28.6890    5.1170 Fe    154  HEM154      0.0000
      2  CHA       15.5320   31.7630    5.4060 C.2   154  HEM154      0.0000
      3  CHB       13.4850   28.6570    8.5800 C.2   154  HEM154      0.0000
      4  CHC       13.1140   25.4390    4.9670 C.2   154  HEM154      0.0000
      5  CHD       15.2470   28.4920    1.8590 C.2   154  HEM154      0.0000
      6  NA        14.5070   29.9820    6.7390 N.2   154  HEM154      0.0000
      7  C1A       15.0160   31.2430    6.5860 C.2   154  HEM154      0.0000
      8  C2A       14.9100   31.9400    7.8560 C.2   154  HEM154      0.0000
      9  C3A       14.3350   31.0720    8.7520 C.2   154  HEM154      0.0000
     10  C4A       14.0870   29.8250    8.0510 C.2   154  HEM154      0.0000
     11  CMA       13.9670   31.3420   10.2030 C.3   154  HEM154      0.0000
     12  CAA       15.2520   33.4070    8.0770 C.3   154  HEM154      0.0000
     13  CBA       14.0590   34.3600    8.1430 C.3   154  HEM154      0.0000
     14  CGA       13.2010   34.3270    6.8850 C.2   154  HEM154      0.0000
     15  O1A       13.7110   34.6940    5.8020 O.co2 154  HEM154      0.0000
     16  O2A       12.0180   33.9310    6.9860 O.co2 154  HEM154      0.0000
     17  NB        13.4430   27.2600    6.5630 N.ar  154  HEM154      0.0000
     18  C1B       13.1860   27.4660    7.9070 C.ar  154  HEM154      0.0000
     19  C2B       12.5800   26.2740    8.4640 C.ar  154  HEM154      0.0000
     20  C3B       12.4970   25.3400    7.4490 C.ar  154  HEM154      0.0000
     21  C4B       13.0250   25.9910    6.2540 C.ar  154  HEM154      0.0000
     22  CMB       12.1280   26.1490    9.9050 C.3   154  HEM154      0.0000
     23  CAB       12.0550   24.0280    7.5110 C.3   154  HEM154      0.0000
     24  CBB       12.3160   23.0500    8.5790 C.3   154  HEM154      0.0000
     25  NC        14.1030   27.2240    3.5940 N.2   154  HEM154      0.0000
     26  C1C       13.6010   25.9570    3.7650 C.2   154  HEM154      0.0000
     27  C2C       13.7890   25.2200    2.5310 C.2   154  HEM154      0.0000
     28  C3C       14.4270   26.0870    1.6370 C.2   154  HEM154      0.0000
     29  C4C       14.6090   27.3440    2.3390 C.2   154  HEM154      0.0000
     30  CMC       13.3340   23.7730    2.3500 C.3   154  HEM154      0.0000
     31  CAC       14.8460   25.9060    0.3250 C.3   154  HEM154      0.0000
     32  CBC       15.2440   24.6720   -0.2480 C.3   154  HEM154      0.0000
     33  ND        15.1910   29.9030    3.8410 N.ar  154  HEM154      0.0000
     34  C1D       15.5200   29.6800    2.5300 C.ar  154  HEM154      0.0000
     35  C2D       16.1870   30.8490    1.9840 C.ar  154  HEM154      0.0000
     36  C3D       16.2940   31.7360    2.9910 C.ar  154  HEM154      0.0000
     37  C4D       15.6440   31.1650    4.1520 C.ar  154  HEM154      0.0000
     38  CMD       16.5990   31.0810    0.5390 C.3   154  HEM154      0.0000
     39  CAD       17.0520   33.0440    2.9400 C.3   154  HEM154      0.0000
     40  CBD       18.5440   32.8340    3.1510 C.3   154  HEM154      0.0000
     41  CGD       19.3200   34.1300    3.1370 C.2   154  HEM154      0.0000
     42  O1D       19.4720   34.7200    2.0530 O.co2 154  HEM154      0.0000
     43  O2D       19.7820   34.5670    4.2080 O.co2 154  HEM154      0.0000
@<TRIPOS>BOND
     1    32    31    1
     2    31    28    1
     3    38    35    1
     4    28    29    1
     5    28    27    2
     6     5    29    1
     7     5    34    2
     8    35    34   ar
     9    35    36   ar
    10    42    41   ar
    11    29    25    2
    12    30    27    1
    13    34    33   ar
    14    27    26    1
    15    39    36    1
    16    39    40    1
    17    36    37   ar
    18    41    40    1
    19    41    43   ar
    20    25    26    1
    21    25     1    1
    22    26     4    2
    23    33    37   ar
    24    33     1    1
    25    37     2    2
    26     4    21    1
    27     1    17    1
    28     1     6    1
    29     2     7    1
    30    15    14   ar
    31    21    17   ar
    32    21    20   ar
    33    17    18   ar
    34     7     6    2
    35     7     8    1
    36     6    10    1
    37    14    16   ar
    38    14    13    1
    39    20    23    1
    40    20    19   ar
    41    23    24    1
    42     8    12    1
    43     8     9    2
    44    18    19   ar
    45    18     3    1
    46    10     3    2
    47    10     9    1
    48    12    13    1
    49    19    22    1
    50     9    11    1
