@<TRIPOS>MOLECULE
1dwt_HEM_A_1.pdb
 43 50 0 0 0
SMALL
GASTEIGER

@<TRIPOS>ATOM
      1 FE         14.1210   28.7080    5.1300 Fe    154  HEM154      0.0000
      2  CHA       15.4840   31.7980    5.4200 C.2   154  HEM154      0.0000
      3  CHB       13.4220   28.6910    8.5580 C.2   154  HEM154      0.0000
      4  CHC       13.1660   25.4220    4.9850 C.2   154  HEM154      0.0000
      5  CHD       15.1470   28.5550    1.8720 C.2   154  HEM154      0.0000
      6  NA        14.5180   30.0080    6.7310 N.2   154  HEM154      0.0000
      7  C1A       14.9940   31.2710    6.5910 C.2   154  HEM154      0.0000
      8  C2A       14.8410   31.9720    7.8410 C.2   154  HEM154      0.0000
      9  C3A       14.2650   31.1000    8.7240 C.2   154  HEM154      0.0000
     10  C4A       14.0490   29.8510    8.0340 C.2   154  HEM154      0.0000
     11  CMA       13.9130   31.3590   10.1750 C.3   154  HEM154      0.0000
     12  CAA       15.1890   33.4300    8.0780 C.3   154  HEM154      0.0000
     13  CBA       13.9920   34.3770    8.1690 C.3   154  HEM154      0.0000
     14  CGA       13.1020   34.3490    6.9300 C.2   154  HEM154      0.0000
     15  O1A       13.5760   34.7530    5.8420 O.co2 154  HEM154      0.0000
     16  O2A       11.9280   33.9230    7.0500 O.co2 154  HEM154      0.0000
     17  NB        13.4010   27.3080    6.5500 N.ar  154  HEM154      0.0000
     18  C1B       13.1250   27.5060    7.8970 C.ar  154  HEM154      0.0000
     19  C2B       12.5590   26.2970    8.4620 C.ar  154  HEM154      0.0000
     20  C3B       12.5160   25.3580    7.4540 C.ar  154  HEM154      0.0000
     21  C4B       13.0390   26.0120    6.2540 C.ar  154  HEM154      0.0000
     22  CMB       12.0790   26.1570    9.8870 C.3   154  HEM154      0.0000
     23  CAB       12.0520   24.0510    7.4760 C.3   154  HEM154      0.0000
     24  CBB       12.2760   23.0090    8.4490 C.3   154  HEM154      0.0000
     25  NC        14.1210   27.2280    3.6220 N.2   154  HEM154      0.0000
     26  C1C       13.6640   25.9490    3.7940 C.2   154  HEM154      0.0000
     27  C2C       13.8710   25.2170    2.5780 C.2   154  HEM154      0.0000
     28  C3C       14.4510   26.0450    1.6780 C.2   154  HEM154      0.0000
     29  C4C       14.5970   27.3580    2.3430 C.2   154  HEM154      0.0000
     30  CMC       13.4810   23.7750    2.3210 C.3   154  HEM154      0.0000
     31  CAC       14.8250   25.6010    0.4000 C.3   154  HEM154      0.0000
     32  CBC       15.4630   26.4000   -0.5340 C.3   154  HEM154      0.0000
     33  ND        15.1540   29.9660    3.8620 N.ar  154  HEM154      0.0000
     34  C1D       15.3990   29.7700    2.5300 C.ar  154  HEM154      0.0000
     35  C2D       16.0120   30.9550    1.9930 C.ar  154  HEM154      0.0000
     36  C3D       16.1590   31.8280    3.0120 C.ar  154  HEM154      0.0000
     37  C4D       15.5860   31.2190    4.1820 C.ar  154  HEM154      0.0000
     38  CMD       16.3800   31.2350    0.5430 C.3   154  HEM154      0.0000
     39  CAD       16.9170   33.1290    2.9850 C.3   154  HEM154      0.0000
     40  CBD       18.3950   32.8920    3.2240 C.3   154  HEM154      0.0000
     41  CGD       19.1860   34.1700    3.2630 C.2   154  HEM154      0.0000
     42  O1D       19.6930   34.5730    2.2050 O.co2 154  HEM154      0.0000
     43  O2D       19.3030   34.7840    4.3440 O.co2 154  HEM154      0.0000
@<TRIPOS>BOND
     1    32    31    1
     2    31    28    1
     3    38    35    1
     4    28    29    1
     5    28    27    2
     6     5    29    1
     7     5    34    2
     8    35    34   ar
     9    35    36   ar
    10    42    41   ar
    11    30    27    1
    12    29    25    2
    13    34    33   ar
    14    27    26    1
    15    39    36    1
    16    39    40    1
    17    36    37   ar
    18    40    41    1
    19    41    43   ar
    20    25    26    1
    21    25     1    1
    22    26     4    2
    23    33    37   ar
    24    33     1    1
    25    37     2    2
    26     4    21    1
    27     1    17    1
    28     1     6    1
    29     2     7    1
    30    15    14   ar
    31    21    17   ar
    32    21    20   ar
    33    17    18   ar
    34     7     6    2
    35     7     8    1
    36     6    10    1
    37    14    16   ar
    38    14    13    1
    39    20    23    1
    40    20    19   ar
    41    23    24    1
    42     8    12    1
    43     8     9    2
    44    18    19   ar
    45    18     3    1
    46    10     3    2
    47    10     9    1
    48    12    13    1
    49    19    22    1
    50     9    11    1
