@<TRIPOS>MOLECULE
1dwv_HAR_A_1.pdb
 13 12 0 0 0
SMALL
GASTEIGER

@<TRIPOS>ATOM
      1  N        120.4230  115.1360   35.1940 N.3   909  HAR909     -0.1208
      2  CA       121.6350  115.3650   35.9720 C.3   909  HAR909      0.1944
      3  C        121.7670  116.8370   36.3610 C.2   909  HAR909      0.3819
      4  O        121.1600  117.6750   35.6730 O.co2 909  HAR909     -0.2441
      5  CB       122.8570  114.9240   35.1680 C.3   909  HAR909      0.0343
      6  CG       122.7130  113.5490   34.5760 C.3   909  HAR909      0.0490
      7  CD       123.7070  113.3040   33.4350 C.3   909  HAR909      0.2205
      8  NE       123.5810  114.3240   32.3970 N.pl3 909  HAR909     -0.0871
      9  CZ       124.1230  114.2170   31.1830 C.2   909  HAR909      0.5283
     10  NH1      124.8070  113.1100   30.8430 N.4   909  HAR909      0.1134
     11  NH2      123.9700  115.1960   30.2780 N.pl3 909  HAR909      0.1348
     12  OH1      125.6700  113.1610   29.8230 O.3   909  HAR909      0.0294
     13  OXT      122.4730  117.1370   37.3450 O.co2 909  HAR909     -0.2441
@<TRIPOS>BOND
     1    12    10    1
     2    11     9    2
     3    10     9    1
     4     9     8    1
     5     8     7    1
     6     7     6    1
     7     6     5    1
     8     5     2    1
     9     1     2    1
    10     4     3   ar
    11     2     3    1
    12     3    13   ar
