@<TRIPOS>MOLECULE
1dwv_HEM_A_1.pdb
 43 50 0 0 0
SMALL
GASTEIGER

@<TRIPOS>ATOM
      1 FE        123.7910  110.9920   28.0010 Fe    901  HEM901      0.0000
      2  CHA      121.3160  110.1460   30.3160 C.2   901  HEM901      0.0000
      3  CHB      122.3570  114.0230   27.6270 C.2   901  HEM901      0.0000
      4  CHC      126.6980  112.2240   26.6730 C.2   901  HEM901      0.0000
      5  CHD      125.3530  108.1120   28.8530 C.2   901  HEM901      0.0000
      6  NA       122.1710  111.8970   28.8290 N.ar  901  HEM901      0.0000
      7  C1A      121.2740  111.4070   29.7540 C.ar  901  HEM901      0.0000
      8  C2A      120.2520  112.3910   30.0380 C.ar  901  HEM901      0.0000
      9  C3A      120.4740  113.4810   29.2430 C.ar  901  HEM901      0.0000
     10  C4A      121.6940  113.1630   28.5050 C.ar  901  HEM901      0.0000
     11  CMA      119.5410  114.6810   29.0820 C.3   901  HEM901      0.0000
     12  CAA      119.2100  112.2840   31.1310 C.3   901  HEM901      0.0000
     13  CBA      119.7460  112.7700   32.4850 C.3   901  HEM901      0.0000
     14  CGA      118.7060  112.6800   33.5840 C.2   901  HEM901      0.0000
     15  O1A      119.0670  112.3410   34.7300 O.co2 901  HEM901      0.0000
     16  O2A      117.5180  112.9360   33.3060 O.co2 901  HEM901      0.0000
     17  NB       124.3580  112.7170   27.1480 N.2   901  HEM901      0.0000
     18  C1B      123.5720  113.8140   26.9970 C.2   901  HEM901      0.0000
     19  C2B      124.2510  114.8420   26.2690 C.2   901  HEM901      0.0000
     20  C3B      125.5130  114.3680   25.9880 C.2   901  HEM901      0.0000
     21  C4B      125.5650  113.0360   26.5770 C.2   901  HEM901      0.0000
     22  CMB      123.6850  116.2480   26.0010 C.3   901  HEM901      0.0000
     23  CAB      126.5330  115.1130   25.3670 C.3   901  HEM901      0.0000
     24  CBB      127.5940  114.6320   24.6220 C.3   901  HEM901      0.0000
     25  NC       125.6580  110.3220   27.7770 N.ar  901  HEM901      0.0000
     26  C1C      126.7530  110.9750   27.2690 C.ar  901  HEM901      0.0000
     27  C2C      127.9320  110.1480   27.3840 C.ar  901  HEM901      0.0000
     28  C3C      127.5260  108.9410   27.9430 C.ar  901  HEM901      0.0000
     29  C4C      126.1080  109.0810   28.1730 C.ar  901  HEM901      0.0000
     30  CMC      129.3220  110.6290   26.9380 C.3   901  HEM901      0.0000
     31  CAC      128.2270  107.7670   28.2480 C.3   901  HEM901      0.0000
     32  CBC      129.4440  107.4100   27.6670 C.3   901  HEM901      0.0000
     33  ND       123.3470  109.3850   29.2120 N.2   901  HEM901      0.0000
     34  C1D      124.0790  108.2380   29.3290 C.2   901  HEM901      0.0000
     35  C2D      123.4400  107.2910   30.2160 C.2   901  HEM901      0.0000
     36  C3D      122.3520  107.8640   30.6850 C.2   901  HEM901      0.0000
     37  C4D      122.2810  109.1890   30.0580 C.2   901  HEM901      0.0000
     38  CMD      123.8540  105.8710   30.5370 C.3   901  HEM901      0.0000
     39  CAD      121.4220  107.2360   31.7410 C.3   901  HEM901      0.0000
     40  CBD      121.5450  107.9360   33.0840 C.3   901  HEM901      0.0000
     41  CGD      120.5600  107.4340   34.1010 C.2   901  HEM901      0.0000
     42  O1D      120.5210  107.9820   35.2200 O.co2 901  HEM901      0.0000
     43  O2D      119.7980  106.5050   33.7850 O.co2 901  HEM901      0.0000
@<TRIPOS>BOND
     1    24    23    1
     2    23    20    1
     3    20    19    2
     4    20    21    1
     5    22    19    1
     6    19    18    1
     7    21     4    2
     8    21    17    1
     9     4    26    1
    10    30    27    1
    11    18    17    2
    12    18     3    1
    13    17     1    1
    14    26    27   ar
    15    26    25   ar
    16    27    28   ar
    17     3    10    2
    18    32    31    1
    19    25     1    1
    20    25    29   ar
    21    28    29   ar
    22    28    31    1
    23     1     6    1
    24     1    33    1
    25    29     5    1
    26    10     6   ar
    27    10     9   ar
    28     6     7   ar
    29     5    34    2
    30    11     9    1
    31    33    34    1
    32    33    37    2
    33     9     8   ar
    34    34    35    1
    35     7     8   ar
    36     7     2    2
    37     8    12    1
    38    37     2    1
    39    37    36    1
    40    35    38    1
    41    35    36    2
    42    36    39    1
    43    12    13    1
    44    39    40    1
    45    13    14    1
    46    40    41    1
    47    16    14   ar
    48    14    15   ar
    49    43    41   ar
    50    41    42   ar
