@<TRIPOS>MOLECULE
1dwv_4AB_A_1.pdb
 17 18 0 0 0
SMALL
GASTEIGER

@<TRIPOS>ATOM
      1  N1       113.3570  111.4760   32.1020 N.2   902  4AB902     -0.2684
      2  C2       114.6170  111.8490   32.3610 C.1   902  4AB902      0.2519
      3  N2       115.3800  112.2830   31.3610 N.pl3 902  4AB902     -0.0226
      4  N3       115.1120  111.8310   33.5940 N.2   902  4AB902     -0.3033
      5  C4       114.3560  111.4470   34.6130 C.2   902  4AB902      0.2728
      6  NH4      114.8060  111.5260   35.8420 N.pl3 902  4AB902     -0.0887
      7  C4A      113.0810  110.9560   34.3940 C.2   902  4AB902      0.2518
      8  C8A      112.5750  111.0270   33.0860 C.1   902  4AB902      0.1315
      9  N5       112.3880  110.4280   35.4030 N.2   902  4AB902     -0.3908
     10  N8       111.3190  110.6380   32.8300 N.2   902  4AB902     -0.1997
     11  C6       111.0790  109.8660   35.1370 C.2   902  4AB902      0.1458
     12  C7       110.4400  110.3110   33.8940 C.3   902  4AB902      0.1940
     13  C9       110.3440  109.5360   36.4080 C.3   902  4AB902      0.2313
     14  O9       109.9820  110.7380   37.1010 O.3   902  4AB902     -0.2130
     15  C10      109.1220  108.6710   36.1520 C.3   902  4AB902      0.1888
     16  C11      108.3710  108.3560   37.4510 C.3   902  4AB902      0.0387
     17  O10      109.5390  107.4500   35.5260 O.3   902  4AB902     -0.2200
@<TRIPOS>BOND
     1     3     2    1
     2     1     2    2
     3     1     8    2
     4     2     4    2
     5    10     8    2
     6    10    12    1
     7     8     7    1
     8     4     5    2
     9    12    11    1
    10     7     5    1
    11     7     9    2
    12     5     6    1
    13    11     9    2
    14    11    13    1
    15    17    15    1
    16    15    13    1
    17    15    16    1
    18    13    14    1
