@<TRIPOS>MOLECULE
1dww_HAR_A_1.pdb
 13 12 0 0 0
SMALL
GASTEIGER

@<TRIPOS>ATOM
      1  N        120.4730  114.9900   34.9810 N.3   909  HAR909     -0.1208
      2  CA       121.7010  115.1040   35.7610 C.3   909  HAR909      0.1944
      3  C        121.8660  116.5300   36.3020 C.2   909  HAR909      0.3819
      4  O        121.0800  117.4130   35.8890 O.co2 909  HAR909     -0.2441
      5  CB       122.9050  114.7480   34.8910 C.3   909  HAR909      0.0343
      6  CG       122.8400  113.3820   34.2640 C.3   909  HAR909      0.0490
      7  CD       123.7920  113.2970   33.1000 C.3   909  HAR909      0.2205
      8  NE       123.5430  114.3360   32.1020 N.pl3 909  HAR909     -0.0871
      9  CZ       124.2260  114.4670   30.9690 C.2   909  HAR909      0.5283
     10  NH1      125.1800  113.6000   30.6690 N.4   909  HAR909      0.1134
     11  NH2      123.9340  115.4530   30.1240 N.pl3 909  HAR909      0.1348
     12  OH1      125.9970  113.8280   29.6410 O.3   909  HAR909      0.0294
     13  OXT      122.7880  116.7510   37.1230 O.co2 909  HAR909     -0.2441
@<TRIPOS>BOND
     1    12    10    1
     2    11     9    2
     3    10     9    1
     4     9     8    1
     5     8     7    1
     6     7     6    1
     7     6     5    1
     8     5     2    1
     9     1     2    1
    10     2     3    1
    11     4     3   ar
    12     3    13   ar
