@<TRIPOS>MOLECULE
1dww_H2B_A_1.pdb
 17 18 0 0 0
SMALL
GASTEIGER

@<TRIPOS>ATOM
      1  N1       113.3830  111.4290   32.1660 N.2   902  H2B902     -0.2672
      2  C2       114.6300  111.8470   32.3990 C.1   902  H2B902      0.2609
      3  N2       115.3720  112.2860   31.3640 N.pl3 902  H2B902     -0.0220
      4  N3       115.1390  111.8880   33.6380 N.2   902  H2B902     -0.2466
      5  C4       114.4330  111.4460   34.6760 C.1   902  H2B902      0.2569
      6  O4       114.8630  111.4170   35.8200 O.2   902  H2B902     -0.2052
      7  C4A      113.1250  110.9950   34.4930 C.2   902  H2B902      0.2989
      8  C8A      112.6190  110.9870   33.1660 C.1   902  H2B902      0.1401
      9  N5       112.4290  110.5020   35.5140 N.2   902  H2B902     -0.3830
     10  N8       111.4010  110.4990   32.9100 N.2   902  H2B902     -0.1992
     11  C6       111.1160  109.9640   35.2660 C.2   902  H2B902      0.1466
     12  C7       110.5320  110.1880   33.9460 C.3   902  H2B902      0.1940
     13  C9       110.3380  109.6470   36.5420 C.3   902  H2B902      0.2313
     14  O9       109.7810  110.8480   37.0770 O.3   902  H2B902     -0.2130
     15  C10      109.2140  108.6410   36.2510 C.3   902  H2B902      0.1888
     16  C11      108.4180  108.3720   37.5030 C.3   902  H2B902      0.0387
     17  O10      109.7980  107.4180   35.7780 O.3   902  H2B902     -0.2200
@<TRIPOS>BOND
     1     3     2    1
     2     1     2    2
     3     1     8    2
     4     2     4    2
     5    10     8    2
     6    10    12    1
     7     8     7    1
     8     4     5    2
     9    12    11    1
    10     7     5    1
    11     7     9    2
    12     5     6    2
    13    11     9    2
    14    11    13    1
    15    17    15    1
    16    15    13    1
    17    15    16    1
    18    13    14    1
