@<TRIPOS>MOLECULE
1dww_HEM_A_1.pdb
 43 50 0 0 0
SMALL
GASTEIGER

@<TRIPOS>ATOM
      1 FE        123.7710  111.0040   27.9790 Fe    901  HEM901      0.0000
      2  CHA      121.3470  110.2370   30.3040 C.2   901  HEM901      0.0000
      3  CHB      122.4070  114.0870   27.6600 C.2   901  HEM901      0.0000
      4  CHC      126.7590  112.2060   26.5830 C.2   901  HEM901      0.0000
      5  CHD      125.3720  108.1460   28.8940 C.2   901  HEM901      0.0000
      6  NA       122.2410  111.9980   28.8540 N.ar  901  HEM901      0.0000
      7  C1A      121.3100  111.5010   29.7630 C.ar  901  HEM901      0.0000
      8  C2A      120.2550  112.4470   30.0360 C.ar  901  HEM901      0.0000
      9  C3A      120.5010  113.5190   29.2460 C.ar  901  HEM901      0.0000
     10  C4A      121.7490  113.2530   28.5170 C.ar  901  HEM901      0.0000
     11  CMA      119.5210  114.6800   29.1290 C.3   901  HEM901      0.0000
     12  CAA      119.1800  112.3630   31.1110 C.3   901  HEM901      0.0000
     13  CBA      119.7700  112.7300   32.4840 C.3   901  HEM901      0.0000
     14  CGA      118.7340  112.7360   33.5810 C.2   901  HEM901      0.0000
     15  O1A      119.0960  112.5710   34.7700 O.co2 901  HEM901      0.0000
     16  O2A      117.5400  112.9070   33.2600 O.co2 901  HEM901      0.0000
     17  NB       124.4300  112.7450   27.1770 N.2   901  HEM901      0.0000
     18  C1B      123.6460  113.8570   27.0300 C.2   901  HEM901      0.0000
     19  C2B      124.3230  114.8430   26.2550 C.2   901  HEM901      0.0000
     20  C3B      125.5710  114.3710   25.9270 C.2   901  HEM901      0.0000
     21  C4B      125.6280  113.0380   26.5400 C.2   901  HEM901      0.0000
     22  CMB      123.6860  116.2100   25.9530 C.3   901  HEM901      0.0000
     23  CAB      126.5730  115.0940   25.2580 C.3   901  HEM901      0.0000
     24  CBB      127.5400  114.6550   24.3300 C.3   901  HEM901      0.0000
     25  NC       125.6760  110.3370   27.7860 N.ar  901  HEM901      0.0000
     26  C1C      126.7930  110.9610   27.2040 C.ar  901  HEM901      0.0000
     27  C2C      127.9650  110.1120   27.3100 C.ar  901  HEM901      0.0000
     28  C3C      127.5290  108.9360   27.9220 C.ar  901  HEM901      0.0000
     29  C4C      126.1230  109.0960   28.2050 C.ar  901  HEM901      0.0000
     30  CMC      129.3860  110.5480   26.9150 C.3   901  HEM901      0.0000
     31  CAC      128.2150  107.7770   28.2420 C.3   901  HEM901      0.0000
     32  CBC      129.3900  107.3940   27.6090 C.3   901  HEM901      0.0000
     33  ND       123.3880  109.4420   29.2470 N.2   901  HEM901      0.0000
     34  C1D      124.0980  108.2850   29.3680 C.2   901  HEM901      0.0000
     35  C2D      123.4210  107.3440   30.2280 C.2   901  HEM901      0.0000
     36  C3D      122.3260  107.9670   30.6890 C.2   901  HEM901      0.0000
     37  C4D      122.3020  109.2660   30.0700 C.2   901  HEM901      0.0000
     38  CMD      123.7360  105.8890   30.4810 C.3   901  HEM901      0.0000
     39  CAD      121.3370  107.4150   31.7060 C.3   901  HEM901      0.0000
     40  CBD      121.6220  107.9400   33.1050 C.3   901  HEM901      0.0000
     41  CGD      120.6350  107.4410   34.1220 C.2   901  HEM901      0.0000
     42  O1D      120.5240  108.0460   35.2100 O.co2 901  HEM901      0.0000
     43  O2D      119.9560  106.4390   33.8340 O.co2 901  HEM901      0.0000
@<TRIPOS>BOND
     1    24    23    1
     2    23    20    1
     3    20    19    2
     4    20    21    1
     5    22    19    1
     6    19    18    1
     7    21     4    2
     8    21    17    1
     9     4    26    1
    10    30    27    1
    11    18    17    2
    12    18     3    1
    13    17     1    1
    14    26    27   ar
    15    26    25   ar
    16    27    28   ar
    17    32    31    1
    18     3    10    2
    19    25     1    1
    20    25    29   ar
    21    28    29   ar
    22    28    31    1
    23     1     6    1
    24     1    33    1
    25    29     5    1
    26    10     6   ar
    27    10     9   ar
    28     6     7   ar
    29     5    34    2
    30    11     9    1
    31     9     8   ar
    32    33    34    1
    33    33    37    2
    34    34    35    1
    35     7     8   ar
    36     7     2    2
    37     8    12    1
    38    37     2    1
    39    37    36    1
    40    35    38    1
    41    35    36    2
    42    36    39    1
    43    12    13    1
    44    39    40    1
    45    13    14    1
    46    40    41    1
    47    16    14   ar
    48    14    15   ar
    49    43    41   ar
    50    41    42   ar
