@<TRIPOS>MOLECULE
1dwx_HEM_A_1.pdb
 43 50 0 0 0
SMALL
GASTEIGER

@<TRIPOS>ATOM
      1 FE        123.7660  111.0200   27.9120 Fe    901  HEM901      0.0000
      2  CHA      121.3720  110.3030   30.2520 C.2   901  HEM901      0.0000
      3  CHB      122.4220  114.1610   27.5920 C.2   901  HEM901      0.0000
      4  CHC      126.7090  112.2830   26.6770 C.2   901  HEM901      0.0000
      5  CHD      125.4470  108.2060   28.9210 C.2   901  HEM901      0.0000
      6  NA       122.2670  112.0480   28.8200 N.ar  901  HEM901      0.0000
      7  C1A      121.3550  111.5740   29.7010 C.ar  901  HEM901      0.0000
      8  C2A      120.3140  112.5610   29.9120 C.ar  901  HEM901      0.0000
      9  C3A      120.5690  113.6140   29.1110 C.ar  901  HEM901      0.0000
     10  C4A      121.7910  113.2910   28.4480 C.ar  901  HEM901      0.0000
     11  CMA      119.7110  114.8500   28.8660 C.3   901  HEM901      0.0000
     12  CAA      119.2050  112.4730   30.9090 C.3   901  HEM901      0.0000
     13  CBA      119.7990  112.8930   32.2280 C.3   901  HEM901      0.0000
     14  CGA      118.7960  112.8470   33.3580 C.2   901  HEM901      0.0000
     15  O1A      119.1390  112.3130   34.4370 O.co2 901  HEM901      0.0000
     16  O2A      117.6650  113.3450   33.1640 O.co2 901  HEM901      0.0000
     17  NB       124.4500  112.8570   27.3050 N.2   901  HEM901      0.0000
     18  C1B      123.6480  113.9500   27.0410 C.2   901  HEM901      0.0000
     19  C2B      124.2960  114.9040   26.1740 C.2   901  HEM901      0.0000
     20  C3B      125.5540  114.4120   25.9070 C.2   901  HEM901      0.0000
     21  C4B      125.6300  113.1310   26.6410 C.2   901  HEM901      0.0000
     22  CMB      123.6540  116.2020   25.6790 C.3   901  HEM901      0.0000
     23  CAB      126.4800  115.0480   25.0910 C.3   901  HEM901      0.0000
     24  CBB      127.7240  114.6100   24.6850 C.3   901  HEM901      0.0000
     25  NC       125.7030  110.4050   27.8710 N.ar  901  HEM901      0.0000
     26  C1C      126.7660  111.0430   27.2690 C.ar  901  HEM901      0.0000
     27  C2C      127.9770  110.2300   27.2970 C.ar  901  HEM901      0.0000
     28  C3C      127.6010  109.0400   27.9360 C.ar  901  HEM901      0.0000
     29  C4C      126.1880  109.1720   28.2600 C.ar  901  HEM901      0.0000
     30  CMC      129.3400  110.6870   26.7240 C.3   901  HEM901      0.0000
     31  CAC      128.3730  107.9400   28.2880 C.3   901  HEM901      0.0000
     32  CBC      129.5980  107.6070   27.7260 C.3   901  HEM901      0.0000
     33  ND       123.4030  109.5030   29.2250 N.2   901  HEM901      0.0000
     34  C1D      124.1370  108.3420   29.3680 C.2   901  HEM901      0.0000
     35  C2D      123.4630  107.3890   30.2410 C.2   901  HEM901      0.0000
     36  C3D      122.3640  108.0070   30.6550 C.2   901  HEM901      0.0000
     37  C4D      122.3170  109.3210   30.0280 C.2   901  HEM901      0.0000
     38  CMD      123.8720  105.9870   30.6350 C.3   901  HEM901      0.0000
     39  CAD      121.4390  107.4380   31.6870 C.3   901  HEM901      0.0000
     40  CBD      121.5040  108.1810   33.0130 C.3   901  HEM901      0.0000
     41  CGD      120.6130  107.5620   34.0640 C.2   901  HEM901      0.0000
     42  O1D      120.5090  108.1090   35.1920 O.co2 901  HEM901      0.0000
     43  O2D      120.0140  106.5160   33.7540 O.co2 901  HEM901      0.0000
@<TRIPOS>BOND
     1    24    23    1
     2    23    20    1
     3    22    19    1
     4    20    19    2
     5    20    21    1
     6    19    18    1
     7    21     4    2
     8    21    17    1
     9     4    26    1
    10    30    27    1
    11    18    17    2
    12    18     3    1
    13    26    27   ar
    14    26    25   ar
    15    27    28   ar
    16    17     1    1
    17     3    10    2
    18    32    31    1
    19    25     1    1
    20    25    29   ar
    21     1     6    1
    22     1    33    1
    23    28    29   ar
    24    28    31    1
    25    29     5    1
    26    10     6   ar
    27    10     9   ar
    28     6     7   ar
    29    11     9    1
    30     5    34    2
    31     9     8   ar
    32    33    34    1
    33    33    37    2
    34    34    35    1
    35     7     8   ar
    36     7     2    2
    37     8    12    1
    38    37     2    1
    39    37    36    1
    40    35    38    1
    41    35    36    2
    42    36    39    1
    43    12    13    1
    44    39    40    1
    45    13    14    1
    46    40    41    1
    47    16    14   ar
    48    14    15   ar
    49    43    41   ar
    50    41    42   ar
