@<TRIPOS>MOLECULE
1dwx_HAR_A_1.pdb
 13 12 0 0 0
SMALL
GASTEIGER

@<TRIPOS>ATOM
      1  N        120.4080  115.2190   34.9620 N.3   906  HAR906     -0.1208
      2  CA       121.5910  115.2560   35.8150 C.3   906  HAR906      0.1944
      3  C        121.7500  116.6240   36.4800 C.2   906  HAR906      0.3819
      4  O        122.4140  116.6910   37.5360 O.co2 906  HAR906     -0.2441
      5  CB       122.8390  114.9290   34.9900 C.3   906  HAR906      0.0343
      6  CG       122.8020  113.5560   34.3280 C.3   906  HAR906      0.0490
      7  CD       123.8370  113.4460   33.2080 C.3   906  HAR906      0.2205
      8  NE       123.6230  114.4740   32.1910 N.pl3 906  HAR906     -0.0871
      9  CZ       124.2640  114.5270   31.0240 C.2   906  HAR906      0.5283
     10  NH1      125.1550  113.5910   30.7130 N.4   906  HAR906      0.1134
     11  NH2      124.0020  115.5040   30.1630 N.pl3 906  HAR906      0.1348
     12  OH1      125.9950  113.7860   29.7050 O.3   906  HAR906      0.0294
     13  OXT      121.2110  117.6130   35.9410 O.co2 906  HAR906     -0.2441
@<TRIPOS>BOND
     1    12    10    1
     2    11     9    2
     3    10     9    1
     4     9     8    1
     5     8     7    1
     6     7     6    1
     7     6     5    1
     8     1     2    1
     9     5     2    1
    10     2     3    1
    11    13     3   ar
    12     3     4   ar
