@<TRIPOS>MOLECULE
1dwx_H4B_A_1.pdb
 17 18 0 0 0
SMALL
GASTEIGER

@<TRIPOS>ATOM
      1  N1       113.3450  111.5440   32.0180 N.2   902  H4B902     -0.2672
      2  C2       114.5580  112.0470   32.2600 C.1   902  H4B902      0.2609
      3  N2       115.3030  112.4580   31.2470 N.pl3 902  H4B902     -0.0220
      4  N3       115.0570  112.1100   33.4970 N.2   902  H4B902     -0.2466
      5  C4       114.3560  111.6660   34.5350 C.1   902  H4B902      0.2569
      6  O4       114.7980  111.7090   35.6810 O.2   902  H4B902     -0.2052
      7  C4A      113.0720  111.1200   34.3360 C.2   902  H4B902      0.2989
      8  C8A      112.5730  111.1060   33.0120 C.1   902  H4B902      0.1401
      9  N5       112.3520  110.6310   35.3420 N.2   902  H4B902     -0.3830
     10  N8       111.3430  110.6490   32.7560 N.2   902  H4B902     -0.1992
     11  C6       111.0500  110.0450   35.0670 C.2   902  H4B902      0.1466
     12  C7       110.4570  110.3590   33.7810 C.3   902  H4B902      0.1940
     13  C9       110.3050  109.5870   36.3280 C.3   902  H4B902      0.2313
     14  O9       109.8730  110.7260   37.0730 O.3   902  H4B902     -0.2130
     15  C10      109.1150  108.6590   36.0800 C.3   902  H4B902      0.1888
     16  C11      108.4720  108.2520   37.3950 C.3   902  H4B902      0.0387
     17  O10      109.5620  107.4890   35.3860 O.3   902  H4B902     -0.2200
@<TRIPOS>BOND
     1     3     2    1
     2     1     2    2
     3     1     8    2
     4     2     4    2
     5    10     8    2
     6    10    12    1
     7     8     7    1
     8     4     5    2
     9    12    11    1
    10     7     5    1
    11     7     9    2
    12     5     6    2
    13    11     9    2
    14    11    13    1
    15    17    15    1
    16    15    13    1
    17    15    16    1
    18    13    14    1
