@<TRIPOS>MOLECULE
1dx4_BMA_A_1.pdb
 11 11 0 0 0
SMALL
GASTEIGER

@<TRIPOS>ATOM
      1  C1        38.3190   56.4450  -11.4310 C.3   1579  BMA1579     0.1777
      2  C2        37.1150   57.3940  -11.1700 C.3   1579  BMA1579     0.2141
      3  C3        35.8770   57.1490  -12.0500 C.3   1579  BMA1579     0.2173
      4  C4        36.2830   56.8640  -13.5000 C.3   1579  BMA1579     0.2142
      5  C5        37.2540   55.6960  -13.4840 C.3   1579  BMA1579     0.1810
      6  C6        37.6230   55.2030  -14.8730 C.3   1579  BMA1579     0.2141
      7  O2        37.5230   58.7480  -11.3040 O.3   1579  BMA1579    -0.2176
      8  O3        35.0420   58.2980  -12.0000 O.3   1579  BMA1579    -0.2175
      9  O4        35.1430   56.5470  -14.2910 O.3   1579  BMA1579    -0.2176
     10  O5        38.4630   56.1100  -12.8190 O.3   1579  BMA1579    -0.3481
     11  O6        36.5080   54.5970  -15.5160 O.3   1579  BMA1579    -0.2176
@<TRIPOS>BOND
     1    11     6    1
     2     6     5    1
     3     9     4    1
     4     4     5    1
     5     4     3    1
     6     5    10    1
     7    10     1    1
     8     3     8    1
     9     3     2    1
    10     1     2    1
    11     7     2    1
