@<TRIPOS>MOLECULE
1dx4_760_A_1.pdb
 22 25 0 0 0
SMALL
GASTEIGER

@<TRIPOS>ATOM
      1  C1        31.1460   64.5180    9.7270 C.3   1580  7601580     0.0590
      2  C2        30.1860   64.6930    8.5380 C.3   1580  7601580     0.0121
      3  C3        29.8240   65.9930    8.5630 C.3   1580  7601580     0.0263
      4  C4        31.1050   66.9730    8.2850 C.2   1580  7601580    -0.0265
      5  C5        33.6260   67.6310    8.3310 C.3   1580  7601580     0.1215
      6  C6        35.8070   67.7410   10.0320 C.2   1580  7601580    -0.0007
      7  C7        36.8770   67.3910   11.0000 C.2   1580  7601580    -0.0043
      8  C8        36.7840   66.1440   11.6210 C.2   1580  7601580    -0.0187
      9  C9        35.6820   65.2880   11.3410 C.3   1580  7601580     0.0846
     10  N10       33.4990   64.7250   10.2710 N.2   1580  7601580    -0.4108
     11  C11       32.6230   65.2610    9.6370 C.2   1580  7601580     0.1059
     12  C12       32.5700   66.5480    8.8400 C.2   1580  7601580     0.0188
     13  C13       34.5920   67.0380    9.5600 C.2   1580  7601580     0.0234
     14  C14       34.5290   65.6200   10.3650 C.2   1580  7601580     0.1105
     15  N15       33.5960   69.0700    8.2780 N.3   1580  7601580    -0.2057
     16  C17       32.3820   69.8410    7.9060 C.3   1580  7601580     0.1157
     17  C18       31.2000   70.3000    8.8920 C.ar  1580  7601580    -0.0048
     18  C19       30.4290   69.4960    9.7690 C.ar  1580  7601580    -0.0029
     19  C20       29.4370   70.0470   10.4890 C.ar  1580  7601580    -0.0003
     20  C21       29.1450   71.3840   10.3950 C.ar  1580  7601580    -0.0000
     21  C22       29.8930   72.2010    9.5560 C.ar  1580  7601580    -0.0003
     22  C23       30.9440   71.6820    8.7780 C.ar  1580  7601580    -0.0029
@<TRIPOS>BOND
     1    16    15    1
     2    16    17    1
     3    15     5    1
     4     4     3    1
     5     4    12    2
     6     5    12    1
     7     5    13    1
     8     2     3    1
     9     2     1    1
    10    22    17   ar
    11    22    21   ar
    12    12    11    1
    13    17    18   ar
    14    21    20   ar
    15    13     6    2
    16    13    14    1
    17    11     1    1
    18    11    10    2
    19    18    19   ar
    20     6     7    1
    21    10    14    2
    22    14     9    1
    23    20    19   ar
    24     7     8    2
    25     9     8    1
