@<TRIPOS>MOLECULE
1dx5_III_E_1.pdb
 25 24 0 0 0
SMALL
GASTEIGER

@<TRIPOS>ATOM
      1  N         26.8570   57.5450   -3.2720 N.3     1  GLU1       -0.1231
      2  CA        26.2530   57.6120   -4.6330 C.3     1  GLU1        0.1699
      3  C         24.7440   57.8220   -4.5150 C.2     1  GLU1        0.2593
      4  O         24.0230   56.9310   -4.0640 O.2     1  GLU1       -0.2718
      5  CB        26.5620   56.3140   -5.3760 C.3     1  GLU1        0.0402
      6  CG        26.0470   56.2240   -6.7950 C.3     1  GLU1        0.1161
      7  CD        26.3360   54.7650   -7.4220 C.2     1  GLU1        0.3649
      8  OE1       26.4520   53.7890   -6.6350 O.co2   1  GLU1       -0.2457
      9  OE2       26.4380   54.6640   -8.6690 O.co2   1  GLU1       -0.2457
     10  N         24.2850   58.9970   -4.9440 N.am    2  GLY2       -0.1942
     11  CA        22.8780   59.3580   -4.8680 C.3     2  GLY2        0.2014
     12  C         21.9090   58.4870   -5.6410 C.2     2  GLY2        0.2635
     13  O         22.1660   58.1460   -6.7940 O.2     2  GLY2       -0.2714
     14  N         20.7900   58.1370   -5.0080 N.am    3  ARG3       -0.2031
     15  CA        19.7670   57.2980   -5.6330 C.3     3  ARG3        0.1257
     16  O         17.8660   57.5830   -7.0060 O.3     3  ARG3       -0.2213
     17  CB        19.3420   56.1680   -4.6870 C.3     3  ARG3        0.0280
     18  CG        20.4390   55.1480   -4.3850 C.3     3  ARG3        0.0488
     19  CD        19.9680   54.1640   -3.3190 C.3     3  ARG3        0.2205
     20  NE        20.9070   53.0600   -3.1760 N.pl3   3  ARG3       -0.0865
     21  CZ        20.8170   52.0850   -2.2760 C.cat   3  ARG3        0.5346
     22  NH1       19.8150   52.0630   -1.3990 N.pl3   3  ARG3        0.1354
     23  NH2       21.7020   51.0910   -2.3000 N.pl3   3  ARG3        0.1354
     24  CF        18.5320   58.0770   -6.0970 C.3     3  ARG3        0.1718
     25  C1        18.8380   59.6110   -6.5330 C.3     4  0QE4        0.0373
@<TRIPOS>BOND
     1     9     7   ar
     2     7     6    1
     3     7     8   ar
     4    16    24    1
     5     6     5    1
     6    13    12    2
     7    25    24    1
     8    24    15    1
     9    12    14   am
    10    12    11    1
    11    15    14    1
    12    15    17    1
    13     5     2    1
    14    10    11    1
    15    10     3   am
    16    17    18    1
    17     2     3    1
    18     2     1    1
    19     3     4    2
    20    18    19    1
    21    19    20    1
    22    20    21    2
    23    23    21    1
    24    21    22    1
