@<TRIPOS>MOLECULE
1dx6_GNT_A_1.pdb
 21 24 0 0 0
SMALL
GASTEIGER

@<TRIPOS>ATOM
      1  C1         2.4700   67.5340   63.2010 C.2   1537  GNT1537    -0.0211
      2  C2         2.5980   67.9070   61.9410 C.2   1537  GNT1537     0.0021
      3  C3         3.9180   68.1530   61.2660 C.3   1537  GNT1537     0.1773
      4  C4         5.1610   68.1640   62.2440 C.3   1537  GNT1537     0.0816
      5  C41        5.0120   67.1520   63.4030 C.3   1537  GNT1537     0.1762
      6  C42        3.6480   67.2060   64.1640 C.3   1537  GNT1537     0.0780
      7  O5         5.1710   65.7760   62.8850 O.3   1537  GNT1537    -0.4757
      8  C6         4.5400   63.5580   63.7920 C.ar  1537  GNT1537     0.1721
      9  C7         3.6820   62.9140   64.7140 C.ar  1537  GNT1537     0.0397
     10  C8         2.8010   63.6430   65.5070 C.ar  1537  GNT1537     0.0001
     11  C9         1.7460   65.7880   66.3260 C.3   1537  GNT1537     0.0990
     12  N10        2.3820   66.8880   67.1060 N.3   1537  GNT1537    -0.2677
     13  C11        2.5160   68.1600   66.3430 C.3   1537  GNT1537     0.0732
     14  C12        3.7030   68.1500   65.3760 C.3   1537  GNT1537     0.0290
     15  C13        4.4440   64.9750   63.7330 C.ar  1537  GNT1537     0.1682
     16  C14        3.5440   65.7100   64.5470 C.ar  1537  GNT1537     0.0187
     17  C15        2.7020   65.0540   65.4510 C.ar  1537  GNT1537    -0.0066
     18  C16        5.4060   61.8070   62.3790 C.3   1537  GNT1537     0.2526
     19  O17        5.6070   62.9560   63.1470 O.3   1537  GNT1537    -0.4684
     20  O18        4.1130   67.1290   60.3230 O.3   1537  GNT1537    -0.2182
     21  C19        1.6470   67.0900   68.4040 C.3   1537  GNT1537     0.0899
@<TRIPOS>BOND
     1    20     3    1
     2     3     2    1
     3     3     4    1
     4     2     1    2
     5     4     5    1
     6    18    19    1
     7     7     5    1
     8     7    15    1
     9    19     8    1
    10     1     6    1
    11     5     6    1
    12    15     8   ar
    13    15    16   ar
    14     8     9   ar
    15     6    16    1
    16     6    14    1
    17    16    17   ar
    18     9    10   ar
    19    14    13    1
    20    17    10   ar
    21    17    11    1
    22    11    12    1
    23    13    12    1
    24    12    21    1
