@<TRIPOS>MOLECULE
1dxc_HEM_A_1.pdb
 43 50 0 0 0
SMALL
GASTEIGER

@<TRIPOS>ATOM
      1 FE         34.9180    4.1300   10.0060 Fe    154  HEM154      0.0000
      2  CHA       37.6250    2.3880   11.2410 C.2   154  HEM154      0.0000
      3  CHB       36.8510    5.2820    7.4060 C.2   154  HEM154      0.0000
      4  CHC       32.3230    6.0940    8.9600 C.2   154  HEM154      0.0000
      5  CHD       33.0420    3.0770   12.7120 C.2   154  HEM154      0.0000
      6  NA        36.8480    3.9230    9.4500 N.ar  154  HEM154      0.0000
      7  C1A       37.7970    3.0940   10.0630 C.ar  154  HEM154      0.0000
      8  C2A       39.0060    3.1330    9.2670 C.ar  154  HEM154      0.0000
      9  C3A       38.8200    3.9470    8.2090 C.ar  154  HEM154      0.0000
     10  C4A       37.4650    4.4450    8.3190 C.ar  154  HEM154      0.0000
     11  CMA       39.8000    4.2650    7.0890 C.3   154  HEM154      0.0000
     12  CAA       40.2760    2.2880    9.5720 C.3   154  HEM154      0.0000
     13  CBA       40.3470    1.0720    8.5680 C.3   154  HEM154      0.0000
     14  CGA       39.1120    0.2030    8.6210 C.2   154  HEM154      0.0000
     15  O1A       38.8430   -0.4610    9.6630 O.co2 154  HEM154      0.0000
     16  O2A       38.3430    0.1870    7.6490 O.co2 154  HEM154      0.0000
     17  NB        34.6290    5.4120    8.4960 N.2   154  HEM154      0.0000
     18  C1B       35.5350    5.7370    7.5000 C.2   154  HEM154      0.0000
     19  C2B       34.9390    6.6520    6.5510 C.2   154  HEM154      0.0000
     20  C3B       33.6960    6.9130    6.9960 C.2   154  HEM154      0.0000
     21  C4B       33.4810    6.1070    8.1920 C.2   154  HEM154      0.0000
     22  CMB       35.6720    7.2240    5.3310 C.3   154  HEM154      0.0000
     23  CAB       32.6040    7.7920    6.4200 C.2   154  HEM154      0.0000
     24  CBB       32.8640    8.9910    5.9010 C.2   154  HEM154      0.0000
     25  NC        33.0250    4.4520   10.6860 N.ar  154  HEM154      0.0000
     26  C1C       32.1270    5.3900   10.1490 C.ar  154  HEM154      0.0000
     27  C2C       31.0020    5.5350   11.0270 C.ar  154  HEM154      0.0000
     28  C3C       31.1860    4.6970   12.0840 C.ar  154  HEM154      0.0000
     29  C4C       32.4480    4.0230   11.8710 C.ar  154  HEM154      0.0000
     30  CMC       29.8100    6.4750   10.7710 C.3   154  HEM154      0.0000
     31  CAC       30.3700    4.4300   13.3510 C.2   154  HEM154      0.0000
     32  CBC       29.2370    5.0440   13.7070 C.2   154  HEM154      0.0000
     33  ND        35.2540    2.9390   11.6070 N.2   154  HEM154      0.0000
     34  C1D       34.3530    2.6320   12.6160 C.2   154  HEM154      0.0000
     35  C2D       35.0060    1.8160   13.6220 C.2   154  HEM154      0.0000
     36  C3D       36.2750    1.6430   13.2200 C.2   154  HEM154      0.0000
     37  C4D       36.4540    2.3310   11.9860 C.2   154  HEM154      0.0000
     38  CMD       34.2930    1.2770   14.8800 C.3   154  HEM154      0.0000
     39  CAD       37.3970    0.9420   14.0360 C.3   154  HEM154      0.0000
     40  CBD       37.9620    2.0710   15.0080 C.3   154  HEM154      0.0000
     41  CGD       39.1240    1.6940   15.8560 C.2   154  HEM154      0.0000
     42  O1D       39.1770    2.0200   17.0450 O.co2 154  HEM154      0.0000
     43  O2D       40.0750    1.0720   15.3580 O.co2 154  HEM154      0.0000
@<TRIPOS>BOND
     1    22    19    1
     2    24    23    2
     3    23    20    1
     4    19    20    2
     5    19    18    1
     6    20    21    1
     7    11     9    1
     8     3    18    1
     9     3    10    2
    10    18    17    2
    11    16    14   ar
    12    21    17    1
    13    21     4    2
    14     9    10   ar
    15     9     8   ar
    16    10     6   ar
    17    17     1    1
    18    13    14    1
    19    13    12    1
    20    14    15   ar
    21     4    26    1
    22     8    12    1
    23     8     7   ar
    24     6     1    1
    25     6     7   ar
    26     1    25    1
    27     1    33    1
    28     7     2    2
    29    26    25   ar
    30    26    27   ar
    31    25    29   ar
    32    30    27    1
    33    27    28   ar
    34     2    37    1
    35    33    37    2
    36    33    34    1
    37    29    28   ar
    38    29     5    1
    39    37    36    1
    40    28    31    1
    41    34     5    2
    42    34    35    1
    43    36    35    2
    44    36    39    1
    45    31    32    2
    46    35    38    1
    47    39    40    1
    48    40    41    1
    49    43    41   ar
    50    41    42   ar
