@<TRIPOS>MOLECULE
1dxd_HEM_A_1.pdb
 43 50 0 0 0
SMALL
GASTEIGER

@<TRIPOS>ATOM
      1 FE         34.8570    4.0760    9.9040 Fe    154  HEM154      0.0000
      2  CHA       37.6010    2.4170   11.2020 C.2   154  HEM154      0.0000
      3  CHB       36.8510    5.3590    7.3840 C.2   154  HEM154      0.0000
      4  CHC       32.3660    6.2060    9.0140 C.2   154  HEM154      0.0000
      5  CHD       33.0290    3.1420   12.7290 C.2   154  HEM154      0.0000
      6  NA        36.8290    3.9200    9.4240 N.ar  154  HEM154      0.0000
      7  C1A       37.7650    3.1220   10.0230 C.ar  154  HEM154      0.0000
      8  C2A       38.9910    3.1320    9.2230 C.ar  154  HEM154      0.0000
      9  C3A       38.7790    3.9550    8.1660 C.ar  154  HEM154      0.0000
     10  C4A       37.4480    4.4880    8.3000 C.ar  154  HEM154      0.0000
     11  CMA       39.7610    4.2950    7.0320 C.3   154  HEM154      0.0000
     12  CAA       40.2420    2.2820    9.5130 C.3   154  HEM154      0.0000
     13  CBA       40.2950    1.0640    8.5320 C.3   154  HEM154      0.0000
     14  CGA       39.0570    0.1880    8.5700 C.2   154  HEM154      0.0000
     15  O1A       38.8240   -0.4710    9.6210 O.co2 154  HEM154      0.0000
     16  O2A       38.2720    0.1640    7.6110 O.co2 154  HEM154      0.0000
     17  NB        34.6630    5.5190    8.5250 N.2   154  HEM154      0.0000
     18  C1B       35.5400    5.8290    7.4700 C.2   154  HEM154      0.0000
     19  C2B       34.9130    6.7500    6.5470 C.2   154  HEM154      0.0000
     20  C3B       33.6740    7.0080    6.9940 C.2   154  HEM154      0.0000
     21  C4B       33.5080    6.2350    8.2130 C.2   154  HEM154      0.0000
     22  CMB       35.6510    7.2660    5.3020 C.3   154  HEM154      0.0000
     23  CAB       32.5920    7.8910    6.4130 C.2   154  HEM154      0.0000
     24  CBB       32.8740    9.0650    5.8470 C.2   154  HEM154      0.0000
     25  NC        33.0410    4.5460   10.7100 N.ar  154  HEM154      0.0000
     26  C1C       32.1630    5.4890   10.1920 C.ar  154  HEM154      0.0000
     27  C2C       31.0010    5.6270   11.0490 C.ar  154  HEM154      0.0000
     28  C3C       31.1740    4.7780   12.0990 C.ar  154  HEM154      0.0000
     29  C4C       32.4460    4.0900   11.8900 C.ar  154  HEM154      0.0000
     30  CMC       29.8130    6.5460   10.8130 C.3   154  HEM154      0.0000
     31  CAC       30.3590    4.4780   13.3620 C.2   154  HEM154      0.0000
     32  CBC       29.2160    5.0860   13.6950 C.2   154  HEM154      0.0000
     33  ND        35.2600    3.0180   11.6100 N.2   154  HEM154      0.0000
     34  C1D       34.3480    2.6940   12.6240 C.2   154  HEM154      0.0000
     35  C2D       35.0100    1.8790   13.6080 C.2   154  HEM154      0.0000
     36  C3D       36.2720    1.6770   13.2220 C.2   154  HEM154      0.0000
     37  C4D       36.4350    2.3950   11.9830 C.2   154  HEM154      0.0000
     38  CMD       34.2880    1.3300   14.8600 C.3   154  HEM154      0.0000
     39  CAD       37.4120    0.9740   13.9840 C.3   154  HEM154      0.0000
     40  CBD       37.9620    2.0820   14.9770 C.3   154  HEM154      0.0000
     41  CGD       39.1040    1.6970   15.8420 C.2   154  HEM154      0.0000
     42  O1D       39.1360    1.9770   17.0510 O.co2 154  HEM154      0.0000
     43  O2D       40.0850    1.1150   15.3440 O.co2 154  HEM154      0.0000
@<TRIPOS>BOND
     1    22    19    1
     2    24    23    2
     3    23    20    1
     4    19    20    2
     5    19    18    1
     6    20    21    1
     7    11     9    1
     8     3    18    1
     9     3    10    2
    10    18    17    2
    11    16    14   ar
    12     9    10   ar
    13     9     8   ar
    14    21    17    1
    15    21     4    2
    16    10     6   ar
    17    17     1    1
    18    13    14    1
    19    13    12    1
    20    14    15   ar
    21     4    26    1
    22     8    12    1
    23     8     7   ar
    24     6     1    1
    25     6     7   ar
    26     1    25    1
    27     1    33    1
    28     7     2    2
    29    26    25   ar
    30    26    27   ar
    31    25    29   ar
    32    30    27    1
    33    27    28   ar
    34     2    37    1
    35    33    37    2
    36    33    34    1
    37    29    28   ar
    38    29     5    1
    39    37    36    1
    40    28    31    1
    41    34     5    2
    42    34    35    1
    43    36    35    2
    44    36    39    1
    45    31    32    2
    46    35    38    1
    47    39    40    1
    48    40    41    1
    49    43    41   ar
    50    41    42   ar
