@<TRIPOS>MOLECULE
1dxm_RED_A_1.pdb
 11 10 0 0 0
SMALL
GASTEIGER

@<TRIPOS>ATOM
      1  C1        21.4780   -9.1140    8.8580 C.2   163  RED163      0.2074
      2  O1        21.6170   -7.9790    8.3860 O.2   163  RED163     -0.2883
      3  C2        22.4740   -9.6060    9.8940 C.3   163  RED163      0.0722
      4  C3        23.9000   -9.1320    9.5920 C.3   163  RED163      0.0082
      5  C4        24.5280   -9.9200    8.4400 C.3   163  RED163      0.0014
      6  C5        25.9760   -9.5110    8.1850 C.3   163  RED163      0.0117
      7  C6        26.8240  -10.5950    7.5080 C.3   163  RED163      0.0588
      8  C7        26.8390  -11.8760    8.3460 C.3   163  RED163      0.0242
      9  C8        27.8010  -12.9260    7.8220 C.3   163  RED163      0.0696
     10  S8        27.6520  -14.5290    8.6190 S.3   163  RED163     -0.0821
     11  S6        28.4670  -10.0710    7.0120 S.3   163  RED163     -0.0830
@<TRIPOS>BOND
     1    11     7    1
     2     7     6    1
     3     7     8    1
     4     9     8    1
     5     9    10    1
     6     6     5    1
     7     2     1    2
     8     5     4    1
     9     1     3    1
    10     4     3    1
