@<TRIPOS>MOLECULE
1dxo_DQN_A_1.pdb
 12 12 0 0 0
SMALL
GASTEIGER

@<TRIPOS>ATOM
      1  C1        20.3830   -5.4130    4.1650 C.2   302  DQN302      0.1873
      2  O1        20.9660   -4.6930    3.3110 O.2   302  DQN302     -0.2873
      3  C2        19.7690   -4.7340    5.3760 C.2   302  DQN302      0.0158
      4  C2M       19.8130   -3.2140    5.4150 C.3   302  DQN302      0.0341
      5  C3        19.1310   -5.4870    6.3580 C.2   302  DQN302      0.0158
      6  C3M       18.4950   -4.8250    7.5720 C.3   302  DQN302      0.0341
      7  C4        19.0660   -7.0080    6.1970 C.2   302  DQN302      0.1873
      8  O4        18.6220   -7.7420    7.0710 O.2   302  DQN302     -0.2873
      9  C5        19.6320   -7.6940    4.9710 C.2   302  DQN302      0.0158
     10  C5M       19.3060   -9.1600    4.8170 C.3   302  DQN302      0.0341
     11  C6        20.2600   -6.9240    3.9930 C.2   302  DQN302      0.0158
     12  C6M       20.8740   -7.5360    2.7760 C.3   302  DQN302      0.0341
@<TRIPOS>BOND
     1    12    11    1
     2     2     1    2
     3    11     1    1
     4    11     9    2
     5     1     3    1
     6    10     9    1
     7     9     7    1
     8     3     4    1
     9     3     5    2
    10     7     5    1
    11     7     8    2
    12     5     6    1
