@<TRIPOS>MOLECULE
1dxr_NS5_M_1.pdb
 40 39 0 0 0
SMALL
GASTEIGER

@<TRIPOS>ATOM
      1  C1       126.6590   46.5820   -8.9970 C.3   600  NS5600      0.0000
      2  CM1      125.7820   47.7810   -9.3370 C.3   600  NS5600      0.0000
      3  CM2      127.2330   45.9570  -10.2580 C.3   600  NS5600      0.0000
      4  C2       127.7810   46.9740   -8.0310 C.3   600  NS5600      0.0000
      5  C3       127.3040   47.3580   -6.6380 C.3   600  NS5600      0.0000
      6  C4       126.7010   46.1670   -5.9020 C.3   600  NS5600      0.0000
      7  C5       126.1240   46.5440   -4.5850 C.3   600  NS5600      0.0000
      8  C6       125.0700   47.5930   -4.6450 C.3   600  NS5600      0.0000
      9  C7       126.2630   45.7400   -3.5160 C.3   600  NS5600      0.0000
     10  C8       126.0030   46.1750   -2.1260 C.3   600  NS5600      0.0000
     11  C9       125.4660   45.0430   -1.2310 C.3   600  NS5600      0.0003
     12  C10      124.5630   45.5780   -0.0840 C.3   600  NS5600      0.0043
     13  C11      123.1500   45.8610   -0.4630 C.3   600  NS5600      0.0003
     14  C12      125.0090   45.6360    1.1960 C.3   600  NS5600      0.0257
     15  C13      124.3780   46.2650    2.3570 C.2   600  NS5600     -0.0304
     16  C14      124.9320   47.2410    3.1060 C.2   600  NS5600     -0.0267
     17  C15      124.4520   47.7330    4.4020 C.3   600  NS5600      0.0436
     18  C16      123.3200   48.6750    4.2830 C.3   600  NS5600      0.0094
     19  C17      125.2240   47.6390    5.5120 C.2   600  NS5600     -0.0221
     20  C18      125.0730   48.3590    6.7290 C.2   600  NS5600     -0.0046
     21  C19      125.8670   48.4120    7.8200 C.2   600  NS5600     -0.0046
     22  C20      126.8560   47.4660    8.2680 C.2   600  NS5600     -0.0221
     23  C21      127.7250   47.6890    9.2880 C.3   600  NS5600      0.0440
     24  C22      127.9440   49.0140    9.8940 C.3   600  NS5600      0.0094
     25  C23      128.5940   46.6280    9.7840 C.2   600  NS5600     -0.0221
     26  C24      129.8710   46.8010   10.1570 C.2   600  NS5600     -0.0046
     27  C25      130.7640   45.7640   10.6290 C.2   600  NS5600     -0.0046
     28  C26      132.0650   45.9110   10.9620 C.2   600  NS5600     -0.0219
     29  C27      132.8010   47.1880   10.7740 C.3   600  NS5600      0.0310
     30  C28      132.8460   44.8160   11.5400 C.2   600  NS5600     -0.0043
     31  C29      134.1060   44.9710   11.9920 C.2   600  NS5600     -0.0010
     32  C30      135.0290   43.9020   12.3500 C.2   600  NS5600     -0.0085
     33  C31      136.3800   43.9720   12.4820 C.2   600  NS5600     -0.0439
     34  C32      137.1170   45.2320   12.4410 C.3   600  NS5600      0.0264
     35  C33      137.2390   42.7160   12.6150 C.3   600  NS5600      0.0220
     36  C34      137.3170   42.2150   14.0450 C.3   600  NS5600      0.0043
     37  C35      137.8550   40.8320   14.1010 C.3   600  NS5600      0.0003
     38  C36      138.3220   40.2340   15.2110 C.3   600  NS5600      0.0000
     39  CM3      138.8110   41.0040   16.3850 C.3   600  NS5600      0.0000
     40  CM4      138.6660   38.7910   15.2360 C.3   600  NS5600      0.0000
@<TRIPOS>BOND
     1     3     1    1
     2     2     1    1
     3     1     4    1
     4     4     5    1
     5     5     6    1
     6     6     7    1
     7     8     7    1
     8     7     9    1
     9     9    10    1
    10    10    11    1
    11    11    12    1
    12    13    12    1
    13    12    14    1
    14    14    15    1
    15    15    16    2
    16    16    17    1
    17    18    17    1
    18    17    19    1
    19    19    20    2
    20    20    21    1
    21    21    22    2
    22    22    23    1
    23    23    25    1
    24    23    24    1
    25    25    26    2
    26    26    27    1
    27    27    28    2
    28    29    28    1
    29    28    30    1
    30    30    31    2
    31    31    32    1
    32    32    33    2
    33    34    33    1
    34    33    35    1
    35    35    36    1
    36    36    37    1
    37    37    38    1
    38    38    40    1
    39    38    39    1
