@<TRIPOS>MOLECULE
1dxr_HEC_C_1.pdb
 43 50 0 0 0
SMALL
GASTEIGER

@<TRIPOS>ATOM
      1 FE         79.0340   11.4180   15.3050 Fe    401  HEC401      0.0000
      2  CHA       79.4250    9.4580   18.1080 C.2   401  HEC401      0.0000
      3  CHB       75.7630   10.4050   15.0410 C.2   401  HEC401      0.0000
      4  CHC       78.5330   13.4810   12.5590 C.2   401  HEC401      0.0000
      5  CHD       82.3070   12.2690   15.4160 C.2   401  HEC401      0.0000
      6  NA        77.8380   10.1790   16.3610 N.ar  401  HEC401      0.0000
      7  C1A       78.1820    9.4200   17.4620 C.ar  401  HEC401      0.0000
      8  C2A       77.0610    8.5680   17.8320 C.ar  401  HEC401      0.0000
      9  C3A       76.0170    8.9170   17.0550 C.ar  401  HEC401      0.0000
     10  C4A       76.5100    9.8780   16.0950 C.ar  401  HEC401      0.0000
     11  CMA       74.6140    8.3450   17.2290 C.3   401  HEC401      0.0000
     12  CAA       76.9660    7.4590   18.8790 C.3   401  HEC401      0.0000
     13  CBA       77.2970    6.0910   18.2910 C.3   401  HEC401      0.0000
     14  CGA       77.6410    5.0820   19.3520 C.2   401  HEC401      0.0000
     15  O1A       78.7680    5.1530   19.8730 O.co2 401  HEC401      0.0000
     16  O2A       76.7810    4.2430   19.6900 O.co2 401  HEC401      0.0000
     17  NB        77.4820   11.8530   14.0230 N.2   401  HEC401      0.0000
     18  C1B       76.2140   11.3130   14.0840 C.2   401  HEC401      0.0000
     19  C2B       75.4010   11.8680   13.0260 C.2   401  HEC401      0.0000
     20  C3B       76.1270   12.8290   12.4200 C.2   401  HEC401      0.0000
     21  C4B       77.4440   12.7700   12.9930 C.2   401  HEC401      0.0000
     22  CMB       73.9710   11.4720   12.7270 C.3   401  HEC401      0.0000
     23  CAB       75.7790   13.8630   11.3640 C.3   401  HEC401      0.0000
     24  CBB       74.5170   14.6300   11.7530 C.3   401  HEC401      0.0000
     25  NC        80.1670   12.5930   14.1880 N.ar  401  HEC401      0.0000
     26  C1C       79.8010   13.3780   13.1050 C.ar  401  HEC401      0.0000
     27  C2C       80.9670   14.0020   12.5400 C.ar  401  HEC401      0.0000
     28  C3C       82.0360   13.5780   13.2660 C.ar  401  HEC401      0.0000
     29  C4C       81.5270   12.7750   14.3650 C.ar  401  HEC401      0.0000
     30  CMC       80.9260   14.9450   11.3210 C.3   401  HEC401      0.0000
     31  CAC       83.5370   13.8010   13.1380 C.3   401  HEC401      0.0000
     32  CBC       83.9830   15.2720   12.9550 C.3   401  HEC401      0.0000
     33  ND        80.5430   11.0320   16.5880 N.2   401  HEC401      0.0000
     34  C1D       81.8440   11.4720   16.4620 C.2   401  HEC401      0.0000
     35  C2D       82.6070   11.0680   17.6310 C.2   401  HEC401      0.0000
     36  C3D       81.7650   10.3640   18.4290 C.2   401  HEC401      0.0000
     37  C4D       80.5170   10.2310   17.7110 C.2   401  HEC401      0.0000
     38  CMD       84.0690   11.3910   17.9550 C.3   401  HEC401      0.0000
     39  CAD       82.0560    9.8580   19.8180 C.3   401  HEC401      0.0000
     40  CBD       81.5990   10.8860   20.8380 C.3   401  HEC401      0.0000
     41  CGD       82.1080   10.5920   22.2340 C.2   401  HEC401      0.0000
     42  O1D       81.5570   11.1500   23.1990 O.co2 401  HEC401      0.0000
     43  O2D       83.0340    9.7750   22.3880 O.co2 401  HEC401      0.0000
@<TRIPOS>BOND
     1    30    27    1
     2    23    24    1
     3    23    20    1
     4    20    21    1
     5    20    19    2
     6    27    26   ar
     7    27    28   ar
     8     4    21    2
     9     4    26    1
    10    22    19    1
    11    32    31    1
    12    21    17    1
    13    19    18    1
    14    26    25   ar
    15    31    28    1
    16    28    29   ar
    17    17    18    2
    18    17     1    1
    19    18     3    1
    20    25    29   ar
    21    25     1    1
    22    29     5    1
    23     3    10    2
    24     1     6    1
    25     1    33    1
    26     5    34    2
    27    10     6   ar
    28    10     9   ar
    29     6     7   ar
    30    34    33    1
    31    34    35    1
    32    33    37    2
    33     9    11    1
    34     9     8   ar
    35     7     8   ar
    36     7     2    2
    37    35    38    1
    38    35    36    2
    39    37     2    1
    40    37    36    1
    41     8    12    1
    42    13    12    1
    43    13    14    1
    44    36    39    1
    45    14    16   ar
    46    14    15   ar
    47    39    40    1
    48    40    41    1
    49    41    43   ar
    50    41    42   ar
