@<TRIPOS>MOLECULE
1dxr_MST_L_1.pdb
 16 16 0 0 0
SMALL
GASTEIGER

@<TRIPOS>ATOM
      1  N1       131.9660   71.0400   -2.6530 N.2   502  MST502     -0.2528
      2  C2       131.4030   69.9730   -2.1220 C.1   502  MST502      0.1916
      3  S7       130.9990   70.1480   -0.3960 S.3   502  MST502     -0.0157
      4  C8       130.1040   68.6430   -0.0250 C.3   502  MST502      0.0872
      5  N3       131.1070   68.8050   -2.6740 N.2   502  MST502     -0.2528
      6  C4       131.4150   68.7870   -4.0160 C.1   502  MST502      0.2412
      7  N9       131.1530   67.6530   -4.6890 N.pl3 502  MST502     -0.1541
      8  C10      130.2950   66.5540   -4.2820 C.3   502  MST502      0.0884
      9  C11      130.1040   65.6040   -5.4820 C.3   502  MST502      0.0225
     10  C12      128.9160   67.0880   -3.8530 C.3   502  MST502      0.0225
     11  C13      130.9730   65.7880   -3.1250 C.3   502  MST502      0.0225
     12  N5       132.0430   69.7410   -4.6750 N.2   502  MST502     -0.2439
     13  C6       132.3160   70.8260   -3.9680 C.1   502  MST502      0.2413
     14  N14      132.9390   71.8550   -4.5930 N.pl3 502  MST502     -0.1506
     15  C15      133.3010   73.1330   -3.9830 C.3   502  MST502      0.1263
     16  C16      133.7720   74.0610   -5.0270 C.3   502  MST502      0.0261
@<TRIPOS>BOND
     1     9     8    1
     2    16    15    1
     3     7     8    1
     4     7     6    1
     5    12     6    2
     6    12    13    2
     7    14    15    1
     8    14    13    1
     9     8    10    1
    10     8    11    1
    11     6     5    2
    12    13     1    2
    13     5     2    2
    14     1     2    2
    15     2     3    1
    16     3     4    1
