@<TRIPOS>MOLECULE
1dxt_HEM_A_1.pdb
 43 50 0 0 0
SMALL
GASTEIGER

@<TRIPOS>ATOM
      1  CHA        6.0340    8.8760  -19.3470 C.2   142  HEM142      0.0000
      2  CHB        8.2400   10.8600  -15.5340 C.2   142  HEM142      0.0000
      3  CHC        6.5900    7.3140  -12.6670 C.2   142  HEM142      0.0000
      4  CHD        4.7510    5.1000  -16.5790 C.2   142  HEM142      0.0000
      5  C1A        6.8060    9.7170  -18.5700 C.2   142  HEM142      0.0000
      6  C2A        7.6400   10.8090  -19.0540 C.2   142  HEM142      0.0000
      7  C3A        8.2470   11.3670  -18.0110 C.2   142  HEM142      0.0000
      8  C4A        7.8340   10.6290  -16.8310 C.2   142  HEM142      0.0000
      9  CMA        9.2010   12.5790  -17.9930 C.3   142  HEM142      0.0000
     10  CAA        7.7210   11.2210  -20.5390 C.3   142  HEM142      0.0000
     11  CBA        6.7620   12.3250  -20.9700 C.3   142  HEM142      0.0000
     12  CGA        6.8800   12.7090  -22.4350 C.2   142  HEM142      0.0000
     13  O1A        6.8010   13.9340  -22.6850 O.co2 142  HEM142      0.0000
     14  O2A        7.0650   11.8200  -23.2950 O.co2 142  HEM142      0.0000
     15  C1B        7.9920   10.0670  -14.4210 C.ar  142  HEM142      0.0000
     16  C2B        8.4880   10.3180  -13.0880 C.ar  142  HEM142      0.0000
     17  C3B        8.0260    9.3470  -12.2940 C.ar  142  HEM142      0.0000
     18  C4B        7.2430    8.4450  -13.1210 C.ar  142  HEM142      0.0000
     19  CMB        9.3450   11.5590  -12.7360 C.3   142  HEM142      0.0000
     20  CAB        8.2040    9.1320  -10.7740 C.2   142  HEM142      0.0000
     21  CBB        9.3300    9.4580  -10.1280 C.2   142  HEM142      0.0000
     22  C1C        5.9640    6.3970  -13.5020 C.2   142  HEM142      0.0000
     23  C2C        5.5360    5.0660  -13.0950 C.2   142  HEM142      0.0000
     24  C3C        5.0830    4.4240  -14.1840 C.2   142  HEM142      0.0000
     25  C4C        5.1710    5.3560  -15.2920 C.2   142  HEM142      0.0000
     26  CMC        5.6590    4.5430  -11.6430 C.3   142  HEM142      0.0000
     27  CAC        4.4880    3.0010  -14.2950 C.2   142  HEM142      0.0000
     28  CBC        4.9470    1.9870  -13.5540 C.2   142  HEM142      0.0000
     29  C1D        4.9160    5.9360  -17.6650 C.ar  142  HEM142      0.0000
     30  C2D        4.5310    5.6220  -19.0300 C.ar  142  HEM142      0.0000
     31  C3D        4.9150    6.6610  -19.7810 C.ar  142  HEM142      0.0000
     32  C4D        5.5380    7.6450  -18.9390 C.ar  142  HEM142      0.0000
     33  CMD        3.8420    4.3260  -19.5100 C.3   142  HEM142      0.0000
     34  CAD        4.7220    6.8230  -21.3080 C.3   142  HEM142      0.0000
     35  CBD        5.9890    6.7070  -22.1110 C.3   142  HEM142      0.0000
     36  CGD        5.9310    6.2910  -23.5590 C.2   142  HEM142      0.0000
     37  O1D        7.0260    6.4480  -24.1560 O.co2 142  HEM142      0.0000
     38  O2D        4.8780    5.8360  -24.0330 O.co2 142  HEM142      0.0000
     39  NA         6.9520    9.6090  -17.2010 N.2   142  HEM142      0.0000
     40  NB         7.2600    8.8970  -14.4200 N.ar  142  HEM142      0.0000
     41  NC         5.7240    6.5470  -14.8550 N.2   142  HEM142      0.0000
     42  ND         5.5170    7.1810  -17.6300 N.ar  142  HEM142      0.0000
     43 FE          5.9850    8.2750  -15.9600 Fe    142  HEM142      0.0000
@<TRIPOS>BOND
     1    37    36   ar
     2    38    36   ar
     3    36    35    1
     4    14    12   ar
     5    13    12   ar
     6    12    11    1
     7    35    34    1
     8    34    31    1
     9    11    10    1
    10    10     6    1
    11    31    30   ar
    12    31    32   ar
    13    33    30    1
    14     1    32    2
    15     1     5    1
    16     6     5    1
    17     6     7    2
    18    30    29   ar
    19    32    42   ar
    20     5    39    2
    21     7     9    1
    22     7     8    1
    23    29    42   ar
    24    29     4    2
    25    42    43    1
    26    39     8    1
    27    39    43    1
    28     8     2    2
    29     4    25    1
    30    43    41    1
    31    43    40    1
    32     2    15    1
    33    25    41    2
    34    25    24    1
    35    41    22    1
    36    15    40   ar
    37    15    16   ar
    38    40    18   ar
    39    27    24    1
    40    27    28    2
    41    24    23    2
    42    22    23    1
    43    22     3    2
    44    18     3    1
    45    18    17   ar
    46    23    26    1
    47    16    19    1
    48    16    17   ar
    49    17    20    1
    50    20    21    2
