@<TRIPOS>MOLECULE
1dxu_HEM_A_1.pdb
 43 50 0 0 0
SMALL
GASTEIGER

@<TRIPOS>ATOM
      1  CHA        6.0500    8.8950  -19.3720 C.2   142  HEM142      0.0000
      2  CHB        8.2600   10.8890  -15.5800 C.2   142  HEM142      0.0000
      3  CHC        6.6190    7.3440  -12.6960 C.2   142  HEM142      0.0000
      4  CHD        4.7520    5.1340  -16.5940 C.2   142  HEM142      0.0000
      5  C1A        6.8250    9.7400  -18.6210 C.2   142  HEM142      0.0000
      6  C2A        7.6590   10.8330  -19.1050 C.2   142  HEM142      0.0000
      7  C3A        8.2590   11.4070  -18.0690 C.2   142  HEM142      0.0000
      8  C4A        7.8590   10.6650  -16.8840 C.2   142  HEM142      0.0000
      9  CMA        9.2370   12.5920  -18.0300 C.3   142  HEM142      0.0000
     10  CAA        7.7370   11.2270  -20.6000 C.3   142  HEM142      0.0000
     11  CBA        6.7800   12.3380  -21.0220 C.3   142  HEM142      0.0000
     12  CGA        6.8860   12.7290  -22.4860 C.2   142  HEM142      0.0000
     13  O1A        6.7400   13.9450  -22.7410 O.co2 142  HEM142      0.0000
     14  O2A        7.1140   11.8370  -23.3320 O.co2 142  HEM142      0.0000
     15  C1B        8.0240   10.1000  -14.4520 C.ar  142  HEM142      0.0000
     16  C2B        8.5330   10.3500  -13.1270 C.ar  142  HEM142      0.0000
     17  C3B        8.0750    9.3710  -12.3350 C.ar  142  HEM142      0.0000
     18  C4B        7.2780    8.4740  -13.1600 C.ar  142  HEM142      0.0000
     19  CMB        9.3980   11.5810  -12.7910 C.3   142  HEM142      0.0000
     20  CAB        8.2820    9.1520  -10.8160 C.2   142  HEM142      0.0000
     21  CBB        9.3730    9.5880  -10.1720 C.2   142  HEM142      0.0000
     22  C1C        5.9970    6.4340  -13.5390 C.2   142  HEM142      0.0000
     23  C2C        5.5930    5.1040  -13.1410 C.2   142  HEM142      0.0000
     24  C3C        5.1120    4.4740  -14.2210 C.2   142  HEM142      0.0000
     25  C4C        5.1810    5.4260  -15.3210 C.2   142  HEM142      0.0000
     26  CMC        5.7330    4.5430  -11.7010 C.3   142  HEM142      0.0000
     27  CAC        4.5390    3.0500  -14.3450 C.2   142  HEM142      0.0000
     28  CBC        4.9710    2.0440  -13.5880 C.2   142  HEM142      0.0000
     29  C1D        4.9370    5.9810  -17.6640 C.ar  142  HEM142      0.0000
     30  C2D        4.5430    5.6510  -19.0270 C.ar  142  HEM142      0.0000
     31  C3D        4.9050    6.6900  -19.7830 C.ar  142  HEM142      0.0000
     32  C4D        5.5540    7.6720  -18.9570 C.ar  142  HEM142      0.0000
     33  CMD        3.8350    4.3600  -19.4780 C.3   142  HEM142      0.0000
     34  CAD        4.7030    6.8210  -21.3180 C.3   142  HEM142      0.0000
     35  CBD        6.0250    6.7000  -22.0600 C.3   142  HEM142      0.0000
     36  CGD        6.0000    6.3360  -23.5210 C.2   142  HEM142      0.0000
     37  O1D        7.0760    6.5940  -24.1150 O.co2 142  HEM142      0.0000
     38  O2D        4.9620    5.8090  -23.9720 O.co2 142  HEM142      0.0000
     39  NA         6.9810    9.6460  -17.2480 N.2   142  HEM142      0.0000
     40  NB         7.2740    8.9340  -14.4550 N.ar  142  HEM142      0.0000
     41  NC         5.7260    6.6050  -14.8810 N.2   142  HEM142      0.0000
     42  ND         5.5390    7.2270  -17.6410 N.ar  142  HEM142      0.0000
     43 FE          5.9350    8.4140  -15.9730 Fe    142  HEM142      0.0000
@<TRIPOS>BOND
     1    37    36   ar
     2    38    36   ar
     3    36    35    1
     4    14    12   ar
     5    13    12   ar
     6    12    11    1
     7    35    34    1
     8    34    31    1
     9    11    10    1
    10    10     6    1
    11    31    30   ar
    12    31    32   ar
    13    33    30    1
    14     1    32    2
    15     1     5    1
    16     6     5    1
    17     6     7    2
    18    30    29   ar
    19    32    42   ar
    20     5    39    2
    21     7     9    1
    22     7     8    1
    23    29    42   ar
    24    29     4    2
    25    42    43    1
    26    39     8    1
    27    39    43    1
    28     8     2    2
    29     4    25    1
    30    43    41    1
    31    43    40    1
    32     2    15    1
    33    25    41    2
    34    25    24    1
    35    41    22    1
    36    40    15   ar
    37    40    18   ar
    38    15    16   ar
    39    27    24    1
    40    27    28    2
    41    24    23    2
    42    22    23    1
    43    22     3    2
    44    18     3    1
    45    18    17   ar
    46    23    26    1
    47    16    19    1
    48    16    17   ar
    49    17    20    1
    50    20    21    2
