@<TRIPOS>MOLECULE
1dxv_HEM_A_1.pdb
 43 50 0 0 0
SMALL
GASTEIGER

@<TRIPOS>ATOM
      1  CHA        6.1690    8.9110  -19.4940 C.2   142  HEM142      0.0000
      2  CHB        8.3430   10.9280  -15.6720 C.2   142  HEM142      0.0000
      3  CHC        6.7120    7.3770  -12.7940 C.2   142  HEM142      0.0000
      4  CHD        4.7760    5.1910  -16.6680 C.2   142  HEM142      0.0000
      5  C1A        6.9260    9.7450  -18.7100 C.2   142  HEM142      0.0000
      6  C2A        7.7480   10.8550  -19.1920 C.2   142  HEM142      0.0000
      7  C3A        8.3400   11.4260  -18.1470 C.2   142  HEM142      0.0000
      8  C4A        7.9430   10.6820  -16.9630 C.2   142  HEM142      0.0000
      9  CMA        9.3020   12.6260  -18.0940 C.3   142  HEM142      0.0000
     10  CAA        7.8290   11.2500  -20.6810 C.2   142  HEM142      0.0000
     11  CBA        6.8210   12.2840  -21.1660 C.2   142  HEM142      0.0000
     12  CGA        6.9420   12.6750  -22.6230 C.2   142  HEM142      0.0000
     13  O1A        6.6010   13.8480  -22.9000 O.co2 142  HEM142      0.0000
     14  O2A        7.3520   11.8470  -23.4690 O.co2 142  HEM142      0.0000
     15  C1B        8.1060   10.1360  -14.5480 C.ar  142  HEM142      0.0000
     16  C2B        8.6150   10.3890  -13.2310 C.ar  142  HEM142      0.0000
     17  C3B        8.1610    9.4160  -12.4310 C.ar  142  HEM142      0.0000
     18  C4B        7.3600    8.5090  -13.2530 C.ar  142  HEM142      0.0000
     19  CMB        9.4830   11.6270  -12.9070 C.3   142  HEM142      0.0000
     20  CAB        8.3560    9.2150  -10.9140 C.2   142  HEM142      0.0000
     21  CBB        9.4600    9.6330  -10.2890 C.2   142  HEM142      0.0000
     22  C1C        6.0970    6.4610  -13.6290 C.2   142  HEM142      0.0000
     23  C2C        5.6790    5.1340  -13.2250 C.2   142  HEM142      0.0000
     24  C3C        5.1900    4.5020  -14.2980 C.2   142  HEM142      0.0000
     25  C4C        5.2350    5.4560  -15.3960 C.2   142  HEM142      0.0000
     26  CMC        5.8340    4.5900  -11.7850 C.3   142  HEM142      0.0000
     27  CAC        4.5930    3.0910  -14.4040 C.2   142  HEM142      0.0000
     28  CBC        4.9490    2.0780  -13.6070 C.2   142  HEM142      0.0000
     29  C1D        4.9940    6.0340  -17.7570 C.ar  142  HEM142      0.0000
     30  C2D        4.6420    5.6900  -19.1230 C.ar  142  HEM142      0.0000
     31  C3D        5.0370    6.7050  -19.8760 C.ar  142  HEM142      0.0000
     32  C4D        5.6550    7.7020  -19.0390 C.ar  142  HEM142      0.0000
     33  CMD        3.9370    4.3800  -19.5690 C.3   142  HEM142      0.0000
     34  CAD        4.8770    6.8460  -21.4140 C.3   142  HEM142      0.0000
     35  CBD        6.0950    6.2750  -22.1480 C.3   142  HEM142      0.0000
     36  CGD        6.0020    6.2700  -23.6590 C.2   142  HEM142      0.0000
     37  O1D        7.0080    6.7520  -24.2280 O.co2 142  HEM142      0.0000
     38  O2D        4.9610    5.8000  -24.1710 O.co2 142  HEM142      0.0000
     39  NA         7.0780    9.6520  -17.3350 N.2   142  HEM142      0.0000
     40  NB         7.3520    8.9700  -14.5450 N.ar  142  HEM142      0.0000
     41  NC         5.7990    6.6420  -14.9600 N.2   142  HEM142      0.0000
     42  ND         5.6150    7.2660  -17.7360 N.ar  142  HEM142      0.0000
     43 FE          6.0250    8.4320  -16.0540 Fe    142  HEM142      0.0000
@<TRIPOS>BOND
     1    37    36   ar
     2    38    36   ar
     3    36    35    1
     4    14    12   ar
     5    13    12   ar
     6    12    11    1
     7    35    34    1
     8    34    31    1
     9    11    10    2
    10    10     6    1
    11    31    30   ar
    12    31    32   ar
    13    33    30    1
    14     1    32    2
    15     1     5    1
    16     6     5    1
    17     6     7    2
    18    30    29   ar
    19    32    42   ar
    20     5    39    2
    21     7     9    1
    22     7     8    1
    23    29    42   ar
    24    29     4    2
    25    42    43    1
    26    39     8    1
    27    39    43    1
    28     8     2    2
    29     4    25    1
    30    43    41    1
    31    43    40    1
    32     2    15    1
    33    25    41    2
    34    25    24    1
    35    41    22    1
    36    15    40   ar
    37    15    16   ar
    38    40    18   ar
    39    27    24    1
    40    27    28    2
    41    24    23    2
    42    22    23    1
    43    22     3    2
    44    18     3    1
    45    18    17   ar
    46    16    19    1
    47    16    17   ar
    48    23    26    1
    49    17    20    1
    50    20    21    2
