@<TRIPOS>MOLECULE
1dxy_NAD_A_1.pdb
 44 48 0 0 0
SMALL
GASTEIGER

@<TRIPOS>ATOM
      1  PA        79.7930   44.8760   -9.9500 P.3   336  NAD336      0.2189
      2  O1A       80.0010   44.8880   -8.4590 O.3   336  NAD336     -0.4371
      3  O2A       78.4260   45.1580  -10.4890 O.2   336  NAD336     -0.5170
      4  O5B       80.4040   43.4800  -10.5080 O.3   336  NAD336     -0.3112
      5  C5B       81.6650   42.9300  -10.1200 C.3   336  NAD336      0.1813
      6  C4B       81.4880   41.4310  -10.2450 C.3   336  NAD336      0.1821
      7  O4B       82.7670   40.8020  -10.1670 O.3   336  NAD336     -0.3135
      8  C3B       80.6140   40.7760   -9.1780 C.3   336  NAD336      0.2184
      9  O3B       79.5740   40.0580   -9.8590 O.3   336  NAD336     -0.2174
     10  C2B       81.5480   39.8460   -8.3840 C.3   336  NAD336      0.2570
     11  O2B       80.9990   38.5760   -7.9890 O.3   336  NAD336     -0.2130
     12  C1B       82.6350   39.6090   -9.3940 C.3   336  NAD336      0.3186
     13  N9A       83.9430   39.2450   -8.8550 N.pl3 336  NAD336     -0.1439
     14  C8A       84.5430   39.5110   -7.6740 C.3   336  NAD336      0.3377
     15  N7A       85.8240   39.1010   -7.6760 N.2   336  NAD336     -0.2095
     16  C5A       85.9650   38.5120   -8.8690 C.2   336  NAD336      0.2526
     17  C6A       87.0490   37.7140   -9.3130 C.2   336  NAD336      0.4393
     18  N6A       88.0750   37.3750   -8.5170 N.pl3 336  NAD336      0.2180
     19  N1A       86.9140   37.1600  -10.5630 N.2   336  NAD336      0.0021
     20  C2A       85.8150   37.3410  -11.3180 C.3   336  NAD336      0.5254
     21  N3A       84.7700   38.0540  -10.8880 N.2   336  NAD336     -0.0055
     22  C4A       84.8150   38.6290   -9.6500 C.2   336  NAD336      0.3518
     23  O3        80.8600   45.9040  -10.5710 O.3   336  NAD336     -0.2703
     24  PN        80.9180   46.8370  -11.8650 P.3   336  NAD336      0.2189
     25  O1N       80.6970   45.8690  -12.9790 O.2   336  NAD336     -0.5170
     26  O2N       79.9420   47.9580  -11.7140 O.3   336  NAD336     -0.4371
     27  O5D       82.4510   47.3520  -11.8350 O.3   336  NAD336     -0.3112
     28  C5D       83.5220   46.4940  -12.2660 C.3   336  NAD336      0.1813
     29  C4D       84.8080   47.2250  -11.9250 C.3   336  NAD336      0.1799
     30  O4D       85.0480   48.4520  -12.6810 O.3   336  NAD336     -0.3327
     31  C3D       84.8100   47.6580  -10.4600 C.3   336  NAD336      0.2158
     32  O3D       86.1510   47.5650   -9.9580 O.3   336  NAD336     -0.2175
     33  C2D       84.4670   49.1490  -10.4880 C.3   336  NAD336      0.2309
     34  O2D       84.8650   49.6520   -9.1870 O.3   336  NAD336     -0.2158
     35  C1D       85.3210   49.5290  -11.7190 C.3   336  NAD336      0.2263
     36  N1N       85.1220   50.9040  -12.2650 N.pl3 336  NAD336     -0.2787
     37  C2N       86.1400   51.4770  -13.0890 C.3   336  NAD336      0.1244
     38  C3N       85.9800   52.7660  -13.6390 C.2   336  NAD336      0.0544
     39  C7N       87.0620   53.4790  -14.5560 C.2   336  NAD336      0.2818
     40  O7N       86.9060   54.6340  -15.0010 O.2   336  NAD336     -0.2670
     41  N7N       88.1670   52.7820  -14.8980 N.am  336  NAD336     -0.0839
     42  C4N       84.7560   53.4110  -13.3020 C.2   336  NAD336      0.0033
     43  C5N       83.7390   52.8490  -12.4860 C.2   336  NAD336      0.0157
     44  C6N       83.9060   51.5750  -11.9570 C.2   336  NAD336      0.0633
@<TRIPOS>BOND
     1    40    39    2
     2    41    39   am
     3    39    38    1
     4    38    42    2
     5    38    37    1
     6    42    43    1
     7    37    36    1
     8    25    24    2
     9    30    29    1
    10    30    35    1
    11    43    44    2
    12    28    29    1
    13    28    27    1
    14    36    44    1
    15    36    35    1
    16    29    31    1
    17    24    27    1
    18    24    26    1
    19    24    23    1
    20    35    33    1
    21    20    21    1
    22    20    19    1
    23    21    22    2
    24    23     1    1
    25    19    17    2
    26     4     5    1
    27     4     1    1
    28     3     1    2
    29    33    31    1
    30    33    34    1
    31    31    32    1
    32     6     7    1
    33     6     5    1
    34     6     8    1
    35     7    12    1
    36     1     2    1
    37     9     8    1
    38    22    16    1
    39    22    13    1
    40    12    13    1
    41    12    10    1
    42    17    16    1
    43    17    18    1
    44     8    10    1
    45    16    15    2
    46    13    14    1
    47    10    11    1
    48    15    14    1
