@<TRIPOS>MOLECULE
1dy3_ATP_A_1.pdb
 31 33 0 0 0
SMALL
GASTEIGER

@<TRIPOS>ATOM
      1  PG        21.4580   33.5690   23.5430 P.3   200  ATP200      0.5373
      2  O1G       21.6490   32.7300   22.3510 O.2   200  ATP200     -0.2221
      3  O2G       20.7730   32.8060   24.6140 O.3   200  ATP200     -0.1143
      4  O3G       22.7900   34.0150   24.0290 O.3   200  ATP200     -0.1143
      5  PB        20.9480   36.1190   22.3410 P.3   200  ATP200      0.2277
      6  O1B       19.8030   36.7940   21.7270 O.3   200  ATP200     -0.4368
      7  O2B       21.9510   35.7010   21.4080 O.2   200  ATP200     -0.5168
      8  O3B       20.5530   34.8480   23.2380 O.3   200  ATP200     -0.2258
      9  PA        22.5150   38.3420   23.0890 P.3   200  ATP200      0.2189
     10  O1A       22.8950   38.5680   21.7350 O.2   200  ATP200     -0.5170
     11  O2A       21.8260   39.6450   23.4360 O.3   200  ATP200     -0.4371
     12  O3A       21.6520   37.0490   23.4430 O.3   200  ATP200     -0.2700
     13  O5'       23.7130   38.0600   24.0890 O.3   200  ATP200     -0.3112
     14  C5'       24.7240   39.0540   24.1810 C.3   200  ATP200      0.1813
     15  C4'       25.4380   38.8370   25.5360 C.3   200  ATP200      0.1821
     16  O4'       25.9470   37.4960   25.5590 O.3   200  ATP200     -0.3135
     17  C3'       26.6030   39.8050   25.6280 C.3   200  ATP200      0.2184
     18  O3'       26.6780   40.2870   27.0030 O.3   200  ATP200     -0.2174
     19  C2'       27.7950   38.8560   25.2400 C.3   200  ATP200      0.2570
     20  O2'       28.9160   39.3220   26.0420 O.3   200  ATP200     -0.2130
     21  C1'       27.3080   37.5100   25.8430 C.3   200  ATP200      0.3186
     22  N9        27.9600   36.3400   25.2870 N.pl3 200  ATP200     -0.1439
     23  C8        28.4410   35.2850   25.9860 C.3   200  ATP200      0.3377
     24  N7        28.8870   34.2860   25.2900 N.2   200  ATP200     -0.2095
     25  C5        28.7180   34.6750   24.0480 C.2   200  ATP200      0.2526
     26  C6        29.0100   34.0110   22.8790 C.2   200  ATP200      0.4393
     27  N6        29.5530   32.8000   22.7770 N.pl3 200  ATP200      0.2180
     28  N1        28.7320   34.6540   21.7210 N.2   200  ATP200      0.0021
     29  C2        28.1650   35.9100   21.7700 C.3   200  ATP200      0.5254
     30  N3        27.8430   36.6030   22.8470 N.2   200  ATP200     -0.0055
     31  C4        28.1410   35.9290   23.9700 C.2   200  ATP200      0.3518
@<TRIPOS>BOND
     1     7     5    2
     2    28    29    1
     3    28    26    2
     4     6     5    1
     5    10     9    2
     6    29    30    1
     7     5     8    1
     8     5    12    1
     9     2     1    2
    10    27    26    1
    11    30    31    2
    12    26    25    1
    13     9    11    1
    14     9    12    1
    15     9    13    1
    16     8     1    1
    17     1     4    1
    18     1     3    1
    19    31    25    1
    20    31    22    1
    21    25    24    2
    22    13    14    1
    23    14    15    1
    24    19    17    1
    25    19    21    1
    26    19    20    1
    27    22    21    1
    28    22    23    1
    29    24    23    1
    30    15    16    1
    31    15    17    1
    32    16    21    1
    33    17    18    1
