@<TRIPOS>MOLECULE
1dy3_87Y_A_1.pdb
 23 25 0 0 0
SMALL
GASTEIGER

@<TRIPOS>ATOM
      1  N2        16.6360   30.9620   15.5010 N.2   201  87Y201     -0.2466
      2  C3        17.3990   31.7510   16.2930 C.1   201  87Y201      0.2569
      3  O8        18.4720   32.2100   15.7890 O.2   201  87Y201     -0.2052
      4  C7        16.9420   31.8670   17.6730 C.2   201  87Y201      0.2989
      5  N10       17.7180   32.5990   18.6070 N.2   201  87Y201     -0.3832
      6  C12       17.2880   32.8440   19.7840 C.2   201  87Y201      0.1423
      7  C15       17.9240   33.7450   20.8070 C.3   201  87Y201      0.2378
      8  O16       19.2710   33.6830   20.3890 O.3   201  87Y201     -0.2126
      9  C11       15.9290   32.4220   20.2890 C.3   201  87Y201      0.1399
     10  C14       15.7640   32.0370   21.7350 C.3   201  87Y201      0.0345
     11  C13       15.1810   33.8360   20.1080 C.3   201  87Y201      0.0322
     12  N9        15.1930   31.6010   19.3130 N.2   201  87Y201     -0.2040
     13  C6        15.7410   31.4020   18.1030 C.1   201  87Y201      0.1400
     14  N4        15.0430   30.6280   17.1430 N.2   201  87Y201     -0.2672
     15  C1        15.5120   30.3920   15.9410 C.1   201  87Y201      0.2609
     16  N5        14.8250   29.5970   15.1340 N.pl3 201  87Y201     -0.0220
     17  C17       16.5780   30.6970   21.8470 C.3   201  87Y201      0.0287
     18  C18       16.0970   30.0550   23.1220 C.ar  201  87Y201     -0.0221
     19  C19       16.2830   30.6070   24.3760 C.ar  201  87Y201     -0.0043
     20  C20       15.8820   30.0410   25.5890 C.ar  201  87Y201     -0.0003
     21  C21       15.2350   28.7980   25.5250 C.ar  201  87Y201     -0.0000
     22  C22       15.0530   28.2380   24.2560 C.ar  201  87Y201     -0.0003
     23  C23       15.4590   28.7970   23.0390 C.ar  201  87Y201     -0.0043
@<TRIPOS>BOND
     1    16    15    1
     2     1    15    2
     3     1     2    2
     4     3     2    2
     5    15    14    2
     6     2     4    1
     7    14    13    2
     8     4    13    1
     9     4     5    2
    10    13    12    2
    11     5     6    2
    12    12     9    1
    13     6     9    1
    14     6     7    1
    15    11     9    1
    16     9    10    1
    17     8     7    1
    18    10    17    1
    19    17    18    1
    20    23    18   ar
    21    23    22   ar
    22    18    19   ar
    23    22    21   ar
    24    19    20   ar
    25    21    20   ar
