@<TRIPOS>MOLECULE
1dy4_SNP_A_1.pdb
 19 20 0 0 0
SMALL
GASTEIGER

@<TRIPOS>ATOM
      1  C1        24.3160   54.8910   90.5540 C.ar  437  SNP437      0.1386
      2  C2        23.9770   54.1950   91.7520 C.ar  437  SNP437      0.0369
      3  C3        22.6480   53.7560   92.0320 C.ar  437  SNP437      0.0031
      4  C4        21.6110   54.0220   91.0850 C.ar  437  SNP437      0.0002
      5  C5        20.8780   54.9610   88.9690 C.ar  437  SNP437      0.0001
      6  C6        21.1500   55.6570   87.7500 C.ar  437  SNP437      0.0000
      7  C7        22.4810   56.0950   87.4710 C.ar  437  SNP437      0.0001
      8  C8        23.5190   55.8280   88.4210 C.ar  437  SNP437      0.0030
      9  C9        23.2560   55.1400   89.6330 C.ar  437  SNP437      0.0340
     10  C10       21.9120   54.7070   89.8930 C.ar  437  SNP437      0.0029
     11  O1        25.5940   55.3310   90.2450 O.3   437  SNP437     -0.4727
     12  C11       26.4520   55.8300   91.2610 C.3   437  SNP437      0.2395
     13  C12       27.6980   56.4180   90.5970 C.3   437  SNP437      0.2126
     14  O2        28.4170   55.3760   89.9660 O.3   437  SNP437     -0.2176
     15  C13       27.3520   57.4830   89.5430 C.3   437  SNP437      0.1253
     16  N1        28.3890   58.4990   89.5320 N.3   437  SNP437     -0.2167
     17  C14       28.3430   59.3960   88.3940 C.3   437  SNP437      0.0730
     18  C15       29.2470   58.8190   87.2860 C.3   437  SNP437      0.0188
     19  C16       28.8230   60.8130   88.7670 C.3   437  SNP437      0.0188
@<TRIPOS>BOND
     1    18    17    1
     2     7     6   ar
     3     7     8   ar
     4     6     5   ar
     5    17    19    1
     6    17    16    1
     7     8     9   ar
     8     5    10   ar
     9    16    15    1
    10    15    13    1
    11     9    10   ar
    12     9     1   ar
    13    10     4   ar
    14    14    13    1
    15    11     1    1
    16    11    12    1
    17     1     2   ar
    18    13    12    1
    19     4     3   ar
    20     2     3   ar
