@<TRIPOS>MOLECULE
1dy7_HEC_B_1.pdb
 43 50 0 0 0
SMALL
GASTEIGER

@<TRIPOS>ATOM
      1 FE         15.5220   27.9350   77.1260 Fe    601  HEC601      0.0000
      2  CHA       15.6070   30.4700   74.8110 C.2   601  HEC601      0.0000
      3  CHB       18.8900   27.5340   76.7920 C.2   601  HEC601      0.0000
      4  CHC       15.4740   25.5490   79.6100 C.2   601  HEC601      0.0000
      5  CHD       12.1370   28.0610   77.1810 C.2   601  HEC601      0.0000
      6  NA        16.9510   28.8240   76.0330 N.ar  601  HEC601      0.0000
      7  C1A       16.8070   29.8770   75.1500 C.ar  601  HEC601      0.0000
      8  C2A       18.1050   30.2530   74.6300 C.ar  601  HEC601      0.0000
      9  C3A       19.0100   29.4350   75.1770 C.ar  601  HEC601      0.0000
     10  C4A       18.3030   28.5220   76.0410 C.ar  601  HEC601      0.0000
     11  CMA       20.5410   29.3970   74.9590 C.3   601  HEC601      0.0000
     12  CAA       18.3140   31.3940   73.6130 C.3   601  HEC601      0.0000
     13  CBA       18.1180   30.9440   72.1500 C.3   601  HEC601      0.0000
     14  CGA       17.9360   32.0930   71.1840 C.2   601  HEC601      0.0000
     15  O1A       17.9840   31.7960   69.9600 O.co2 601  HEC601      0.0000
     16  O2A       17.7460   33.2190   71.7130 O.co2 601  HEC601      0.0000
     17  NB        16.8930   26.7710   78.0050 N.2   601  HEC601      0.0000
     18  C1B       18.2470   26.7430   77.7140 C.2   601  HEC601      0.0000
     19  C2B       18.8870   25.7780   78.5600 C.2   601  HEC601      0.0000
     20  C3B       17.9360   25.2540   79.3450 C.2   601  HEC601      0.0000
     21  C4B       16.6820   25.8640   79.0160 C.2   601  HEC601      0.0000
     22  CMB       20.4020   25.4700   78.5180 C.3   601  HEC601      0.0000
     23  CAB       18.1760   24.1500   80.4300 C.3   601  HEC601      0.0000
     24  CBB       18.9180   24.6830   81.4990 C.3   601  HEC601      0.0000
     25  NC        14.0940   27.0110   78.1840 N.ar  601  HEC601      0.0000
     26  C1C       14.2710   26.0630   79.1760 C.ar  601  HEC601      0.0000
     27  C2C       12.9750   25.6020   79.6600 C.ar  601  HEC601      0.0000
     28  C3C       12.0610   26.3110   78.9890 C.ar  601  HEC601      0.0000
     29  C4C       12.7180   27.1730   78.0560 C.ar  601  HEC601      0.0000
     30  CMC       12.7790   24.5280   80.7470 C.3   601  HEC601      0.0000
     31  CAC       10.4940   26.1560   79.1240 C.3   601  HEC601      0.0000
     32  CBC        9.9700   26.7730   80.2230 C.3   601  HEC601      0.0000
     33  ND        14.1470   29.0480   76.1720 N.2   601  HEC601      0.0000
     34  C1D       12.7760   28.9350   76.3260 C.2   601  HEC601      0.0000
     35  C2D       12.1410   29.8960   75.4540 C.2   601  HEC601      0.0000
     36  C3D       13.0890   30.5650   74.8040 C.2   601  HEC601      0.0000
     37  C4D       14.3750   30.0530   75.2640 C.2   601  HEC601      0.0000
     38  CMD       10.6000   30.0420   75.3740 C.3   601  HEC601      0.0000
     39  CAD       12.9560   31.6850   73.7550 C.3   601  HEC601      0.0000
     40  CBD       13.6300   33.0260   74.0200 C.3   601  HEC601      0.0000
     41  CGD       12.8120   33.9880   74.8340 C.2   601  HEC601      0.0000
     42  O1D       12.1790   33.4530   75.7890 O.co2 601  HEC601      0.0000
     43  O2D       12.8260   35.2080   74.5180 O.co2 601  HEC601      0.0000
@<TRIPOS>BOND
     1    15    14   ar
     2    14    16   ar
     3    14    13    1
     4    13    12    1
     5    12     8    1
     6    39    40    1
     7    39    36    1
     8    40    41    1
     9    43    41   ar
    10     8     7   ar
    11     8     9   ar
    12    36    37    1
    13    36    35    2
    14     2     7    2
    15     2    37    1
    16    41    42   ar
    17    11     9    1
    18     7     6   ar
    19     9    10   ar
    20    37    33    2
    21    38    35    1
    22    35    34    1
    23     6    10   ar
    24     6     1    1
    25    10     3    2
    26    33    34    1
    27    33     1    1
    28    34     5    2
    29     3    18    1
    30     1    17    1
    31     1    25    1
    32     5    29    1
    33    18    17    2
    34    18    19    1
    35    17    21    1
    36    29    25   ar
    37    29    28   ar
    38    25    26   ar
    39    22    19    1
    40    19    20    2
    41    28    31    1
    42    28    27   ar
    43    21    20    1
    44    21     4    2
    45    31    32    1
    46    26     4    1
    47    26    27   ar
    48    20    23    1
    49    27    30    1
    50    23    24    1
