@<TRIPOS>MOLECULE
1dy7_DHE_A_1.pdb
 49 56 0 0 0
SMALL
GASTEIGER

@<TRIPOS>ATOM
      1 FE         15.1300    3.0850   36.0720 Fe    602  DHE602      0.0000
      2  CHA       11.7320    2.7520   35.8110 C.2   602  DHE602      0.0000
      3  CHB       14.8760    3.5070   39.4110 C.2   602  DHE602      0.0000
      4  CHC       18.5140    2.6710   36.2980 C.2   602  DHE602      0.0000
      5  CHD       15.3930    3.5740   32.6700 C.2   602  DHE602      0.0000
      6  NA        13.5960    3.1210   37.3750 N.2   602  DHE602      0.0000
      7  C1A       12.2690    2.9400   37.0700 C.2   602  DHE602      0.0000
      8  C2A       11.5010    3.1320   38.2830 C.2   602  DHE602      0.0000
      9  C3A       12.3560    3.3650   39.2830 C.2   602  DHE602      0.0000
     10  C4A       13.6940    3.3610   38.7320 C.2   602  DHE602      0.0000
     11  CMA       12.0620    3.6060   40.7750 C.3   602  DHE602      0.0000
     12  CAA        9.9460    3.0810   38.3170 C.3   602  DHE602      0.0000
     13  CBA        9.4050    4.4530   37.8760 C.3   602  DHE602      0.0000
     14  CGA        7.9260    4.6980   37.9420 C.2   602  DHE602      0.0000
     15  O1A        7.1970    3.8980   38.5470 O.co2 602  DHE602      0.0000
     16  O2A        7.4900    5.7170   37.3510 O.co2 602  DHE602      0.0000
     17  NB        16.4470    3.0700   37.5770 N.pl3 602  DHE602      0.0000
     18  C1B       16.1480    3.3290   38.8900 C.2   602  DHE602      0.0000
     19  C2B       17.3860    3.3380   39.6270 C.2   602  DHE602      0.0000
     20  OMB       17.4470    3.6070   41.1080 O.2   602  DHE602      0.0000
     21  C3B       18.3310    2.8680   38.7980 C.2   602  DHE602      0.0000
     22  CGB       18.6250    1.4830   39.4180 C.3   602  DHE602      0.0000
     23  CAB       19.6650    3.5700   38.9320 C.3   602  DHE602      0.0000
     24  CBB       19.7740    4.7920   38.4310 C.2   602  DHE602      0.0000
     25  O1B       20.9160    5.2340   38.0650 O.co2 602  DHE602      0.0000
     26  O2B       18.7980    5.5640   38.2680 O.co2 602  DHE602      0.0000
     27  C4B       17.7960    2.8620   37.4590 C.2   602  DHE602      0.0000
     28  NC        16.6390    3.1440   34.7570 N.2   602  DHE602      0.0000
     29  C1C       17.9500    2.8810   35.0550 C.2   602  DHE602      0.0000
     30  C2C       18.6880    2.9290   33.7890 C.2   602  DHE602      0.0000
     31  OMC       20.1900    2.7090   33.7790 O.2   602  DHE602      0.0000
     32  C3C       17.8900    3.4360   32.8320 C.2   602  DHE602      0.0000
     33  CGC       17.9400    2.3930   31.6800 C.3   602  DHE602      0.0000
     34  CAC       18.2590    4.8210   32.3110 C.3   602  DHE602      0.0000
     35  CBC       18.5570    5.7570   33.2220 C.2   602  DHE602      0.0000
     36  O1C       18.4450    6.9750   32.9590 O.co2 602  DHE602      0.0000
     37  O2C       18.9830    5.5830   34.4040 O.co2 602  DHE602      0.0000
     38  C4C       16.5400    3.3660   33.3990 C.2   602  DHE602      0.0000
     39  ND        13.8150    3.1780   34.5680 N.ar  602  DHE602      0.0000
     40  C1D       14.1380    3.3720   33.2440 C.ar  602  DHE602      0.0000
     41  C2D       12.9410    3.1380   32.4480 C.ar  602  DHE602      0.0000
     42  C3D       11.9400    2.9010   33.2990 C.ar  602  DHE602      0.0000
     43  C4D       12.4670    2.9280   34.6490 C.ar  602  DHE602      0.0000
     44  CMD       12.8910    3.2220   30.9060 C.3   602  DHE602      0.0000
     45  CAD       10.4570    2.6130   33.0510 C.2   602  DHE602      0.0000
     46  CBD       10.0660    1.7540   31.8970 C.2   602  DHE602      0.0000
     47  CGD        8.6340    1.3060   31.8100 C.2   602  DHE602      0.0000
     48  O1D        8.3610    0.7270   30.7410 O.co2 602  DHE602      0.0000
     49  O2D        7.8860    1.5860   32.7900 O.co2 602  DHE602      0.0000
@<TRIPOS>BOND
     1    48    47   ar
     2    44    41    1
     3    33    32    1
     4    47    46    1
     5    47    49   ar
     6    46    45    2
     7    34    32    1
     8    34    35    1
     9    41    40   ar
    10    41    42   ar
    11     5    40    2
    12     5    38    1
    13    32    38    1
    14    32    30    2
    15    36    35   ar
    16    45    42    1
    17    35    37   ar
    18    40    39   ar
    19    42    43   ar
    20    38    28    2
    21    31    30    1
    22    30    29    1
    23    39    43   ar
    24    39     1    1
    25    43     2    2
    26    28    29    1
    27    28     1    1
    28    29     4    2
    29     2     7    1
    30     1     6    1
    31     1    17    1
    32     4    27    1
    33     7     6    2
    34     7     8    1
    35    16    14   ar
    36     6    10    1
    37    27    17    1
    38    27    21    2
    39    17    18    1
    40    13    14    1
    41    13    12    1
    42    14    15   ar
    43    25    24   ar
    44    26    24   ar
    45     8    12    1
    46     8     9    2
    47    24    23    1
    48    10     9    1
    49    10     3    2
    50    21    23    1
    51    21    22    1
    52    21    19    1
    53    18     3    1
    54    18    19    2
    55     9    11    1
    56    19    20    1
