@<TRIPOS>MOLECULE
1dy8_0F7_A_1.pdb
 37 37 0 0 0
SMALL
GASTEIGER

@<TRIPOS>ATOM
      1  C1        56.9190  -11.7980   10.1550 C.2   401  0F7401      0.4218
      2  O1        56.8700  -10.5610   10.1530 O.2   401  0F7401     -0.2245
      3  O2        56.3410  -12.5950    9.2440 O.3   401  0F7401     -0.4285
      4  C2        54.9450  -12.9090    9.2480 C.3   401  0F7401      0.2368
      5  C3        54.5120  -12.9250    7.8010 C.ar  401  0F7401      0.0213
      6  C4        55.3430  -13.4760    6.8150 C.ar  401  0F7401     -0.0007
      7  C5        54.9760  -13.4960    5.4750 C.ar  401  0F7401     -0.0002
      8  C6        53.7560  -12.9630    5.0830 C.ar  401  0F7401     -0.0000
      9  C7        52.9170  -12.4100    6.0530 C.ar  401  0F7401     -0.0002
     10  C8        53.2900  -12.3920    7.4000 C.ar  401  0F7401     -0.0007
     11  N         58.0110  -12.4100   10.7160 N.am  401  0F7401     -0.1611
     12  CA        59.3310  -11.8290   10.6410 C.3   401  0F7401      0.1760
     13  C         60.1170  -12.1890    9.3650 C.2   401  0F7401      0.2617
     14  O         60.5480  -13.3130    9.0460 O.2   401  0F7401     -0.2715
     15  CB        60.1210  -12.0240   11.9240 C.3   401  0F7401      0.0291
     16  CG1       59.2350  -11.6410   13.1220 C.3   401  0F7401      0.0022
     17  CG2       61.3650  -11.1500   11.8150 C.3   401  0F7401      0.0023
     18  CD1       59.6890  -12.3200   14.4230 C.3   401  0F7401      0.0001
     19  N1        60.3890  -11.1050    8.5830 N.am  401  0F7401     -0.1963
     20  CA1       61.0530  -11.2140    7.2540 C.3   401  0F7401      0.1728
     21  C9        62.4850  -11.6350    7.6020 C.2   401  0F7401      0.2613
     22  O3        63.1380  -10.8820    8.3190 O.2   401  0F7401     -0.2715
     23  CB1       61.0220   -9.8360    6.5830 C.3   401  0F7401      0.0311
     24  CG        59.6560   -9.3150    6.0820 C.3   401  0F7401      0.0022
     25 CD11       59.7490   -7.9360    5.4190 C.3   401  0F7401      0.0001
     26  CD2       58.9710  -10.2590    5.1160 C.3   401  0F7401      0.0001
     27  N2        63.0080  -12.7510    7.0720 N.am  401  0F7401     -0.2023
     28  CA2       64.3450  -13.1460    7.5260 C.3   401  0F7401      0.1425
     29  CC        65.3570  -13.1020    6.3110 C.3   401  0F7401      0.2737
     30  O4        65.2020  -11.8380    5.6480 O.3   401  0F7401     -0.2090
     31  CB2       64.4430  -14.6660    7.8760 C.3   401  0F7401      0.0971
     32  CG3       64.0850  -15.0770    9.3080 C.3   401  0F7401      0.3204
     33  F1        62.7920  -15.3210    9.4690 F     401  0F7401     -0.1984
     34  F2        64.3020  -14.1000   10.2070 F     401  0F7401     -0.1984
     35  CD        66.7700  -13.1810    7.0000 C.2   401  0F7401      0.3964
     36  OE1       67.1140  -12.4100    7.8850 O.co2 401  0F7401     -0.2428
     37  OE2       67.5400  -14.0480    6.6080 O.co2 401  0F7401     -0.2428
@<TRIPOS>BOND
     1     8     7   ar
     2     8     9   ar
     3    26    24    1
     4    25    24    1
     5     7     6   ar
     6    30    29    1
     7     9    10   ar
     8    24    23    1
     9    29    35    1
    10    29    28    1
    11    23    20    1
    12    37    35   ar
    13     6     5   ar
    14    35    36   ar
    15    27    28    1
    16    27    21   am
    17    20    21    1
    18    20    19    1
    19    10     5   ar
    20    28    31    1
    21    21    22    2
    22     5     4    1
    23    31    32    1
    24    19    13   am
    25    14    13    2
    26     3     4    1
    27     3     1    1
    28    32    33    1
    29    32    34    1
    30    13    12    1
    31     2     1    2
    32     1    11   am
    33    12    11    1
    34    12    15    1
    35    17    15    1
    36    15    16    1
    37    16    18    1
