@<TRIPOS>MOLECULE
1dy9_2ZF_A_1.pdb
 35 34 0 0 0
SMALL
GASTEIGER

@<TRIPOS>ATOM
      1  O1        38.2720   44.0810    9.4070 O.2   401  2ZF401     -0.2246
      2  C         39.3410   43.5470    9.6670 C.2   401  2ZF401      0.4213
      3  O2        39.6910   42.2820    9.3610 O.3   401  2ZF401     -0.4408
      4  CT        38.8440   41.3720    8.6540 C.3   401  2ZF401      0.1379
      5  C1        39.5170   39.9850    8.7360 C.3   401  2ZF401      0.0437
      6  C2        37.4740   41.2690    9.3420 C.3   401  2ZF401      0.0437
      7  C3        38.6570   41.7380    7.1730 C.3   401  2ZF401      0.0437
      8  N         40.3700   44.1680   10.3130 N.am  401  2ZF401     -0.1611
      9  CA        40.2980   45.5580   10.7390 C.3   401  2ZF401      0.1767
     10  C4        41.0360   46.3810    9.6400 C.2   401  2ZF401      0.2617
     11  O         42.2680   46.3660    9.4890 O.2   401  2ZF401     -0.2715
     12  CB        40.8790   45.8780   12.1380 C.3   401  2ZF401      0.0430
     13  CG        40.0040   46.8710   12.9630 C.3   401  2ZF401      0.1163
     14  CD        40.2880   46.7020   14.4850 C.2   401  2ZF401      0.3649
     15  OE1       41.4590   46.6650   14.8560 O.co2 401  2ZF401     -0.2457
     16  OE2       39.4470   46.1010   15.1470 O.co2 401  2ZF401     -0.2457
     17  N1        40.1820   47.1580    8.8820 N.am  401  2ZF401     -0.1963
     18  CA1       40.6040   47.7940    7.6250 C.3   401  2ZF401      0.1728
     19  C5        41.7600   48.7000    8.0490 C.2   401  2ZF401      0.2613
     20  O3        41.7050   49.3320    9.1080 O.2   401  2ZF401     -0.2715
     21  CB1       39.4870   48.5930    6.9820 C.3   401  2ZF401      0.0311
     22  CG1       38.2900   47.7680    6.4660 C.3   401  2ZF401      0.0022
     23  CD1       37.1860   48.6190    5.8140 C.3   401  2ZF401      0.0001
     24  CD2       38.7760   46.6940    5.4920 C.3   401  2ZF401      0.0001
     25  N2        42.8920   48.5620    7.3140 N.am  401  2ZF401     -0.2023
     26  CA2       44.2030   49.0740    7.5930 C.3   401  2ZF401      0.1425
     27  C6        44.5720   50.2300    6.5330 C.3   401  2ZF401      0.2737
     28  O4        43.3200   50.9200    6.2350 O.3   401  2ZF401     -0.2090
     29  CB2       44.6350   49.7010    8.8900 C.3   401  2ZF401      0.0971
     30  CG2       45.2130   48.7550    9.9910 C.3   401  2ZF401      0.3204
     31  F1        45.3000   47.4950    9.5400 F     401  2ZF401     -0.1984
     32  F2        44.3880   48.7620   11.0640 F     401  2ZF401     -0.1984
     33  CD3       45.4330   51.2990    7.3710 C.2   401  2ZF401      0.3964
     34 OE11       44.8330   51.9470    8.2380 O.co2 401  2ZF401     -0.2428
     35 OE21       46.2230   51.9700    6.7010 O.co2 401  2ZF401     -0.2428
@<TRIPOS>BOND
     1    24    22    1
     2    23    22    1
     3    28    27    1
     4    22    21    1
     5    27    33    1
     6    27    26    1
     7    35    33   ar
     8    21    18    1
     9     7     4    1
    10    25    26    1
    11    25    19   am
    12    33    34   ar
    13    26    29    1
    14    18    19    1
    15    18    17    1
    16    19    20    2
    17     4     5    1
    18     4     6    1
    19     4     3    1
    20    17    10   am
    21    29    30    1
    22     3     2    1
    23     1     2    2
    24    11    10    2
    25    31    30    1
    26    10     9    1
    27     2     8   am
    28    30    32    1
    29     8     9    1
    30     9    12    1
    31    12    13    1
    32    13    14    1
    33    14    15   ar
    34    14    16   ar
