@<TRIPOS>MOLECULE
1dyh_DZF_A_1.pdb
 32 34 0 0 0
SMALL
GASTEIGER

@<TRIPOS>ATOM
      1  N1        23.0200   57.8300   22.4720 N.2   161  DZF161     -0.2695
      2  C2        23.8920   58.2500   23.3530 C.1   161  DZF161      0.2608
      3  NA2       25.1110   58.3170   23.2670 N.pl3 161  DZF161     -0.0220
      4  N3        23.3840   58.6900   24.5280 N.2   161  DZF161     -0.2490
      5  C4        22.0630   58.7300   24.8720 C.1   161  DZF161      0.2263
      6  O4        21.7320   59.2000   26.0820 O.2   161  DZF161     -0.2078
      7  C4A       21.1340   58.2510   23.8380 C.2   161  DZF161      0.1696
      8  C5        19.6820   58.4650   24.0340 C.2   161  DZF161      0.0229
      9  C6        18.9040   58.2390   22.9230 C.2   161  DZF161      0.0208
     10  C7        19.6440   57.8040   21.6950 C.2   161  DZF161      0.1080
     11  N8        20.9350   57.6210   21.5260 N.2   161  DZF161     -0.1812
     12  C8A       21.6880   57.8490   22.6910 C.1   161  DZF161      0.1132
     13  C9        17.4980   58.4230   23.0080 C.3   161  DZF161      0.1401
     14  N10       17.1430   59.0170   24.2920 N.pl3 161  DZF161     -0.2328
     15  C11       17.7820   63.2960   24.9890 C.ar  161  DZF161      0.0551
     16  C12       17.0540   62.4100   25.8860 C.ar  161  DZF161      0.0059
     17  C13       16.8480   60.9690   25.6080 C.ar  161  DZF161      0.0162
     18  C14       17.3560   60.3110   24.4520 C.ar  161  DZF161      0.0657
     19  C15       18.0070   61.0560   23.5810 C.ar  161  DZF161      0.0162
     20  C16       18.2950   62.6950   23.8150 C.ar  161  DZF161      0.0059
     21  C         17.9750   64.7850   25.2850 C.2   161  DZF161      0.2652
     22  O         17.2850   65.3730   26.1870 O.2   161  DZF161     -0.2684
     23  N         18.9640   65.4360   24.5560 N.am  161  DZF161     -0.1918
     24  CA        19.2740   66.8220   24.5200 C.3   161  DZF161      0.1986
     25  CB        20.4770   67.2250   25.4600 C.3   161  DZF161      0.0451
     26  CG        20.0090   67.9340   26.7840 C.3   161  DZF161      0.1164
     27  CD        21.2450   67.9380   27.5370 C.2   161  DZF161      0.3649
     28  OE1       20.9530   68.2260   28.8310 O.co2 161  DZF161     -0.2457
     29  OE2       22.5310   67.6030   26.9520 O.co2 161  DZF161     -0.2457
     30  CT        19.7150   67.1370   23.2770 C.2   161  DZF161      0.3842
     31  O1        20.2240   66.2850   22.5060 O.co2 161  DZF161     -0.2437
     32  O2        19.5820   68.3500   22.9720 O.co2 161  DZF161     -0.2437
@<TRIPOS>BOND
     1    11    10    1
     2    11    12    2
     3    10     9    2
     4     1    12    2
     5     1     2    2
     6    31    30   ar
     7    12     7    1
     8     9    13    1
     9     9     8    1
    10    32    30   ar
    11    13    14    1
    12     3     2    1
    13    30    24    1
    14     2     4    2
    15    19    20   ar
    16    19    18   ar
    17    20    15   ar
    18     7     8    2
    19     7     5    1
    20    14    18    1
    21    18    17   ar
    22    24    23    1
    23    24    25    1
    24     4     5    2
    25    23    21   am
    26     5     6    2
    27    15    21    1
    28    15    16   ar
    29    21    22    2
    30    25    26    1
    31    17    16   ar
    32    26    27    1
    33    29    27   ar
    34    27    28   ar
