@<TRIPOS>MOLECULE
1dyi_FOL_A_1.pdb
 32 34 0 0 0
SMALL
GASTEIGER

@<TRIPOS>ATOM
      1  N1        22.9430   57.8290   22.3890 N.2   161  FOL161     -0.2672
      2  C2        23.8330   58.1730   23.2970 C.1   161  FOL161      0.2609
      3  NA2       25.0180   58.1950   23.1760 N.pl3 161  FOL161     -0.0220
      4  N3        23.3890   58.5110   24.5100 N.2   161  FOL161     -0.2466
      5  C4        22.1400   58.5150   24.8030 C.1   161  FOL161      0.2569
      6  O4        21.8260   58.8150   25.8900 O.2   161  FOL161     -0.2052
      7  C4A       21.2180   58.1730   23.7690 C.2   161  FOL161      0.2988
      8  N5        19.8450   58.3480   23.9730 N.2   161  FOL161     -0.3839
      9  C6        19.0970   58.1020   22.8470 C.2   161  FOL161      0.1356
     10  C7        19.7540   57.7560   21.6740 C.3   161  FOL161      0.1931
     11  N8        20.8930   57.6150   21.4840 N.2   161  FOL161     -0.1992
     12  C8A       21.6700   57.8380   22.6010 C.1   161  FOL161      0.1401
     13  C9        17.7090   58.2260   22.9940 C.3   161  FOL161      0.1683
     14  N10       17.2790   58.9140   24.3080 N.pl3 161  FOL161     -0.2303
     15  C11       17.9170   63.1270   25.0090 C.ar  161  FOL161      0.0551
     16  C12       17.1560   62.3110   25.8830 C.ar  161  FOL161      0.0059
     17  C13       16.8960   60.8670   25.6890 C.ar  161  FOL161      0.0162
     18  C14       17.4630   60.2350   24.4970 C.ar  161  FOL161      0.0658
     19  C15       18.1300   61.0050   23.6860 C.ar  161  FOL161      0.0162
     20  C16       18.3880   62.5060   23.9360 C.ar  161  FOL161      0.0059
     21  C         18.1390   64.5780   25.2460 C.2   161  FOL161      0.2652
     22  O         17.3730   65.3190   26.1430 O.2   161  FOL161     -0.2684
     23  N         19.1030   65.1750   24.5920 N.am  161  FOL161     -0.1918
     24  CA        19.2350   66.5780   24.5030 C.3   161  FOL161      0.1986
     25  CB        20.5010   67.0680   25.3770 C.3   161  FOL161      0.0451
     26  CG        20.0200   67.8210   26.4690 C.3   161  FOL161      0.1164
     27  CD        20.9420   67.7310   27.3440 C.2   161  FOL161      0.3649
     28  OE1       20.3060   67.5110   28.6280 O.co2 161  FOL161     -0.2457
     29  OE2       22.2100   67.7650   26.9490 O.co2 161  FOL161     -0.2457
     30  CT        19.6790   66.9190   23.1980 C.2   161  FOL161      0.3842
     31  O1        20.3550   66.0800   22.4200 O.co2 161  FOL161     -0.2437
     32  O2        19.5400   68.0780   22.9840 O.co2 161  FOL161     -0.2437
@<TRIPOS>BOND
     1    11    10    1
     2    11    12    2
     3    10     9    1
     4     1    12    2
     5     1     2    2
     6    31    30   ar
     7    12     7    1
     8     9    13    1
     9     9     8    2
    10    32    30   ar
    11    13    14    1
    12     3     2    1
    13    30    24    1
    14     2     4    2
    15    19    20   ar
    16    19    18   ar
    17     7     8    2
    18     7     5    1
    19    20    15   ar
    20    14    18    1
    21    18    17   ar
    22    24    23    1
    23    24    25    1
    24     4     5    2
    25    23    21   am
    26     5     6    2
    27    15    21    1
    28    15    16   ar
    29    21    22    2
    30    25    26    1
    31    17    16   ar
    32    26    27    1
    33    29    27   ar
    34    27    28   ar
