@<TRIPOS>MOLECULE
1dyj_DDF_A_1.pdb
 32 34 0 0 0
SMALL
GASTEIGER

@<TRIPOS>ATOM
      1  N1        22.7980   57.8870   22.4760 N.2   161  DDF161     -0.2739
      2  C2        23.5750   58.2560   23.4490 C.1   161  DDF161      0.2602
      3  NA2       24.7520   58.6100   23.3310 N.pl3 161  DDF161     -0.0221
      4  N3        23.0640   58.2490   24.7970 N.2   161  DDF161     -0.2529
      5  C4        21.8110   57.8610   25.0190 C.1   161  DDF161      0.2060
      6  O4        21.3850   57.8390   26.1940 O.2   161  DDF161     -0.2123
      7  C4A       21.0120   57.4890   23.9200 C.3   161  DDF161      0.2157
      8  C5        19.5280   57.2030   24.2130 C.3   161  DDF161      0.0360
      9  C6        18.7230   57.4370   23.0510 C.3   161  DDF161      0.0278
     10  C7        19.3770   56.9320   21.8460 C.3   161  DDF161      0.1370
     11  N8        20.7250   57.2910   21.5410 N.2   161  DDF161     -0.2122
     12  C8A       21.5030   57.4980   22.7180 C.1   161  DDF161      0.0888
     13  C9        18.4610   58.9380   22.9670 C.3   161  DDF161      0.0068
     14  C10       17.6170   59.3310   24.1190 C.3   161  DDF161      0.0264
     15  C11       18.1040   63.7020   25.0270 C.ar  161  DDF161      0.0550
     16  C12       17.5770   62.8170   25.9410 C.ar  161  DDF161      0.0042
     17  C13       17.4040   61.4210   25.6500 C.ar  161  DDF161     -0.0041
     18  C14       17.7940   60.8620   24.3650 C.ar  161  DDF161     -0.0222
     19  C15       18.3350   61.7770   23.4460 C.ar  161  DDF161     -0.0041
     20  C16       18.4720   63.1740   23.8020 C.ar  161  DDF161      0.0042
     21  C         18.2630   65.2040   25.3110 C.2   161  DDF161      0.2652
     22  O         17.6090   65.7550   26.2930 O.2   161  DDF161     -0.2684
     23  N         19.0110   65.8890   24.3870 N.am  161  DDF161     -0.1918
     24  CA        19.5090   67.1560   24.3870 C.3   161  DDF161      0.1986
     25  CB        20.5940   67.3210   25.3180 C.3   161  DDF161      0.0451
     26  CG        20.0900   68.1550   26.3940 C.3   161  DDF161      0.1164
     27  CD        21.0670   68.0210   27.3170 C.2   161  DDF161      0.3649
     28  OE1       20.4730   67.9220   28.5530 O.co2 161  DDF161     -0.2457
     29  OE2       22.3580   67.9540   26.9650 O.co2 161  DDF161     -0.2457
     30  CT        19.9390   67.4030   23.1710 C.2   161  DDF161      0.3842
     31  O1        20.4370   66.4740   22.4560 O.co2 161  DDF161     -0.2437
     32  O2        19.7030   68.6090   22.8070 O.co2 161  DDF161     -0.2437
@<TRIPOS>BOND
     1    11    10    1
     2    11    12    2
     3    10     9    1
     4    31    30   ar
     5     1    12    2
     6     1     2    2
     7    12     7    1
     8    32    30   ar
     9    13     9    1
    10    13    14    1
    11     9     8    1
    12    30    24    1
    13     3     2    1
    14    19    20   ar
    15    19    18   ar
    16     2     4    2
    17    20    15   ar
    18     7     8    1
    19     7     5    1
    20    14    18    1
    21    18    17   ar
    22    23    24    1
    23    23    21   am
    24    24    25    1
    25     4     5    2
    26     5     6    2
    27    15    21    1
    28    15    16   ar
    29    21    22    2
    30    25    26    1
    31    17    16   ar
    32    26    27    1
    33    29    27   ar
    34    27    28   ar
