@<TRIPOS>MOLECULE
1dym_NAG_A_1.pdb
 14 14 0 0 0
SMALL
GASTEIGER

@<TRIPOS>ATOM
      1  C1       -17.8570   20.7490    8.2050 C.3   800  NAG800      0.1665
      2  C2       -17.8170   22.2790    8.3420 C.3   800  NAG800      0.1576
      3  C3       -19.1730   22.8690    7.9580 C.3   800  NAG800      0.2069
      4  C4       -19.5430   22.4190    6.5340 C.3   800  NAG800      0.2134
      5  C5       -19.4240   20.8780    6.3990 C.3   800  NAG800      0.1809
      6  C6       -19.5520   20.4850    4.9290 C.3   800  NAG800      0.2141
      7  C7       -16.4710   23.4490   10.1260 C.2   800  NAG800      0.2420
      8  C8       -16.3780   23.6200   11.5960 C.3   800  NAG800      0.0964
      9  N2       -17.5110   22.6800    9.7120 N.am  800  NAG800     -0.2019
     10  O3       -19.0910   24.2930    7.9720 O.3   800  NAG800     -0.2184
     11  O4       -20.9220   22.8070    6.2800 O.3   800  NAG800     -0.2176
     12  O5       -18.1400   20.4140    6.8170 O.3   800  NAG800     -0.3489
     13  O6       -19.6280   19.1060    4.7810 O.3   800  NAG800     -0.2176
     14  O7       -15.7400   23.8990    9.3570 O.2   800  NAG800     -0.2733
@<TRIPOS>BOND
     1    13     6    1
     2     6     5    1
     3    11     4    1
     4     5     4    1
     5     5    12    1
     6     4     3    1
     7    12     1    1
     8     3    10    1
     9     3     2    1
    10     1     2    1
    11     2     9    1
    12    14     7    2
    13     9     7   am
    14     7     8    1
