@<TRIPOS>MOLECULE
1dyr_NDP_A_1.pdb
 48 52 0 0 0
SMALL
GASTEIGER

@<TRIPOS>ATOM
      1  PA        28.0870    9.7100   -3.1160 P.3   391  NDP391      0.2189
      2  O1A       28.0010    9.3620   -1.7140 O.3   391  NDP391     -0.4371
      3  O2A       26.7210    9.8450   -3.7220 O.2   391  NDP391     -0.5170
      4  O5B       28.8250   11.1130   -3.3170 O.3   391  NDP391     -0.3112
      5  C5B       30.1920   11.2170   -2.8480 C.3   391  NDP391      0.1813
      6  C4B       30.4550   12.6900   -2.5830 C.3   391  NDP391      0.1820
      7  O4B       29.5140   13.2090   -1.6280 O.3   391  NDP391     -0.3136
      8  C3B       31.8730   12.9970   -2.0030 C.3   391  NDP391      0.2157
      9  O3B       32.8010   12.8970   -3.0920 O.3   391  NDP391     -0.2175
     10  C2B       31.5530   14.3590   -1.3090 C.3   391  NDP391      0.2314
     11  O2B       31.2490   15.5340   -2.1310 O.3   391  NDP391     -0.2630
     12  C1B       30.2100   13.9630   -0.7060 C.3   391  NDP391      0.3158
     13  N9A       30.1880   13.2480    0.5140 N.pl3 391  NDP391     -0.1439
     14  C8A       29.7050   11.9530    0.7180 C.3   391  NDP391      0.3377
     15  N7A       29.8150   11.5600    1.9710 N.2   391  NDP391     -0.2095
     16  C5A       30.3560   12.6650    2.5950 C.2   391  NDP391      0.2526
     17  C6A       30.6290   12.8970    3.9590 C.2   391  NDP391      0.4393
     18  N6A       30.4050   11.9740    4.8910 N.pl3 391  NDP391      0.2180
     19  N1A       31.1840   14.0810    4.2650 N.2   391  NDP391      0.0021
     20  C2A       31.3760   15.0040    3.2770 C.3   391  NDP391      0.5254
     21  N3A       31.1190   14.9090    2.0150 N.2   391  NDP391     -0.0055
     22  C4A       30.6010   13.6850    1.7300 C.2   391  NDP391      0.3518
     23  O3        28.9660    8.7930   -3.9570 O.3   391  NDP391     -0.2703
     24  PN        29.5680    7.3410   -4.2540 P.3   391  NDP391      0.2189
     25  O1N       30.1630    6.7470   -3.0630 O.3   391  NDP391     -0.4371
     26  O2N       30.5840    7.5030   -5.3010 O.2   391  NDP391     -0.5170
     27  O5D       28.2970    6.4960   -4.7270 O.3   391  NDP391     -0.3112
     28  C5D       27.7800    6.7220   -6.0600 C.3   391  NDP391      0.1813
     29  C4D       27.2350    5.4330   -6.5880 C.3   391  NDP391      0.1799
     30  O4D       26.2000    4.9250   -5.6810 O.3   391  NDP391     -0.3327
     31  C3D       26.6220    5.4770   -7.9890 C.3   391  NDP391      0.2158
     32  O3D       27.0270    4.2890   -8.7290 O.3   391  NDP391     -0.2175
     33  C2D       25.1320    5.4680   -7.6640 C.3   391  NDP391      0.2309
     34  O2D       24.3500    4.9840   -8.7800 O.3   391  NDP391     -0.2158
     35  C1D       25.0780    4.5120   -6.5110 C.3   391  NDP391      0.2263
     36  N1N       23.8360    4.5680   -5.7120 N.pl3 391  NDP391     -0.2787
     37  C2N       23.1100    3.4230   -5.5070 C.3   391  NDP391      0.1244
     38  C3N       21.9790    3.4350   -4.7570 C.2   391  NDP391      0.0544
     39  C7N       21.1640    2.1090   -4.5510 C.2   391  NDP391      0.2818
     40  O7N       20.1930    2.1830   -3.8190 O.2   391  NDP391     -0.2670
     41  N7N       21.6290    1.0380   -5.1970 N.am  391  NDP391     -0.0839
     42  C4N       21.4890    4.5850   -4.1320 C.2   391  NDP391      0.0033
     43  C5N       22.3080    5.6990   -4.3980 C.2   391  NDP391      0.0157
     44  C6N       23.4290    5.7780   -5.1130 C.2   391  NDP391      0.0633
     45  P2B       32.4360   16.5080   -2.7540 P.3   391  NDP391      0.5328
     46  O1X       33.4310   15.4910   -3.3330 O.3   391  NDP391     -0.1145
     47  O2X       31.7830   17.3880   -3.6960 O.2   391  NDP391     -0.2224
     48  O3X       32.9730   17.2080   -1.5640 O.3   391  NDP391     -0.1145
@<TRIPOS>BOND
     1    34    33    1
     2    32    31    1
     3    31    33    1
     4    31    29    1
     5    33    35    1
     6    29    28    1
     7    29    30    1
     8    35    36    1
     9    35    30    1
    10    28    27    1
    11    36    37    1
    12    36    44    1
    13    37    38    1
    14    26    24    2
    15    41    39   am
    16    44    43    2
    17    38    39    1
    18    38    42    2
    19    27    24    1
    20    39    40    2
    21    43    42    1
    22    24    23    1
    23    24    25    1
    24    23     1    1
    25     3     1    2
    26    47    45    2
    27    46    45    1
    28     4     1    1
    29     4     5    1
    30     1     2    1
    31     9     8    1
    32     5     6    1
    33    45    11    1
    34    45    48    1
    35     6     8    1
    36     6     7    1
    37    11    10    1
    38     8    10    1
    39     7    12    1
    40    10    12    1
    41    12    13    1
    42    13    14    1
    43    13    22    1
    44    14    15    1
    45    22    21    2
    46    22    16    1
    47    15    16    2
    48    21    20    1
    49    16    17    1
    50    20    19    1
    51    17    19    2
    52    17    18    1
