@<TRIPOS>MOLECULE
1dyr_TOP_A_1.pdb
 21 22 0 0 0
SMALL
GASTEIGER

@<TRIPOS>ATOM
      1  C1        16.5770    4.0230   -5.2540 C.2   407  TOP407      0.1118
      2  N2        15.9140    2.9580   -4.7880 N.2   407  TOP407     -0.1675
      3  C3        16.1030    2.6470   -3.5380 C.1   407  TOP407      0.1877
      4  N4        15.4220    1.5960   -2.9990 N.pl3 407  TOP407     -0.0345
      5  N5        16.8730    3.2820   -2.6230 N.2   407  TOP407     -0.3170
      6  C6        17.5140    4.3580   -3.0900 C.2   407  TOP407      0.2297
      7  N7        18.2770    5.0900   -2.2490 N.pl3 407  TOP407     -0.0924
      8  C8        17.3530    4.7690   -4.4030 C.2   407  TOP407      0.0500
      9  C9        18.1010    6.0120   -4.9090 C.3   407  TOP407      0.0585
     10  C10       17.9800    6.3910   -6.3870 C.ar  407  TOP407     -0.0114
     11  C11       19.1280    6.2840   -7.1630 C.ar  407  TOP407      0.0363
     12  C12       19.1100    6.6370   -8.5170 C.ar  407  TOP407      0.1751
     13  O13       20.2130    6.4990   -9.3200 O.3   407  TOP407     -0.4683
     14  C14       21.4640    6.3620   -8.6900 C.3   407  TOP407      0.2526
     15  C15       17.9050    7.1140   -9.0670 C.ar  407  TOP407      0.2060
     16  O16       17.8270    7.4940  -10.4230 O.3   407  TOP407     -0.4654
     17  C17       16.6510    6.9530  -10.9330 C.3   407  TOP407      0.2528
     18  C18       16.7600    7.2540   -8.2900 C.ar  407  TOP407      0.1751
     19  O19       15.6300    7.7450   -8.9490 O.3   407  TOP407     -0.4683
     20  C20       14.6480    8.1670   -7.9970 C.3   407  TOP407      0.2526
     21  C21       16.7720    6.8980   -6.9320 C.ar  407  TOP407      0.0363
@<TRIPOS>BOND
     1    17    16    1
     2    16    15    1
     3    13    14    1
     4    13    12    1
     5    15    12   ar
     6    15    18   ar
     7    19    18    1
     8    19    20    1
     9    12    11   ar
    10    18    21   ar
    11    11    10   ar
    12    21    10   ar
    13    10     9    1
    14     1     2    1
    15     1     8    2
    16     9     8    1
    17     2     3    2
    18     8     6    1
    19     3     4    1
    20     3     5    2
    21     6     5    2
    22     6     7    1
