@<TRIPOS>MOLECULE
1dz4_CAM_A_1.pdb
 11 12 0 0 0
SMALL
GASTEIGER

@<TRIPOS>ATOM
      1  C1        22.6870   -3.2450   47.5130 C.3   420  CAM420      0.0515
      2  C2        23.6090   -3.2350   48.7410 C.2   420  CAM420      0.1498
      3  O         23.9690   -4.1830   49.4230 O.2   420  CAM420     -0.2961
      4  C3        23.7860   -1.7210   48.8120 C.3   420  CAM420      0.0645
      5  C4        22.9950   -1.0470   47.6930 C.3   420  CAM420      0.0077
      6  C5        23.9700   -1.5000   46.5950 C.3   420  CAM420      0.0009
      7  C6        23.6660   -2.9750   46.3710 C.3   420  CAM420      0.0069
      8  C7        21.7550   -1.9740   47.5420 C.3   420  CAM420      0.0066
      9  C8        20.8230   -1.8700   48.7540 C.3   420  CAM420      0.0004
     10  C9        21.0460   -1.7800   46.1920 C.3   420  CAM420      0.0004
     11  C10       21.8860   -4.5520   47.4310 C.3   420  CAM420      0.0073
@<TRIPOS>BOND
     1    10     8    1
     2     7     6    1
     3     7     1    1
     4     6     5    1
     5    11     1    1
     6     1     8    1
     7     1     2    1
     8     8     5    1
     9     8     9    1
    10     5     4    1
    11     2     4    1
    12     2     3    2
