@<TRIPOS>MOLECULE
1dz4_HEM_A_1.pdb
 43 50 0 0 0
SMALL
GASTEIGER

@<TRIPOS>ATOM
      1 FE         23.8380    1.8120   44.0600 Fe    417  HEM417      0.0000
      2  CHA       24.5170    2.3550   47.3690 C.2   417  HEM417      0.0000
      3  CHB       20.4400    2.1270   44.7600 C.2   417  HEM417      0.0000
      4  CHC       23.0620    0.9890   40.8350 C.2   417  HEM417      0.0000
      5  CHD       27.0050    0.5880   43.6100 C.2   417  HEM417      0.0000
      6  NA        22.7180    2.1190   45.7260 N.2   417  HEM417      0.0000
      7  C1A       23.1870    2.3820   47.0030 C.2   417  HEM417      0.0000
      8  C2A       22.0780    2.7350   47.8740 C.2   417  HEM417      0.0000
      9  C3A       20.9690    2.6620   47.1420 C.2   417  HEM417      0.0000
     10  C4A       21.3460    2.2640   45.7950 C.2   417  HEM417      0.0000
     11  CMA       19.5060    2.9110   47.5610 C.3   417  HEM417      0.0000
     12  CAA       22.2170    3.0990   49.3900 C.3   417  HEM417      0.0000
     13  CBA       22.0600    1.9070   50.3520 C.3   417  HEM417      0.0000
     14  CGA       22.0700    2.2300   51.8410 C.2   417  HEM417      0.0000
     15  O1A       22.0270    3.4450   52.1170 O.co2 417  HEM417      0.0000
     16  O2A       22.0640    1.2430   52.6360 O.co2 417  HEM417      0.0000
     17  NB        22.1280    1.5160   43.0520 N.ar  417  HEM417      0.0000
     18  C1B       20.8390    1.8460   43.4670 C.ar  417  HEM417      0.0000
     19  C2B       19.9050    1.7950   42.3430 C.ar  417  HEM417      0.0000
     20  C3B       20.6410    1.5220   41.2370 C.ar  417  HEM417      0.0000
     21  C4B       22.0030    1.3330   41.6800 C.ar  417  HEM417      0.0000
     22  CMB       18.3950    2.0850   42.4590 C.3   417  HEM417      0.0000
     23  CAB       20.1930    1.3340   39.7930 C.2   417  HEM417      0.0000
     24  CBB       19.0270    1.5970   39.2640 C.2   417  HEM417      0.0000
     25  NC        24.8240    0.8750   42.5350 N.2   417  HEM417      0.0000
     26  C1C       24.3370    0.7370   41.2620 C.2   417  HEM417      0.0000
     27  C2C       25.4100    0.2030   40.4230 C.2   417  HEM417      0.0000
     28  C3C       26.4920    0.0570   41.1970 C.2   417  HEM417      0.0000
     29  C4C       26.1430    0.5030   42.5350 C.2   417  HEM417      0.0000
     30  CMC       25.2430   -0.1200   38.9180 C.3   417  HEM417      0.0000
     31  CAC       27.8840   -0.4650   40.8040 C.2   417  HEM417      0.0000
     32  CBC       28.5100   -1.3310   41.6150 C.2   417  HEM417      0.0000
     33  ND        25.4140    1.5350   45.2330 N.ar  417  HEM417      0.0000
     34  C1D       26.6840    1.1300   44.8470 C.ar  417  HEM417      0.0000
     35  C2D       27.6100    1.3370   45.9450 C.ar  417  HEM417      0.0000
     36  C3D       26.9210    1.7740   46.9960 C.ar  417  HEM417      0.0000
     37  C4D       25.5480    1.9350   46.5630 C.ar  417  HEM417      0.0000
     38  CMD       29.1060    0.9430   45.8450 C.3   417  HEM417      0.0000
     39  CAD       27.4550    2.0780   48.4080 C.3   417  HEM417      0.0000
     40  CBD       27.7340    3.4900   48.8760 C.3   417  HEM417      0.0000
     41  CGD       28.0780    3.5340   50.3590 C.2   417  HEM417      0.0000
     42  O1D       28.7860    4.4860   50.7220 O.co2 417  HEM417      0.0000
     43  O2D       27.6030    2.6310   51.0690 O.co2 417  HEM417      0.0000
@<TRIPOS>BOND
     1    30    27    1
     2    24    23    2
     3    23    20    1
     4    27    28    2
     5    27    26    1
     6    31    28    1
     7    31    32    2
     8     4    26    2
     9     4    21    1
    10    28    29    1
    11    20    21   ar
    12    20    19   ar
    13    26    25    1
    14    21    17   ar
    15    19    22    1
    16    19    18   ar
    17    29    25    2
    18    29     5    1
    19    25     1    1
    20    17    18   ar
    21    17     1    1
    22    18     3    1
    23     5    34    2
    24     1    33    1
    25     1     6    1
    26     3    10    2
    27    34    33   ar
    28    34    35   ar
    29    33    37   ar
    30     6    10    1
    31     6     7    2
    32    10     9    1
    33    38    35    1
    34    35    36   ar
    35    37    36   ar
    36    37     2    2
    37    36    39    1
    38     7     2    1
    39     7     8    1
    40     9    11    1
    41     9     8    2
    42     8    12    1
    43    39    40    1
    44    40    41    1
    45    12    13    1
    46    13    14    1
    47    41    42   ar
    48    41    43   ar
    49    14    15   ar
    50    14    16   ar
