@<TRIPOS>MOLECULE
1dz6_HEM_A_1.pdb
 43 50 0 0 0
SMALL
GASTEIGER

@<TRIPOS>ATOM
      1 FE         24.1050    1.6170   44.1510 Fe    417  HEM417      0.0000
      2  CHA       24.8470    2.0400   47.4140 C.2   417  HEM417      0.0000
      3  CHB       20.7090    1.9010   44.8950 C.2   417  HEM417      0.0000
      4  CHC       23.2880    0.6970   41.0060 C.2   417  HEM417      0.0000
      5  CHD       27.3300    0.2950   43.6450 C.2   417  HEM417      0.0000
      6  NA        23.0100    1.8240   45.8340 N.2   417  HEM417      0.0000
      7  C1A       23.5040    2.0630   47.1050 C.2   417  HEM417      0.0000
      8  C2A       22.4150    2.4030   48.0060 C.2   417  HEM417      0.0000
      9  C3A       21.2950    2.3690   47.2850 C.2   417  HEM417      0.0000
     10  C4A       21.6390    1.9970   45.9190 C.2   417  HEM417      0.0000
     11  CMA       19.8320    2.6000   47.7160 C.3   417  HEM417      0.0000
     12  CAA       22.6110    2.6930   49.5220 C.2   417  HEM417      0.0000
     13  CBA       22.1450    1.6630   50.5440 C.2   417  HEM417      0.0000
     14  CGA       22.3010    1.9160   52.0300 C.2   417  HEM417      0.0000
     15  O1A       22.3790    3.1230   52.3830 O.co2 417  HEM417      0.0000
     16  O2A       22.3290    0.9310   52.8370 O.co2 417  HEM417      0.0000
     17  NB        22.3420    1.2690   43.1960 N.ar  417  HEM417      0.0000
     18  C1B       21.0640    1.6020   43.5830 C.ar  417  HEM417      0.0000
     19  C2B       20.1560    1.5590   42.4530 C.ar  417  HEM417      0.0000
     20  C3B       20.8710    1.2150   41.3830 C.ar  417  HEM417      0.0000
     21  C4B       22.2390    1.0440   41.8170 C.ar  417  HEM417      0.0000
     22  CMB       18.6370    1.8200   42.5210 C.3   417  HEM417      0.0000
     23  CAB       20.4060    1.0560   39.9120 C.2   417  HEM417      0.0000
     24  CBB       19.1990    1.3280   39.4820 C.2   417  HEM417      0.0000
     25  NC        25.0930    0.6220   42.6480 N.2   417  HEM417      0.0000
     26  C1C       24.5720    0.4290   41.4120 C.2   417  HEM417      0.0000
     27  C2C       25.6150   -0.1400   40.5500 C.2   417  HEM417      0.0000
     28  C3C       26.7340   -0.2320   41.2470 C.2   417  HEM417      0.0000
     29  C4C       26.4160    0.2380   42.6050 C.2   417  HEM417      0.0000
     30  CMC       25.3530   -0.4300   39.0510 C.3   417  HEM417      0.0000
     31  CAC       28.1200   -0.7550   40.8660 C.2   417  HEM417      0.0000
     32  CBC       28.3530   -1.6130   39.8800 C.2   417  HEM417      0.0000
     33  ND        25.7310    1.2170   45.2750 N.ar  417  HEM417      0.0000
     34  C1D       27.0150    0.8490   44.8700 C.ar  417  HEM417      0.0000
     35  C2D       27.9410    1.0100   45.9740 C.ar  417  HEM417      0.0000
     36  C3D       27.2570    1.4860   47.0170 C.ar  417  HEM417      0.0000
     37  C4D       25.8760    1.6150   46.6020 C.ar  417  HEM417      0.0000
     38  CMD       29.4390    0.6390   45.8580 C.3   417  HEM417      0.0000
     39  CAD       27.7770    1.8130   48.4250 C.2   417  HEM417      0.0000
     40  CBD       27.8250    3.1750   49.0140 C.2   417  HEM417      0.0000
     41  CGD       28.3220    3.2470   50.4530 C.2   417  HEM417      0.0000
     42  O1D       29.0170    4.2420   50.7150 O.co2 417  HEM417      0.0000
     43  O2D       28.0370    2.3120   51.2300 O.co2 417  HEM417      0.0000
@<TRIPOS>BOND
     1    30    27    1
     2    24    23    2
     3    32    31    2
     4    23    20    1
     5    27    28    2
     6    27    26    1
     7    31    28    1
     8     4    26    2
     9     4    21    1
    10    28    29    1
    11    20    21   ar
    12    20    19   ar
    13    26    25    1
    14    21    17   ar
    15    19    22    1
    16    19    18   ar
    17    29    25    2
    18    29     5    1
    19    25     1    1
    20    17    18   ar
    21    17     1    1
    22    18     3    1
    23     5    34    2
    24     1    33    1
    25     1     6    1
    26    34    33   ar
    27    34    35   ar
    28     3    10    2
    29    33    37   ar
    30     6    10    1
    31     6     7    2
    32    38    35    1
    33    10     9    1
    34    35    36   ar
    35    37    36   ar
    36    37     2    2
    37    36    39    1
    38     7     2    1
    39     7     8    1
    40     9    11    1
    41     9     8    2
    42     8    12    1
    43    39    40    2
    44    40    41    1
    45    12    13    2
    46    41    42   ar
    47    41    43   ar
    48    13    14    1
    49    14    15   ar
    50    14    16   ar
