@<TRIPOS>MOLECULE
1dz6_CAM_A_1.pdb
 11 12 0 0 0
SMALL
GASTEIGER

@<TRIPOS>ATOM
      1  C1        22.7550   -3.4490   47.6470 C.3   420  CAM420      0.0515
      2  C2        23.7270   -3.4200   48.8660 C.2   420  CAM420      0.1498
      3  O         24.1380   -4.4200   49.3990 O.2   420  CAM420     -0.2961
      4  C3        24.0510   -1.9270   48.7910 C.3   420  CAM420      0.0645
      5  C4        23.1290   -1.2710   47.7670 C.3   420  CAM420      0.0077
      6  C5        23.9770   -1.7510   46.5720 C.3   420  CAM420      0.0009
      7  C6        23.7010   -3.2630   46.4650 C.3   420  CAM420      0.0069
      8  C7        21.8670   -2.1800   47.6980 C.3   420  CAM420      0.0066
      9  C8        20.9080   -2.0290   48.8910 C.3   420  CAM420      0.0004
     10  C9        21.1640   -1.8040   46.3660 C.3   420  CAM420      0.0004
     11  C10       22.0510   -4.8340   47.7410 C.3   420  CAM420      0.0073
@<TRIPOS>BOND
     1    10     8    1
     2     7     6    1
     3     7     1    1
     4     6     5    1
     5     1     8    1
     6     1    11    1
     7     1     2    1
     8     8     5    1
     9     8     9    1
    10     5     4    1
    11     4     2    1
    12     2     3    2
