@<TRIPOS>MOLECULE
1dz8_HEM_A_1.pdb
 43 50 0 0 0
SMALL
GASTEIGER

@<TRIPOS>ATOM
      1 FE         23.6930    1.5720   43.7230 Fe    417  HEM417      0.0000
      2  CHA       24.4260    2.0800   47.0290 C.2   417  HEM417      0.0000
      3  CHB       20.3550    2.0830   44.4050 C.2   417  HEM417      0.0000
      4  CHC       22.9460    0.9390   40.5510 C.2   417  HEM417      0.0000
      5  CHD       26.9440    0.5330   43.1790 C.2   417  HEM417      0.0000
      6  NA        22.6280    1.9910   45.3790 N.2   417  HEM417      0.0000
      7  C1A       23.0970    2.1630   46.6670 C.2   417  HEM417      0.0000
      8  C2A       21.9870    2.5050   47.5440 C.2   417  HEM417      0.0000
      9  C3A       20.8810    2.4670   46.8080 C.2   417  HEM417      0.0000
     10  C4A       21.2550    2.1150   45.4480 C.2   417  HEM417      0.0000
     11  CMA       19.4170    2.7370   47.2140 C.3   417  HEM417      0.0000
     12  CAA       22.1630    2.7470   49.0690 C.2   417  HEM417      0.0000
     13  CBA       21.8470    1.5880   49.9980 C.2   417  HEM417      0.0000
     14  CGA       21.9590    1.9010   51.5170 C.2   417  HEM417      0.0000
     15  O1A       21.9390    3.0900   51.8860 O.co2 417  HEM417      0.0000
     16  O2A       22.0740    0.8860   52.2530 O.co2 417  HEM417      0.0000
     17  NB        21.9660    1.4760   42.6860 N.ar  417  HEM417      0.0000
     18  C1B       20.6980    1.8060   43.1080 C.ar  417  HEM417      0.0000
     19  C2B       19.7860    1.7940   41.9820 C.ar  417  HEM417      0.0000
     20  C3B       20.5090    1.4890   40.9010 C.ar  417  HEM417      0.0000
     21  C4B       21.8750    1.2810   41.3290 C.ar  417  HEM417      0.0000
     22  CMB       18.2940    2.0980   42.1090 C.3   417  HEM417      0.0000
     23  CAB       20.0180    1.3120   39.4600 C.2   417  HEM417      0.0000
     24  CBB       18.8460    1.8850   39.0710 C.2   417  HEM417      0.0000
     25  NC        24.7350    0.7800   42.1580 N.2   417  HEM417      0.0000
     26  C1C       24.2300    0.6870   40.8950 C.2   417  HEM417      0.0000
     27  C2C       25.2930    0.2330   40.0140 C.2   417  HEM417      0.0000
     28  C3C       26.3980    0.1040   40.7550 C.2   417  HEM417      0.0000
     29  C4C       26.0560    0.4420   42.1200 C.2   417  HEM417      0.0000
     30  CMC       25.0720    0.0000   38.5000 C.3   417  HEM417      0.0000
     31  CAC       27.7950   -0.3250   40.2700 C.2   417  HEM417      0.0000
     32  CBC       28.3480   -1.4560   40.7030 C.2   417  HEM417      0.0000
     33  ND        25.3480    1.3800   44.8570 N.ar  417  HEM417      0.0000
     34  C1D       26.6050    1.0090   44.4420 C.ar  417  HEM417      0.0000
     35  C2D       27.5320    1.1500   45.5520 C.ar  417  HEM417      0.0000
     36  C3D       26.8330    1.5040   46.6260 C.ar  417  HEM417      0.0000
     37  C4D       25.4640    1.7280   46.2000 C.ar  417  HEM417      0.0000
     38  CMD       29.0250    0.7560   45.4290 C.3   417  HEM417      0.0000
     39  CAD       27.3510    1.7470   48.0570 C.3   417  HEM417      0.0000
     40  CBD       27.5770    3.1830   48.5240 C.3   417  HEM417      0.0000
     41  CGD       27.9470    3.1810   50.0560 C.2   417  HEM417      0.0000
     42  O1D       28.5320    4.2210   50.3700 O.co2 417  HEM417      0.0000
     43  O2D       27.5900    2.1940   50.6970 O.co2 417  HEM417      0.0000
@<TRIPOS>BOND
     1    30    27    1
     2    24    23    2
     3    23    20    1
     4    27    28    2
     5    27    26    1
     6    31    32    2
     7    31    28    1
     8     4    26    2
     9     4    21    1
    10    28    29    1
    11    26    25    1
    12    20    21   ar
    13    20    19   ar
    14    21    17   ar
    15    19    22    1
    16    19    18   ar
    17    29    25    2
    18    29     5    1
    19    25     1    1
    20    17    18   ar
    21    17     1    1
    22    18     3    1
    23     5    34    2
    24     1    33    1
    25     1     6    1
    26     3    10    2
    27    34    33   ar
    28    34    35   ar
    29    33    37   ar
    30     6    10    1
    31     6     7    2
    32    38    35    1
    33    10     9    1
    34    35    36   ar
    35    37    36   ar
    36    37     2    2
    37    36    39    1
    38     7     2    1
    39     7     8    1
    40     9    11    1
    41     9     8    2
    42     8    12    1
    43    39    40    1
    44    40    41    1
    45    12    13    2
    46    13    14    1
    47    41    42   ar
    48    41    43   ar
    49    14    15   ar
    50    14    16   ar
