@<TRIPOS>MOLECULE
1dz8_CAM_A_1.pdb
 11 12 0 0 0
SMALL
GASTEIGER

@<TRIPOS>ATOM
      1  C1        22.6990   -3.4290   47.3240 C.3   420  CAM420      0.0515
      2  C2        23.4870   -3.4710   48.6620 C.2   420  CAM420      0.1498
      3  O         23.8260   -4.4770   49.2680 O.2   420  CAM420     -0.2961
      4  C3        23.7160   -1.9760   48.7660 C.3   420  CAM420      0.0645
      5  C4        23.0160   -1.2500   47.6160 C.3   420  CAM420      0.0077
      6  C5        24.1000   -1.6780   46.6070 C.3   420  CAM420      0.0009
      7  C6        23.7420   -3.0920   46.2570 C.3   420  CAM420      0.0069
      8  C7        21.7800   -2.1600   47.3040 C.3   420  CAM420      0.0066
      9  C8        20.7470   -2.1310   48.4130 C.3   420  CAM420      0.0004
     10  C9        21.2300   -1.8270   45.9070 C.3   420  CAM420      0.0004
     11  C10       21.9070   -4.7370   47.2010 C.3   420  CAM420      0.0073
@<TRIPOS>BOND
     1    10     8    1
     2     7     6    1
     3     7     1    1
     4     6     5    1
     5    11     1    1
     6     8     1    1
     7     8     5    1
     8     8     9    1
     9     1     2    1
    10     5     4    1
    11     2     4    1
    12     2     3    2
