@<TRIPOS>MOLECULE
1dz9_CAM_A_1.pdb
 11 12 0 0 0
SMALL
GASTEIGER

@<TRIPOS>ATOM
      1  C1        22.6270   -3.3720   47.2920 C.3   420  CAM420      0.0515
      2  C2        23.3540   -3.3970   48.6790 C.2   420  CAM420      0.1498
      3  O         23.8040   -4.4360   49.1190 O.2   420  CAM420     -0.2961
      4  C3        23.8210   -1.9440   48.6120 C.3   420  CAM420      0.0645
      5  C4        23.0550   -1.2030   47.5130 C.3   420  CAM420      0.0077
      6  C5        24.0520   -1.6910   46.4350 C.3   420  CAM420      0.0009
      7  C6        23.7660   -3.1600   46.2940 C.3   420  CAM420      0.0069
      8  C7        21.7750   -2.0750   47.2500 C.3   420  CAM420      0.0066
      9  C8        20.7550   -1.9080   48.3820 C.3   420  CAM420      0.0004
     10  C9        21.2250   -1.7150   45.8570 C.3   420  CAM420      0.0004
     11  C10       21.8630   -4.6950   47.1560 C.3   420  CAM420      0.0073
@<TRIPOS>BOND
     1    10     8    1
     2     7     6    1
     3     7     1    1
     4     6     5    1
     5    11     1    1
     6     8     1    1
     7     8     5    1
     8     8     9    1
     9     1     2    1
    10     5     4    1
    11     4     2    1
    12     2     3    2
