@<TRIPOS>MOLECULE
1dz9_HEM_A_1.pdb
 43 50 0 0 0
SMALL
GASTEIGER

@<TRIPOS>ATOM
      1 FE         23.6670    1.5860   43.7460 Fe    417  HEM417      0.0000
      2  CHA       24.4250    2.1490   47.0360 C.2   417  HEM417      0.0000
      3  CHB       20.3720    2.2210   44.3960 C.2   417  HEM417      0.0000
      4  CHC       22.8960    0.9200   40.5680 C.2   417  HEM417      0.0000
      5  CHD       26.9070    0.5080   43.2010 C.2   417  HEM417      0.0000
      6  NA        22.6210    2.0490   45.3860 N.2   417  HEM417      0.0000
      7  C1A       23.0950    2.2210   46.6730 C.2   417  HEM417      0.0000
      8  C2A       21.9780    2.5400   47.5550 C.2   417  HEM417      0.0000
      9  C3A       20.8840    2.5980   46.8170 C.2   417  HEM417      0.0000
     10  C4A       21.2590    2.2650   45.4500 C.2   417  HEM417      0.0000
     11  CMA       19.4010    2.7950   47.1570 C.3   417  HEM417      0.0000
     12  CAA       22.1870    2.7530   49.0830 C.3   417  HEM417      0.0000
     13  CBA       21.7820    1.6170   50.0200 C.3   417  HEM417      0.0000
     14  CGA       21.9260    1.9370   51.5240 C.2   417  HEM417      0.0000
     15  O1A       21.9140    3.1150   51.8840 O.co2 417  HEM417      0.0000
     16  O2A       22.0490    0.9570   52.2990 O.co2 417  HEM417      0.0000
     17  NB        21.9340    1.5350   42.6890 N.ar  417  HEM417      0.0000
     18  C1B       20.6660    1.8770   43.1010 C.ar  417  HEM417      0.0000
     19  C2B       19.7450    1.8100   41.9810 C.ar  417  HEM417      0.0000
     20  C3B       20.4620    1.4740   40.9070 C.ar  417  HEM417      0.0000
     21  C4B       21.8380    1.2860   41.3440 C.ar  417  HEM417      0.0000
     22  CMB       18.2530    2.1430   42.0860 C.3   417  HEM417      0.0000
     23  CAB       20.0120    1.2360   39.4540 C.2   417  HEM417      0.0000
     24  CBB       18.8210    1.6910   39.0120 C.2   417  HEM417      0.0000
     25  NC        24.6930    0.7460   42.1820 N.2   417  HEM417      0.0000
     26  C1C       24.1890    0.6670   40.9340 C.2   417  HEM417      0.0000
     27  C2C       25.2420    0.2420   40.0420 C.2   417  HEM417      0.0000
     28  C3C       26.3560    0.1000   40.7710 C.2   417  HEM417      0.0000
     29  C4C       26.0260    0.4370   42.1360 C.2   417  HEM417      0.0000
     30  CMC       25.0030    0.0340   38.5260 C.3   417  HEM417      0.0000
     31  CAC       27.7460   -0.3090   40.2550 C.2   417  HEM417      0.0000
     32  CBC       28.3660   -1.4150   40.6230 C.2   417  HEM417      0.0000
     33  ND        25.3510    1.4580   44.8730 N.ar  417  HEM417      0.0000
     34  C1D       26.5840    1.0210   44.4720 C.ar  417  HEM417      0.0000
     35  C2D       27.5100    1.0980   45.5880 C.ar  417  HEM417      0.0000
     36  C3D       26.8320    1.5150   46.6580 C.ar  417  HEM417      0.0000
     37  C4D       25.4670    1.7700   46.2210 C.ar  417  HEM417      0.0000
     38  CMD       28.9910    0.6620   45.4630 C.3   417  HEM417      0.0000
     39  CAD       27.3340    1.7910   48.1020 C.3   417  HEM417      0.0000
     40  CBD       27.4680    3.2150   48.6170 C.3   417  HEM417      0.0000
     41  CGD       27.9600    3.2710   50.1380 C.2   417  HEM417      0.0000
     42  O1D       28.6090    4.3090   50.3070 O.co2 417  HEM417      0.0000
     43  O2D       27.4990    2.3150   50.7440 O.co2 417  HEM417      0.0000
@<TRIPOS>BOND
     1    30    27    1
     2    24    23    2
     3    23    20    1
     4    27    28    2
     5    27    26    1
     6    31    32    2
     7    31    28    1
     8     4    26    2
     9     4    21    1
    10    28    29    1
    11    20    21   ar
    12    20    19   ar
    13    26    25    1
    14    21    17   ar
    15    19    22    1
    16    19    18   ar
    17    29    25    2
    18    29     5    1
    19    25     1    1
    20    17    18   ar
    21    17     1    1
    22    18     3    1
    23     5    34    2
    24     1    33    1
    25     1     6    1
    26     3    10    2
    27    34    33   ar
    28    34    35   ar
    29    33    37   ar
    30     6    10    1
    31     6     7    2
    32    10     9    1
    33    38    35    1
    34    35    36   ar
    35    37    36   ar
    36    37     2    2
    37    36    39    1
    38     7     2    1
    39     7     8    1
    40     9    11    1
    41     9     8    2
    42     8    12    1
    43    39    40    1
    44    40    41    1
    45    12    13    1
    46    13    14    1
    47    41    42   ar
    48    41    43   ar
    49    14    15   ar
    50    14    16   ar
