@<TRIPOS>MOLECULE
1dze_GLC_A_1.pdb
 11 11 0 0 0
SMALL
GASTEIGER

@<TRIPOS>ATOM
      1  C1        49.5240   23.5210   10.6370 C.3   400  GLC400      0.1777
      2  C2        50.1040   23.3170    9.2030 C.3   400  GLC400      0.2141
      3  C3        49.9830   24.6360    8.4390 C.3   400  GLC400      0.2173
      4  C4        48.4970   25.0070    8.4180 C.3   400  GLC400      0.2142
      5  C5        47.9400   25.2020    9.8420 C.3   400  GLC400      0.1810
      6  C6        46.4390   25.1890   10.0150 C.3   400  GLC400      0.2141
      7  O2        51.4940   22.9450    9.2060 O.3   400  GLC400     -0.2176
      8  O3        50.3350   24.4910    7.0480 O.3   400  GLC400     -0.2175
      9  O4        48.3080   26.2170    7.7600 O.3   400  GLC400     -0.2176
     10  O5        48.1240   23.9130   10.5540 O.3   400  GLC400     -0.3481
     11  O6        45.7310   24.2160    9.2940 O.3   400  GLC400     -0.2176
@<TRIPOS>BOND
     1     8     3    1
     2     9     4    1
     3     4     3    1
     4     4     5    1
     5     3     2    1
     6     2     7    1
     7     2     1    1
     8    11     6    1
     9     5     6    1
    10     5    10    1
    11    10     1    1
