@<TRIPOS>MOLECULE
1dze_RET_A_1.pdb
 20 20 0 0 0
SMALL
GASTEIGER

@<TRIPOS>ATOM
      1  C1        39.2000   16.2120   21.4680 C.3   250  RET250      0.0183
      2  C2        40.0250   15.4460   20.4020 C.3   250  RET250      0.0044
      3  C3        39.8220   14.0370   20.3320 C.3   250  RET250      0.0047
      4  C4        40.0600   13.3690   21.6450 C.3   250  RET250      0.0217
      5  C5        39.4530   14.0940   22.8150 C.2   250  RET250     -0.0479
      6  C6        39.0460   15.3920   22.7840 C.2   250  RET250     -0.0307
      7  C7        38.4530   15.9320   24.0750 C.2   250  RET250     -0.0052
      8  C8        38.1930   17.2430   24.1990 C.2   250  RET250     -0.0046
      9  C9        37.6010   17.7710   25.4190 C.2   250  RET250     -0.0219
     10  C10       37.0940   19.0330   25.4260 C.2   250  RET250     -0.0043
     11  C11       36.4840   19.5360   26.6310 C.2   250  RET250     -0.0007
     12  C12       35.7770   20.6640   26.6330 C.2   250  RET250     -0.0046
     13  C13       35.1440   21.1810   27.8440 C.2   250  RET250     -0.0261
     14  C14       34.7260   22.4430   27.9570 C.2   250  RET250     -0.0300
     15  C15       34.8310   23.4580   26.9300 C.3   250  RET250      0.0304
     16  C16       39.9300   17.5380   21.6730 C.3   250  RET250      0.0043
     17  C17       37.8560   16.5130   20.8130 C.3   250  RET250      0.0043
     18  C18       39.3200   13.2560   24.0750 C.3   250  RET250      0.0260
     19  C19       37.5380   16.9260   26.6540 C.3   250  RET250      0.0310
     20  C20       34.9250   20.2700   28.9960 C.3   250  RET250      0.0307
@<TRIPOS>BOND
     1     3     2    1
     2     3     4    1
     3     2     1    1
     4    17     1    1
     5     1    16    1
     6     1     6    1
     7     4     5    1
     8     6     5    2
     9     6     7    1
    10     5    18    1
    11     7     8    2
    12     8     9    1
    13     9    10    2
    14     9    19    1
    15    10    11    1
    16    11    12    2
    17    12    13    1
    18    15    14    1
    19    13    14    2
    20    13    20    1
