@<TRIPOS>MOLECULE
1dzj_SES_A_1.pdb
 13 13 0 0 0
SMALL
GASTEIGER

@<TRIPOS>ATOM
      1  C1         2.9710   26.0680   12.4140 C.3   700  SES700      0.0000
      2  C2         2.5240   26.4140   10.9970 C.3   700  SES700      0.0000
      3  C3         1.1060   26.9660   11.0290 C.3   700  SES700      0.0000
      4  C4         0.1530   25.9620   11.6730 C.3   700  SES700      0.0000
      5  C11        0.1960   27.1630   15.5320 C.3   700  SES700      0.0000
      6  C12       -0.0080   25.7390   15.0230 C.3   700  SES700      0.0000
      7  C13       -1.4800   25.4930   14.6900 C.3   700  SES700      0.0000
      8  N21       -1.6270   27.6650   11.6020 N.2   700  SES700      0.0000
      9  C22       -2.7270   28.1160   12.2280 C.2   700  SES700      0.0000
     10  N22       -3.3410   29.1710   11.7080 N.pl3 700  SES700      0.0000
     11 SE1        -3.4050   27.2700   13.8150 Se    700  SES700      0.0000
     12  C24       -1.9090   26.1760   13.4140 C.3   700  SES700      0.0000
     13  C25       -1.0960   26.6040   12.2330 C.2   700  SES700      0.0000
@<TRIPOS>BOND
     1     2     3    1
     2     2     1    1
     3     3     4    1
     4     8     9    2
     5     8    13    2
     6     4    13    1
     7    10     9    1
     8     9    11    1
     9    13    12    1
    10    12    11    1
    11    12     7    1
    12     7     6    1
    13     6     5    1
