@<TRIPOS>MOLECULE
1dzk_PRZ_A_1.pdb
 12 12 0 0 0
SMALL
GASTEIGER

@<TRIPOS>ATOM
      1  N1        -0.0300   24.7570   10.5420 N.ar  700  PRZ700     -0.2418
      2  C2        -0.4030   25.8580   11.2200 C.ar  700  PRZ700      0.1119
      3  C3         0.5710   26.7340   11.7610 C.ar  700  PRZ700      0.2389
      4  N4         1.9330   26.4290   11.6440 N.ar  700  PRZ700     -0.2075
      5  C5         2.2990   25.1950   10.9970 C.ar  700  PRZ700      0.1227
      6  C6         1.2920   24.3860   10.3500 C.ar  700  PRZ700      0.1193
      7  C21       -1.9300   26.1020   11.5660 C.3   700  PRZ700      0.0506
      8  C22       -2.1570   26.4380   13.1700 C.3   700  PRZ700      0.0061
      9  C23       -3.2530   27.1590   13.7540 C.3   700  PRZ700      0.0004
     10  C24       -1.1970   25.8720   14.2440 C.3   700  PRZ700      0.0004
     11  O31        0.1150   27.8030   12.1900 O.3   700  PRZ700     -0.4553
     12  C31        0.9980   28.7750   12.7450 C.3   700  PRZ700      0.2543
@<TRIPOS>BOND
     1     6     1   ar
     2     6     5   ar
     3     1     2   ar
     4     5     4   ar
     5     2     7    1
     6     2     3   ar
     7     7     8    1
     8     4     3   ar
     9     3    11    1
    10    11    12    1
    11     8     9    1
    12     8    10    1
