@<TRIPOS>MOLECULE
1dzm_BZM_A_1.pdb
 16 17 0 0 0
SMALL
GASTEIGER

@<TRIPOS>ATOM
      1  C8         0.5310   26.5430   13.7460 C.3   600  BZM600      0.2354
      2  O8         1.3670   27.4410   13.0120 O.3   600  BZM600     -0.4404
      3  C7         1.9880   26.8410   11.9100 C.2   600  BZM600      0.3415
      4  O7         2.9730   27.3650   11.4550 O.2   600  BZM600     -0.2449
      5  C6         1.4600   25.5900   11.3090 C.ar  600  BZM600      0.0757
      6  C1         2.1290   25.0460   10.2240 C.ar  600  BZM600      0.0064
      7  C5         0.3250   25.0120   11.8560 C.ar  600  BZM600      0.0064
      8  C2         1.6400   23.8820    9.6670 C.ar  600  BZM600      0.0002
      9  C4        -0.1430   23.8500   11.2800 C.ar  600  BZM600      0.0002
     10  C3         0.5220   23.2930   10.2070 C.ar  600  BZM600      0.0000
     11  C9        -0.9560   26.7620   13.7280 C.ar  600  BZM600      0.0213
     12  C14       -1.8470   25.7220   13.9230 C.ar  600  BZM600     -0.0007
     13  C10       -1.4350   28.0440   13.5080 C.ar  600  BZM600     -0.0007
     14  C13       -3.2050   25.9830   13.9010 C.ar  600  BZM600     -0.0002
     15  C11       -2.7960   28.3050   13.4860 C.ar  600  BZM600     -0.0002
     16  C12       -3.6880   27.2660   13.6850 C.ar  600  BZM600     -0.0000
@<TRIPOS>BOND
     1     8    10   ar
     2     8     6   ar
     3    10     9   ar
     4     6     5   ar
     5     9     7   ar
     6     5     7   ar
     7     5     3    1
     8     4     3    2
     9     3     2    1
    10     2     1    1
    11    15    13   ar
    12    15    16   ar
    13    13    11   ar
    14    16    14   ar
    15    11     1    1
    16    11    12   ar
    17    14    12   ar
