@<TRIPOS>MOLECULE
1dzn_EUG_A_1.pdb
 11 11 0 0 0
SMALL
GASTEIGER

@<TRIPOS>ATOM
      1  C1       111.4240   47.9710   70.4410 C.ar  601  EUG601      0.0032
      2  C2       111.0760   47.2890   69.2760 C.ar  601  EUG601      0.0402
      3  C3       109.8980   47.6190   68.5760 C.ar  601  EUG601      0.1774
      4  C4       109.0530   48.6410   69.0150 C.ar  601  EUG601      0.2293
      5  C5       109.4070   49.3410   70.1780 C.ar  601  EUG601      0.0452
      6  C6       110.5620   48.9960   70.8450 C.ar  601  EUG601      0.0035
      7  C7       112.6220   47.6590   71.2160 C.2   601  EUG601      0.0001
      8  C8       113.1100   46.4650   71.3510 C.2   601  EUG601      0.0000
      9  C9       110.6970   46.5120   66.5550 C.3   601  EUG601      0.2526
     10  O3       109.7060   46.8280   67.4730 O.3   601  EUG601     -0.4682
     11  O4       107.9010   49.0790   68.4590 O.3   601  EUG601     -0.2833
@<TRIPOS>BOND
     1     9    10    1
     2    10     3    1
     3    11     4    1
     4     3     4   ar
     5     3     2   ar
     6     4     5   ar
     7     2     1   ar
     8     5     6   ar
     9     1     6   ar
    10     1     7    1
    11     7     8    2
