@<TRIPOS>MOLECULE
1dzp_BZQ_A_1.pdb
 14 15 0 0 0
SMALL
GASTEIGER

@<TRIPOS>ATOM
      1  C1         2.7380   27.0930   10.6500 C.ar  600  BZQ600     -0.0002
      2  C2         3.4580   26.9190   11.8560 C.ar  600  BZQ600     -0.0000
      3  C3         2.8320   26.4280   13.0030 C.ar  600  BZQ600     -0.0002
      4  C4         1.4630   26.1010   12.9500 C.ar  600  BZQ600     -0.0015
      5  C5         0.7320   26.2750   11.7540 C.ar  600  BZQ600      0.0119
      6  C6         1.3780   26.7630   10.6110 C.ar  600  BZQ600     -0.0015
      7  C7        -0.7430   25.9080   11.6980 C.3   600  BZQ600      0.1966
      8  C8        -2.0770   25.7090   13.8110 C.ar  600  BZQ600     -0.0015
      9  C9        -1.7460   26.4450   12.6740 C.ar  600  BZQ600      0.0119
     10  C10       -2.3640   27.6680   12.4550 C.ar  600  BZQ600     -0.0015
     11  C11       -3.2970   28.1610   13.3520 C.ar  600  BZQ600     -0.0002
     12  C12       -3.6140   27.4220   14.4770 C.ar  600  BZQ600     -0.0000
     13  C13       -3.0000   26.1910   14.7060 C.ar  600  BZQ600     -0.0002
     14  O         -1.1860   25.0150   10.7050 O.3   600  BZQ600     -0.2134
@<TRIPOS>BOND
     1     6     1   ar
     2     6     5   ar
     3     1     2   ar
     4    14     7    1
     5     7     5    1
     6     7     9    1
     7     5     4   ar
     8     2     3   ar
     9    10     9   ar
    10    10    11   ar
    11     9     8   ar
    12     4     3   ar
    13    11    12   ar
    14     8    13   ar
    15    12    13   ar
