@<TRIPOS>MOLECULE
1dzq_GAL_A_1.pdb
 12 12 0 0 0
SMALL
GASTEIGER

@<TRIPOS>ATOM
      1  C1        64.7320   44.2870   76.1110 C.3   502  GAL502      0.3024
      2  C2        65.6310   43.0590   76.3440 C.3   502  GAL502      0.2434
      3  C3        66.0870   42.4650   75.0110 C.3   502  GAL502      0.2199
      4  C4        64.8600   42.1730   74.1470 C.3   502  GAL502      0.2144
      5  C5        64.0990   43.4730   73.9420 C.3   502  GAL502      0.1836
      6  C6        62.8760   43.3060   73.0520 C.3   502  GAL502      0.2142
      7  O1        64.1870   44.6990   77.3180 O.3   502  GAL502     -0.1869
      8  O2        66.7730   43.4340   77.1100 O.3   502  GAL502     -0.2148
      9  O3        66.8330   41.2770   75.2370 O.3   502  GAL502     -0.2174
     10  O4        64.0130   41.2470   74.8080 O.3   502  GAL502     -0.2176
     11  O5        63.6460   43.9740   75.2210 O.3   502  GAL502     -0.3236
     12  O6        62.2370   44.5530   72.8280 O.3   502  GAL502     -0.2176
@<TRIPOS>BOND
     1    12     6    1
     2     6     5    1
     3     5     4    1
     4     5    11    1
     5     4    10    1
     6     4     3    1
     7     3     9    1
     8     3     2    1
     9    11     1    1
    10     1     2    1
    11     1     7    1
    12     2     8    1
