@<TRIPOS>MOLECULE
1dzt_TPE_A_1.pdb
 34 36 0 0 0
SMALL
GASTEIGER

@<TRIPOS>ATOM
      1  C1B       24.1900   23.4310   17.2020 C.ar  1000  TPE1000     0.1446
      2  C2B       23.0590   23.0270   17.9770 C.ar  1000  TPE1000     0.0373
      3  C3B       23.2030   21.9750   18.9520 C.ar  1000  TPE1000     0.0031
      4  C4B       24.4770   21.3310   19.1490 C.ar  1000  TPE1000     0.0002
      5  C5B       25.6070   21.7450   18.3660 C.ar  1000  TPE1000     0.0031
      6  C6B       25.4630   22.7920   17.3940 C.ar  1000  TPE1000     0.0373
      7  PA        22.5220   27.1070   18.3470 P.3   1000  TPE1000     0.2197
      8  O1A       21.2800   26.4530   17.8870 O.2   1000  TPE1000    -0.5170
      9  O2A       22.3410   28.5610   18.5300 O.3   1000  TPE1000    -0.4371
     10  O3A       23.6890   26.9500   17.2280 O.3   1000  TPE1000    -0.2612
     11  PB        24.5320   25.9270   16.3860 P.3   1000  TPE1000     0.2746
     12  O1B       24.2340   26.7130   15.0370 O.2   1000  TPE1000    -0.5080
     13  O2B       25.9870   25.9700   16.7390 O.3   1000  TPE1000    -0.4272
     14  O3B       24.0300   24.5030   16.1930 O.3   1000  TPE1000    -0.4398
     15  O5'       23.0790   26.4840   19.6930 O.3   1000  TPE1000    -0.3111
     16  C5'       24.2750   26.9520   20.3360 C.3   1000  TPE1000     0.1823
     17  C4'       24.4880   26.0540   21.5410 C.3   1000  TPE1000     0.1869
     18  O4'       23.5940   26.4480   22.6070 O.3   1000  TPE1000    -0.3328
     19  C3'       24.2330   24.5470   21.2650 C.3   1000  TPE1000     0.2025
     20  O3'       25.2180   23.6930   21.9150 O.3   1000  TPE1000    -0.4495
     21  CR        26.4690   23.6840   21.2860 C.2   1000  TPE1000     0.3175
     22  OR        26.8990   24.5140   20.4040 O.2   1000  TPE1000    -0.2501
     23  CHR       27.4410   22.6310   21.7170 C.3   1000  TPE1000     0.1212
     24  C2'       22.8320   24.3450   21.8950 C.3   1000  TPE1000     0.0982
     25  C1'       22.7990   25.3640   23.0260 C.3   1000  TPE1000     0.2101
     26  N1        21.4740   25.8550   23.4620 N.am  1000  TPE1000    -0.1794
     27  C2        21.0720   25.6950   24.7870 C.1   1000  TPE1000     0.2844
     28  O2        21.7480   25.1490   25.6500 O.2   1000  TPE1000    -0.1918
     29  N3        19.8310   26.2290   25.0570 N.2   1000  TPE1000    -0.2455
     30  C4        18.9400   26.8910   24.1910 C.1   1000  TPE1000     0.2134
     31  O4        17.8830   27.2980   24.6200 O.2   1000  TPE1000    -0.2088
     32  C5        19.4270   27.0010   22.8400 C.2   1000  TPE1000     0.0891
     33  C5M       18.6300   27.6470   21.7450 C.3   1000  TPE1000     0.0462
     34  C6        20.6300   26.5030   22.5320 C.2   1000  TPE1000     0.0877
@<TRIPOS>BOND
     1    12    11    2
     2    14    11    1
     3    14     1    1
     4    11    13    1
     5    11    10    1
     6     1     6   ar
     7     1     2   ar
     8    10     7    1
     9     6     5   ar
    10     8     7    2
    11     2     3   ar
    12     7     9    1
    13     7    15    1
    14     5     4   ar
    15     3     4   ar
    16    15    16    1
    17    16    17    1
    18    22    21    2
    19    19    17    1
    20    19    24    1
    21    19    20    1
    22    21    23    1
    23    21    20    1
    24    17    18    1
    25    33    32    1
    26    24    25    1
    27    34    32    2
    28    34    26    1
    29    18    25    1
    30    32    30    1
    31    25    26    1
    32    26    27   am
    33    30    31    2
    34    30    29    2
    35    27    29    2
    36    27    28    2
