@<TRIPOS>MOLECULE
1dzt_ATY_B_1.pdb
 28 29 0 0 0
SMALL
GASTEIGER

@<TRIPOS>ATOM
      1  PA        14.1080   54.2730   43.0680 P.3   1000  ATY1000     0.2231
      2  O1A       14.0540   55.0720   41.8150 O.2   1000  ATY1000    -0.5169
      3  O2A       12.7800   54.2420   43.7460 O.3   1000  ATY1000    -0.4370
      4  O3A       15.2550   54.9220   44.0740 O.3   1000  ATY1000    -0.2261
      5  PB        16.8000   55.2370   43.9890 P.3   1000  ATY1000     0.5373
      6  O1B       17.1130   54.6740   42.5200 O.2   1000  ATY1000    -0.2221
      7  O2B       17.0960   56.7000   44.0550 O.3   1000  ATY1000    -0.1143
      8  O3B       17.6000   54.4910   45.0320 O.3   1000  ATY1000    -0.1143
      9  O5'       14.6200   52.7810   42.7950 O.3   1000  ATY1000    -0.3111
     10  C5'       14.7810   51.7520   43.8120 C.3   1000  ATY1000     0.1823
     11  C4'       14.8040   50.4080   43.0750 C.3   1000  ATY1000     0.1869
     12  O4'       13.4520   50.0830   42.5620 O.3   1000  ATY1000    -0.3328
     13  C3'       15.7420   50.4110   41.8450 C.3   1000  ATY1000     0.2025
     14  O3'       16.4100   49.1330   41.6380 O.3   1000  ATY1000    -0.4495
     15  CR        17.6310   49.1760   40.8960 C.2   1000  ATY1000     0.3175
     16  OR        18.4050   48.1920   40.7220 O.2   1000  ATY1000    -0.2501
     17  CHR       18.0900   50.4450   40.2040 C.3   1000  ATY1000     0.1212
     18  C2'       14.7230   50.6830   40.7280 C.3   1000  ATY1000     0.0982
     19  C1'       13.5090   49.8850   41.1500 C.3   1000  ATY1000     0.2101
     20  N1        12.2530   50.2460   40.3860 N.am  1000  ATY1000    -0.1794
     21  C2        11.4000   49.2470   39.9070 C.1   1000  ATY1000     0.2844
     22  O2        11.5930   48.0470   40.0660 O.2   1000  ATY1000    -0.1918
     23  N3        10.2970   49.7370   39.2170 N.2   1000  ATY1000    -0.2455
     24  C4         9.9450   51.0770   38.9420 C.1   1000  ATY1000     0.2134
     25  O4         8.9260   51.3370   38.3100 O.2   1000  ATY1000    -0.2088
     26  C5        10.8890   52.0230   39.4680 C.2   1000  ATY1000     0.0891
     27  C5M       10.7370   53.4860   39.2660 C.3   1000  ATY1000     0.0462
     28  C6        11.9520   51.6020   40.1400 C.2   1000  ATY1000     0.0877
@<TRIPOS>BOND
     1    25    24    2
     2    24    23    2
     3    24    26    1
     4    23    21    2
     5    27    26    1
     6    26    28    2
     7    21    22    2
     8    21    20   am
     9    28    20    1
    10    17    15    1
    11    20    19    1
    12    16    15    2
    13    18    19    1
    14    18    13    1
    15    15    14    1
    16    19    12    1
    17    14    13    1
    18     2     1    2
    19    13    11    1
    20     6     5    2
    21    12    11    1
    22     9     1    1
    23     9    10    1
    24     1     3    1
    25     1     4    1
    26    11    10    1
    27     5     7    1
    28     5     4    1
    29     5     8    1
