@<TRIPOS>MOLECULE
1e00_DHM_A_1.pdb
 11 10 0 0 0
SMALL
GASTEIGER

@<TRIPOS>ATOM
      1  C7         1.3800   23.8270    9.5580 C.3   600  DHM600      0.0000
      2  C6         1.7000   24.4500   10.8050 C.3   600  DHM600      0.0000
      3  C5         1.4410   25.9270   10.9740 C.3   600  DHM600      0.0000
      4  C4         0.5910   26.2120   12.2120 C.3   600  DHM600      0.0001
      5  C3        -0.8610   26.3940   11.8790 C.3   600  DHM600      0.0025
      6  C2        -1.5420   27.4100   12.8070 C.3   600  DHM600      0.0304
      7  C1        -2.3440   26.7260   13.8750 C.3   600  DHM600      0.1268
      8  C8        -1.6250   26.9260   15.1760 C.3   600  DHM600      0.0329
      9  C9        -2.3040   25.2650   13.5640 C.3   600  DHM600      0.0329
     10  C10        2.7700   26.5980   11.0990 C.3   600  DHM600      0.0000
     11  O1        -3.7730   27.1630   14.0030 O.3   600  DHM600     -0.2257
@<TRIPOS>BOND
     1     1     2    1
     2     2     3    1
     3     3    10    1
     4     3     4    1
     5     5     4    1
     6     5     6    1
     7     6     7    1
     8     9     7    1
     9     7    11    1
    10     7     8    1
