@<TRIPOS>MOLECULE
1e02_UNA_A_1.pdb
 12 11 0 0 0
SMALL
GASTEIGER

@<TRIPOS>ATOM
      1  C11       -0.3830   26.7480   10.7750 C.3   600  UNA600      0.0000
      2  C10        0.6160   25.5470   10.8870 C.3   600  UNA600      0.0000
      3  C9         1.9160   25.9320   11.4160 C.3   600  UNA600      0.0000
      4  C8         2.0120   27.3970   11.6870 C.3   600  UNA600      0.0000
      5  C7         3.1190   27.8660   12.8070 C.3   600  UNA600      0.0000
      6  C6         2.6120   28.1040   14.2600 C.3   600  UNA600      0.0000
      7  C5         1.1560   27.7040   14.4190 C.3   600  UNA600      0.0000
      8  C4         0.3270   28.9690   14.8550 C.3   600  UNA600      0.0001
      9  C3        -1.0620   28.9080   14.1810 C.3   600  UNA600      0.0027
     10  C2        -1.6010   27.3960   14.2820 C.3   600  UNA600      0.0355
     11  C1        -2.9520   27.2540   13.7050 C.3   600  UNA600      0.1821
     12  O1        -2.9100   26.2050   13.2270 O.3   600  UNA600     -0.2204
@<TRIPOS>BOND
     1     1     2    1
     2     2     3    1
     3     3     4    1
     4     4     5    1
     5     5     6    1
     6    12    11    1
     7    11    10    1
     8     9    10    1
     9     9     8    1
    10     6     7    1
    11     7     8    1
