@<TRIPOS>MOLECULE
1e06_IPB_A_1.pdb
 11 11 0 0 0
SMALL
GASTEIGER

@<TRIPOS>ATOM
      1  C4        -0.3210   26.5360   12.3200 C.ar  600  IPB600      0.0164
      2  C5        -0.8400   25.3960   12.6760 C.ar  600  IPB600     -0.0014
      3  C6        -2.1600   25.3250   13.3620 C.ar  600  IPB600     -0.0044
      4  C1        -2.8440   26.4530   13.6290 C.ar  600  IPB600     -0.0187
      5  C2        -2.2690   27.6790   13.2360 C.ar  600  IPB600      0.0374
      6  C3        -1.0940   27.7760   12.6170 C.ar  600  IPB600      0.1914
      7  C8         1.0310   26.6190   11.6050 C.3   600  IPB600      0.0255
      8  C7        -4.1540   26.4090   14.2980 C.3   600  IPB600      0.0311
      9  O         -0.6470   29.0110   12.3010 O.3   600  IPB600     -0.2869
     10  C9         2.1090   25.7470   12.2720 C.3   600  IPB600      0.0048
     11  C10        0.9270   26.2790   10.1480 C.3   600  IPB600      0.0048
@<TRIPOS>BOND
     1    11     7    1
     2     7    10    1
     3     7     1    1
     4     9     6    1
     5     1     6   ar
     6     1     2   ar
     7     6     5   ar
     8     2     3   ar
     9     5     4   ar
    10     3     4   ar
    11     4     8    1
