@<TRIPOS>MOLECULE
1e0a_GNP_A_1.pdb
 45 47 0 0 0
SMALL
GASTEIGER

@<TRIPOS>ATOM
      1  PG        -2.3690  -10.9150   -3.1550 P.3   185  GNP185      0.4710
      2  O1G       -2.4140  -11.2690   -1.7180 O.3   185  GNP185     -0.1250
      3  O2G       -3.4000   -9.9900   -3.6740 O.3   185  GNP185     -0.1250
      4  O3G       -2.5510  -12.2940   -3.9650 O.2   185  GNP185     -0.2347
      5  N3B       -0.8850  -10.2010   -3.4360 N.3   185  GNP185     -0.1200
      6  PB        -0.2750   -8.9700   -2.4880 P.3   185  GNP185      0.4495
      7  O1B        0.4910   -8.0730   -3.3830 O.2   185  GNP185     -0.2367
      8  O2B       -1.4150   -8.3940   -1.7390 O.3   185  GNP185     -0.1263
      9  O3A        0.7680   -9.5030   -1.3830 O.3   185  GNP185     -0.2370
     10  PA         2.0430  -10.4710   -1.5560 P.3   185  GNP185      0.2213
     11  O1A        2.3010  -10.6430   -3.0030 O.2   185  GNP185     -0.5170
     12  O2A        1.8420  -11.6590   -0.6970 O.3   185  GNP185     -0.4371
     13  O5'        3.2390   -9.5940   -0.9310 O.3   185  GNP185     -0.3245
     14  C5'        4.4920  -10.2030   -0.6010 C.3   185  GNP185      0.0836
     15  C4'        4.4840  -10.7970    0.8070 C.3   185  GNP185      0.1131
     16  O4'        5.5440  -10.2280    1.6030 O.3   185  GNP185     -0.3474
     17  C3'        3.1640  -10.5190    1.5080 C.3   185  GNP185      0.1133
     18  O3'        2.4990  -11.7410    1.8460 O.3   185  GNP185     -0.3864
     19  C2'        3.4940   -9.7280    2.7470 C.3   185  GNP185      0.1266
     20  O2'        2.9840  -10.3770    3.9160 O.3   185  GNP185     -0.3849
     21  C1'        5.0090   -9.6270    2.8000 C.3   185  GNP185      0.1617
     22  N9         5.4390   -8.2210    2.9180 N.pl3 185  GNP185     -0.2241
     23  C8         5.5810   -7.2760    1.9550 C.2   185  GNP185      0.1451
     24  N7         5.9850   -6.1030    2.3160 N.2   185  GNP185     -0.3865
     25  C5         6.1380   -6.2670    3.6960 C.2   185  GNP185      0.2296
     26  C6         6.5640   -5.3340    4.6970 C.2   185  GNP185      0.2859
     27  O6         6.8950   -4.1580    4.5460 O.2   185  GNP185     -0.2668
     28  N1         6.5820   -5.9060    5.9790 N.am  185  GNP185     -0.2418
     29  C2         6.2310   -7.2190    6.2710 C.2   185  GNP185      0.2395
     30  N2         6.3080   -7.5850    7.5500 N.pl3 185  GNP185     -0.3206
     31  N3         5.8280   -8.1020    5.3320 N.2   185  GNP185     -0.3551
     32  C4         5.8040   -7.5670    4.0750 C.2   185  GNP185      0.2272
     33 HNB3       -0.3490  -10.5190   -4.1930 H     185  GNP185      0.1458
     34 H5'2        5.2790   -9.4510   -0.6640 H     185  GNP185      0.0591
     35 H5'1        4.7000  -10.9960   -1.3190 H     185  GNP185      0.0591
     36  H4'        4.6320  -11.8740    0.7400 H     185  GNP185      0.0647
     37  H3'        2.5290   -9.9200    0.8570 H     185  GNP185      0.0647
     38 HO3'        3.1160  -12.2690    2.3580 H     185  GNP185      0.2100
     39  H2'        3.0670   -8.7270    2.6620 H     185  GNP185      0.0663
     40 HO2'        2.4750  -11.1360    3.6220 H     185  GNP185      0.2101
     41  H1'        5.3680  -10.1790    3.6640 H     185  GNP185      0.0841
     42  H8         5.3620   -7.4990    0.9100 H     185  GNP185      0.1149
     43  HN1        6.8680   -5.3180    6.7100 H     185  GNP185      0.1589
     44 HN21        6.6100   -6.9200    8.2480 H     185  GNP185      0.1459
     45 HN22        6.0640   -8.5270    7.8220 H     185  GNP185      0.1459
@<TRIPOS>BOND
     1    33     5    1
     2     4     1    2
     3     3     1    1
     4     5     1    1
     5     5     6    1
     6     7     6    2
     7     1     2    1
     8    11    10    2
     9     6     8    1
    10     6     9    1
    11    10     9    1
    12    10    13    1
    13    10    12    1
    14    35    14    1
    15    13    14    1
    16    34    14    1
    17    14    15    1
    18    36    15    1
    19    15    17    1
    20    15    16    1
    21    37    17    1
    22    42    23    1
    23    17    18    1
    24    17    19    1
    25    16    21    1
    26    18    38    1
    27    23    24    2
    28    23    22    1
    29    24    25    2
    30    39    19    1
    31    19    21    1
    32    19    20    1
    33    21    22    1
    34    21    41    1
    35    22    32    1
    36    40    20    1
    37    25    32    1
    38    25    26    1
    39    32    31    2
    40    27    26    2
    41    26    28   am
    42    31    29    2
    43    28    29    1
    44    28    43    1
    45    29    30    1
    46    30    45    1
    47    30    44    1
