@<TRIPOS>MOLECULE
1e0j_ANP_A_1.pdb
 31 33 0 0 0
SMALL
GASTEIGER

@<TRIPOS>ATOM
      1  PG        57.4530   95.4440  156.2590 P.3   700  ANP700      0.4884
      2  O1G       58.2100   95.3650  154.9900 O.2   700  ANP700     -0.2331
      3  O2G       55.9400   95.4490  156.1490 O.3   700  ANP700     -0.1240
      4  O3G       58.0030   94.5680  157.4140 O.3   700  ANP700     -0.1240
      5  PB        57.8560   98.3040  156.0410 P.3   700  ANP700      0.4669
      6  O1B       56.4450   98.8580  155.8580 O.3   700  ANP700     -0.1253
      7  O2B       58.7850   98.2260  154.8780 O.2   700  ANP700     -0.2351
      8  N3B       57.8680   96.8610  156.7460 N.3   700  ANP700     -0.0163
      9  PA        58.3380  100.7460  157.4680 P.3   700  ANP700      0.2220
     10  O1A       58.1260  101.5010  156.1370 O.2   700  ANP700     -0.5170
     11  O2A       57.2970  100.8490  158.5520 O.3   700  ANP700     -0.4370
     12  O3A       58.5320   99.2020  157.1540 O.3   700  ANP700     -0.2360
     13  O5'       59.7490  101.1370  158.1350 O.3   700  ANP700     -0.3111
     14  C5'       60.2980  100.3700  159.2540 C.3   700  ANP700      0.1813
     15  C4'       61.1090  101.3210  160.1700 C.3   700  ANP700      0.1821
     16  O4'       62.2140  101.8840  159.3830 O.3   700  ANP700     -0.3135
     17  C3'       60.3160  102.5390  160.7000 C.3   700  ANP700      0.2184
     18  O3'       60.7740  102.8830  162.0440 O.3   700  ANP700     -0.2174
     19  C2'       60.6600  103.6450  159.6810 C.3   700  ANP700      0.2570
     20  O2'       60.4990  104.9760  160.1860 O.3   700  ANP700     -0.2130
     21  C1'       62.1190  103.3240  159.3520 C.3   700  ANP700      0.3186
     22  N9        62.5540  103.7560  157.9970 N.pl3 700  ANP700     -0.1439
     23  C8        61.7490  103.9750  156.8660 C.3   700  ANP700      0.3377
     24  N7        62.4300  104.3460  155.7820 N.2   700  ANP700     -0.2095
     25  C5        63.7510  104.3740  156.2140 C.2   700  ANP700      0.2526
     26  C6        64.9570  104.6850  155.5510 C.2   700  ANP700      0.4393
     27  N6        65.0360  105.0490  154.2190 N.pl3 700  ANP700      0.2180
     28  N1        66.1400  104.6110  156.2990 N.2   700  ANP700      0.0021
     29  C2        66.0690  104.2420  157.6170 C.3   700  ANP700      0.5254
     30  N3        64.9840  103.9260  158.3440 N.2   700  ANP700     -0.0055
     31  C4        63.8420  104.0120  157.5850 C.2   700  ANP700      0.3518
@<TRIPOS>BOND
     1    27    26    1
     2     7     5    2
     3     2     1    2
     4    26    25    1
     5    26    28    2
     6    24    25    2
     7    24    23    1
     8     6     5    1
     9     5     8    1
    10     5    12    1
    11    10     9    2
    12     3     1    1
    13    25    31    1
    14     1     8    1
    15     1     4    1
    16    28    29    1
    17    23    22    1
    18    12     9    1
    19     9    13    1
    20     9    11    1
    21    31    22    1
    22    31    30    2
    23    29    30    1
    24    22    21    1
    25    13    14    1
    26    14    15    1
    27    21    16    1
    28    21    19    1
    29    16    15    1
    30    19    20    1
    31    19    17    1
    32    15    17    1
    33    17    18    1
