@<TRIPOS>MOLECULE
1e0o_IDS_E_1.pdb
 16 16 0 0 0
SMALL
GASTEIGER

@<TRIPOS>ATOM
      1  C1        25.1340  121.0860    9.4840 C.3     6  IDS6        0.1774
      2  C2        26.5880  120.8470    9.9690 C.3     6  IDS6        0.2054
      3  C3        26.6470  119.8010   11.0560 C.3     6  IDS6        0.2169
      4  C4        25.6970  120.0800   12.2520 C.3     6  IDS6        0.2227
      5  C5        24.6280  121.1490   11.8380 C.3     6  IDS6        0.2512
      6  C6        23.4100  121.2100   12.7830 C.2     6  IDS6        0.3940
      7  O2        27.4110  120.3780    8.8820 O.3     6  IDS6       -0.2384
      8  O3        27.9910  119.6860   11.5050 O.3     6  IDS6       -0.2175
      9  O4        24.9810  118.9080   12.3970 O.3     6  IDS6       -0.2171
     10  O5        24.1810  120.8140   10.5030 O.3     6  IDS6       -0.3403
     11  O61       22.3910  120.5650   12.5320 O.co2   6  IDS6       -0.2429
     12  O62       23.4220  121.8850   13.7950 O.co2   6  IDS6       -0.2429
     13  S         27.3110  118.9590    8.1100 S.3     6  IDS6       -0.0001
     14  O1S       27.8730  117.9910    9.0380 O.3     6  IDS6       -0.2682
     15  O2S       25.9200  118.6990    7.8430 O.2     6  IDS6       -0.3452
     16  O3S       28.1010  119.1030    6.9060 O.2     6  IDS6       -0.3452
@<TRIPOS>BOND
     1    16    13    2
     2    15    13    2
     3    13     7    1
     4    13    14    1
     5     7     2    1
     6     1     2    1
     7     1    10    1
     8     2     3    1
     9    10     5    1
    10     3     8    1
    11     3     4    1
    12     5     4    1
    13     5     6    1
    14     4     9    1
    15    11     6   ar
    16     6    12   ar
