@<TRIPOS>MOLECULE
1e0o_SGN_E_1.pdb
 19 19 0 0 0
SMALL
GASTEIGER

@<TRIPOS>ATOM
      1  C1        31.8260  128.7520    5.4340 C.3     3  SGN3        0.1640
      2  C2        31.1290  127.3800    5.5850 C.3     3  SGN3        0.1563
      3  C3        29.6490  127.6350    5.8570 C.3     3  SGN3        0.2047
      4  C4        29.5160  128.4420    7.1990 C.3     3  SGN3        0.2131
      5  C5        30.2850  129.7890    7.0130 C.3     3  SGN3        0.1800
      6  C6        30.3160  130.6850    8.2580 C.3     3  SGN3        0.2045
      7  N         31.3060  126.5950    4.3300 N.3     3  SGN3       -0.1156
      8  O3        29.0270  126.3990    5.9900 O.3     3  SGN3       -0.2187
      9  O4        28.0990  128.7590    7.4790 O.3     3  SGN3       -0.2176
     10  O5        31.6590  129.5360    6.6500 O.3     3  SGN3       -0.3493
     11  O6        30.1860  129.8800    9.4090 O.3     3  SGN3       -0.2384
     12  S1        32.4940  125.4340    4.2750 S.3     3  SGN3       -0.1289
     13  O1S       33.7010  126.0200    4.8300 O.3     3  SGN3       -0.2919
     14  O2S       32.0000  124.3160    5.0490 O.3     3  SGN3       -0.2919
     15  O3S       32.6500  125.0980    2.8620 O.3     3  SGN3       -0.2919
     16  S2        29.9910  130.3550   10.9060 S.3     3  SGN3       -0.0001
     17  O4S       28.5600  130.3650   11.1770 O.2     3  SGN3       -0.3452
     18  O5S       30.7080  129.3550   11.6890 O.3     3  SGN3       -0.2682
     19  O6S       30.6010  131.6780   11.0000 O.2     3  SGN3       -0.3452
@<TRIPOS>BOND
     1    15    12    1
     2    12     7    1
     3    12    13    1
     4    12    14    1
     5     7     2    1
     6     1     2    1
     7     1    10    1
     8     2     3    1
     9     3     8    1
    10     3     4    1
    11    10     5    1
    12     5     4    1
    13     5     6    1
    14     4     9    1
    15     6    11    1
    16    11    16    1
    17    16    19    2
    18    16    17    2
    19    16    18    1
