@<TRIPOS>MOLECULE
1e0p_RET_A_1.pdb
 20 20 0 0 0
SMALL
GASTEIGER

@<TRIPOS>ATOM
      1  C1        15.1480   45.2390   -0.3890 C.3   300  RET300      0.0183
      2  C2        14.7120   46.2340   -1.4970 C.3   300  RET300      0.0044
      3  C3        15.2740   47.6030   -1.3960 C.3   300  RET300      0.0047
      4  C4        14.9900   48.2030   -0.0460 C.3   300  RET300      0.0217
      5  C5        15.3500   47.3110    1.1300 C.2   300  RET300     -0.0479
      6  C6        15.4530   45.9330    1.0160 C.2   300  RET300     -0.0307
      7  C7        15.8540   45.1660    2.2030 C.2   300  RET300     -0.0052
      8  C8        16.0350   43.8310    2.4550 C.2   300  RET300     -0.0046
      9  C9        16.4900   43.2410    3.7050 C.2   300  RET300     -0.0219
     10  C10       16.5850   41.9150    3.7430 C.2   300  RET300     -0.0043
     11  C11       17.0510   41.0990    4.8550 C.2   300  RET300     -0.0007
     12  C12       17.1020   39.7720    4.8840 C.2   300  RET300     -0.0046
     13  C13       17.5820   39.0020    6.0240 C.2   300  RET300     -0.0261
     14  C14       17.5720   37.6490    6.0570 C.2   300  RET300     -0.0300
     15  C15       17.1430   36.6810    5.1270 C.3   300  RET300      0.0304
     16  C16       13.9570   44.2680   -0.3010 C.3   300  RET300      0.0043
     17  C17       16.4070   44.4930   -0.9090 C.3   300  RET300      0.0043
     18  C18       15.5050   48.1000    2.4150 C.3   300  RET300      0.0260
     19  C19       16.8330   44.1330    4.8870 C.3   300  RET300      0.0310
     20  C20       18.1130   39.7750    7.2300 C.3   300  RET300      0.0307
@<TRIPOS>BOND
     1     2     3    1
     2     2     1    1
     3     3     4    1
     4    17     1    1
     5     1    16    1
     6     1     6    1
     7     4     5    1
     8     6     5    2
     9     6     7    1
    10     5    18    1
    11     7     8    2
    12     8     9    1
    13     9    10    2
    14     9    19    1
    15    10    11    1
    16    11    12    2
    17    12    13    1
    18    15    14    1
    19    13    14    2
    20    13    20    1
