@<TRIPOS>MOLECULE
1e0s_GDP_A_1.pdb
 28 30 0 0 0
SMALL
GASTEIGER

@<TRIPOS>ATOM
      1  PB         3.5230   16.6530   50.2990 P.3   200  GDP200      0.5373
      2  O1B        4.6430   17.0510   51.1820 O.3   200  GDP200     -0.1143
      3  O2B        2.5590   15.7810   51.0010 O.3   200  GDP200     -0.1143
      4  O3B        2.8940   17.8070   49.6280 O.2   200  GDP200     -0.2221
      5  O3A        4.1570   15.7600   49.1470 O.3   200  GDP200     -0.2261
      6  PA         3.5700   14.4390   48.4360 P.3   200  GDP200      0.2231
      7  O1A        3.6810   13.2980   49.3480 O.3   200  GDP200     -0.4370
      8  O2A        2.2380   14.7770   47.8800 O.2   200  GDP200     -0.5169
      9  O5'        4.5890   14.2430   47.2240 O.3   200  GDP200     -0.3111
     10  C5'        4.6530   15.2320   46.2080 C.3   200  GDP200      0.1813
     11  C4'        5.0410   14.6430   44.8840 C.3   200  GDP200      0.1799
     12  O4'        6.4090   14.2000   44.9450 O.3   200  GDP200     -0.3326
     13  C3'        4.2030   13.4250   44.5180 C.3   200  GDP200      0.2158
     14  O3'        4.0730   13.4720   43.0930 O.3   200  GDP200     -0.2175
     15  C2'        5.1210   12.2880   45.0190 C.3   200  GDP200      0.2310
     16  O2'        4.9130   11.0510   44.3560 O.3   200  GDP200     -0.2158
     17  C1'        6.4890   12.8110   44.6610 C.3   200  GDP200      0.2293
     18  N9         7.5230   12.1720   45.4740 N.pl3 200  GDP200     -0.2354
     19  C8         7.5890   12.0320   46.8400 C.3   200  GDP200      0.2246
     20  N7         8.6090   11.3260   47.2460 N.2   200  GDP200     -0.2322
     21  C5         9.3350   11.1200   46.0820 C.2   200  GDP200      0.2182
     22  C6        10.6000   10.4880   45.9150 C.1   200  GDP200      0.2372
     23  O6        11.3770   10.1490   46.7880 O.2   200  GDP200     -0.2069
     24  N1        10.9360   10.3670   44.5840 N.2   200  GDP200     -0.2485
     25  C2        10.2040   10.9190   43.5360 C.1   200  GDP200      0.2531
     26  N2        10.6450   10.6430   42.3120 N.pl3 200  GDP200     -0.0226
     27  N3         9.0630   11.6130   43.6940 N.2   200  GDP200     -0.3074
     28  C4         8.6750   11.6280   44.9890 C.2   200  GDP200      0.2300
@<TRIPOS>BOND
     1    26    25    1
     2    14    13    1
     3    25    27    2
     4    25    24    2
     5    27    28    2
     6    16    15    1
     7    13    11    1
     8    13    15    1
     9    24    22    2
    10    17    12    1
    11    17    15    1
    12    17    18    1
    13    11    12    1
    14    11    10    1
    15    28    18    1
    16    28    21    1
    17    18    19    1
    18    22    21    1
    19    22    23    2
    20    21    20    2
    21    10     9    1
    22    19    20    1
    23     9     6    1
    24     8     6    2
    25     6     5    1
    26     6     7    1
    27     5     1    1
    28     4     1    2
    29     1     3    1
    30     1     2    1
