@<TRIPOS>MOLECULE
1e0v_FFC_A_1.pdb
 22 23 0 0 0
SMALL
GASTEIGER

@<TRIPOS>ATOM
      1  C1A       11.2020   16.8460   14.8150 C.3   701  FFC701      0.1801
      2  C2A       10.7380   17.0810   16.2340 C.3   701  FFC701      0.2229
      3  C3A       10.1360   15.8050   16.7670 C.3   701  FFC701      0.2163
      4  C4A        9.0200   15.3850   15.7990 C.3   701  FFC701      0.1804
      5  C5A        9.6230   15.1320   14.4180 C.3   701  FFC701      0.1778
      6  C6A        8.5640   14.7810   13.3660 C.3   701  FFC701      0.2140
      7  F2A       11.7670   17.5220   17.0540 F     701  FFC701     -0.2317
      8  O3A        9.6870   16.0210   18.0940 O.3   701  FFC701     -0.2174
      9  O4A        8.4050   14.2020   16.2710 O.3   701  FFC701     -0.3257
     10  O5A       10.2100   16.3490   13.9680 O.3   701  FFC701     -0.3480
     11  O6A        7.6550   15.8790   13.2890 O.3   701  FFC701     -0.2176
     12  C1B        6.9860   14.2170   16.1560 C.3   701  FFC701      0.2695
     13  C2B        6.5100   12.7930   16.4800 C.3   701  FFC701      0.2406
     14  C3B        4.9780   12.7970   16.4980 C.3   701  FFC701      0.2198
     15  C4B        4.4250   13.8720   17.4200 C.3   701  FFC701      0.2144
     16  C5B        5.0910   15.2410   17.2040 C.3   701  FFC701      0.1835
     17  C6B        4.7490   16.3060   18.2440 C.3   701  FFC701      0.2142
     18  O2B        6.9910   11.9060   15.4730 O.3   701  FFC701     -0.2149
     19  O3B        4.5280   11.5050   16.8980 O.3   701  FFC701     -0.2174
     20  O4B        3.0160   13.8800   17.2240 O.3   701  FFC701     -0.2176
     21  O5B        6.4970   15.0730   17.1790 O.3   701  FFC701     -0.3256
     22  O6B        5.2650   15.9870   19.5130 O.3   701  FFC701     -0.2176
@<TRIPOS>BOND
     1    11     6    1
     2     6     5    1
     3    10     5    1
     4    10     1    1
     5     5     4    1
     6     1     2    1
     7    18    13    1
     8     4     9    1
     9     4     3    1
    10    12     9    1
    11    12    13    1
    12    12    21    1
    13     2     3    1
    14     2     7    1
    15    13    14    1
    16    14    19    1
    17    14    15    1
    18     3     8    1
    19    21    16    1
    20    16    15    1
    21    16    17    1
    22    20    15    1
    23    17    22    1
