@<TRIPOS>MOLECULE
1e0y_FCR_B_1.pdb
 11 11 0 0 0
SMALL
GASTEIGER

@<TRIPOS>ATOM
      1  C1        94.0340   24.9720   41.5370 C.ar  601  FCR601      0.0716
      2  C2        92.8020   25.4830   41.0880 C.ar  601  FCR601      0.0071
      3  C3        92.1400   26.5630   41.7080 C.ar  601  FCR601      0.0420
      4  C4        92.7040   27.1640   42.8350 C.ar  601  FCR601      0.1957
      5  C5        93.9170   26.6670   43.3090 C.ar  601  FCR601      0.0420
      6  C6        94.5610   25.5940   42.6780 C.ar  601  FCR601      0.0071
      7  C7        94.6720   23.8270   40.8860 C.3   601  FCR601      0.4186
      8  O4        92.0370   28.2110   43.4110 O.3   601  FCR601     -0.2866
      9  F1        94.9360   23.8200   39.5840 F     601  FCR601     -0.1659
     10  F2        95.8660   23.5270   41.4770 F     601  FCR601     -0.1659
     11  F3        93.8710   22.7660   41.0250 F     601  FCR601     -0.1659
@<TRIPOS>BOND
     1     9     7    1
     2     7    11    1
     3     7    10    1
     4     7     1    1
     5     2     1   ar
     6     2     3   ar
     7     1     6   ar
     8     3     4   ar
     9     6     5   ar
    10     4     5   ar
    11     4     8    1
