@<TRIPOS>MOLECULE
1e12_PLM_A_1.pdb
 18 17 0 0 0
SMALL
GASTEIGER

@<TRIPOS>ATOM
      1  C1        10.7230   40.2770   71.5680 C.2   700  PLM700      0.3649
      2  O1        11.4250   40.0670   70.5000 O.co2 700  PLM700     -0.2457
      3  O2        11.1710   40.8810   72.5740 O.co2 700  PLM700     -0.2457
      4  C2         9.2680   39.8020   71.6890 C.3   700  PLM700      0.1141
      5  C3         8.6620   40.2070   73.0420 C.3   700  PLM700      0.0118
      6  C4         7.1570   39.9810   73.2370 C.3   700  PLM700      0.0006
      7  C5         6.8010   40.6340   74.5950 C.3   700  PLM700      0.0000
      8  C6         5.3130   40.6380   74.9310 C.3   700  PLM700      0.0000
      9  C7         5.1640   40.5420   76.4420 C.3   700  PLM700      0.0000
     10  C8         3.7150   40.4740   76.9390 C.3   700  PLM700      0.0000
     11  C9         3.6930   40.2780   78.4630 C.3   700  PLM700      0.0000
     12  CA         2.2980   40.4670   79.0540 C.3   700  PLM700      0.0000
     13  CB         2.2650   40.0800   80.5250 C.3   700  PLM700      0.0000
     14  CC         3.2560   40.8820   81.3150 C.3   700  PLM700      0.0000
     15  CD         3.3500   40.4010   82.7460 C.3   700  PLM700      0.0000
     16  CE         4.4840   41.1250   83.4320 C.3   700  PLM700      0.0000
     17  CF         4.8990   40.4730   84.7410 C.3   700  PLM700      0.0000
     18  CG         6.2250   41.1250   85.2600 C.3   700  PLM700      0.0000
@<TRIPOS>BOND
     1     2     1   ar
     2     1     4    1
     3     1     3   ar
     4     4     5    1
     5     5     6    1
     6     6     7    1
     7     7     8    1
     8     8     9    1
     9     9    10    1
    10    10    11    1
    11    11    12    1
    12    12    13    1
    13    13    14    1
    14    14    15    1
    15    15    16    1
    16    16    17    1
    17    17    18    1
