@<TRIPOS>MOLECULE
1e12_RET_A_1.pdb
 20 20 0 0 0
SMALL
GASTEIGER

@<TRIPOS>ATOM
      1  C1        12.4580   26.3020   74.5370 C.3   999  RET999      0.0183
      2  C2        13.5740   26.6230   73.5160 C.3   999  RET999      0.0044
      3  C3        14.4150   27.8040   74.0010 C.3   999  RET999      0.0047
      4  C4        15.2260   27.3670   75.2330 C.3   999  RET999      0.0217
      5  C5        14.2690   26.8250   76.3540 C.2   999  RET999     -0.0479
      6  C6        12.9890   26.2850   76.0380 C.2   999  RET999     -0.0307
      7  C7        12.1410   25.7680   77.1810 C.2   999  RET999     -0.0052
      8  C8        10.7990   25.4280   77.0850 C.2   999  RET999     -0.0049
      9  C9        10.1000   24.8310   78.2290 C.2   999  RET999     -0.0258
     10  C10        8.8340   24.4000   77.9960 C.2   999  RET999     -0.0257
     11  C11        7.9930   23.7880   78.9800 C.3   999  RET999      0.0510
     12  C12        6.6920   23.3620   78.5160 C.2   999  RET999     -0.0299
     13  C13        5.7360   22.6790   79.3100 C.2   999  RET999     -0.0478
     14  C14        4.6840   22.4520   78.7580 C.3   999  RET999      0.0217
     15  C15        3.4400   22.1280   79.4090 C.3   999  RET999      0.0047
     16  C16       11.3720   27.4120   74.4010 C.3   999  RET999      0.0043
     17  C17       11.8720   24.9810   74.1170 C.3   999  RET999      0.0043
     18  C18       14.7760   26.8880   77.8090 C.3   999  RET999      0.0260
     19  C19       10.8150   24.6540   79.6230 C.3   999  RET999      0.0307
     20  C20        6.0550   22.2860   80.7040 C.3   999  RET999      0.0260
@<TRIPOS>BOND
     1     2     3    1
     2     2     1    1
     3     3     4    1
     4    17     1    1
     5    16     1    1
     6     1     6    1
     7     4     5    1
     8     6     5    2
     9     6     7    1
    10     5    18    1
    11     8     7    2
    12     8     9    1
    13    10     9    2
    14    10    11    1
    15     9    19    1
    16    12    11    1
    17    12    13    2
    18    14    13    1
    19    14    15    1
    20    13    20    1
