@<TRIPOS>MOLECULE
1e12_MPG_A_1.pdb
 24 23 0 0 0
SMALL
GASTEIGER

@<TRIPOS>ATOM
      1  C2        25.0960   24.5480   62.7210 C.3   701  MPG701      0.0321
      2  C3        25.1030   25.7830   63.6350 C.3   701  MPG701      0.0026
      3  C4        24.7550   25.4270   65.0860 C.3   701  MPG701      0.0001
      4  C5        25.0660   26.5660   66.0510 C.3   701  MPG701      0.0000
      5  C6        24.6010   26.2250   67.4580 C.3   701  MPG701      0.0003
      6  C7        24.8080   27.4060   68.3860 C.3   701  MPG701      0.0047
      7  C8        24.3120   27.1180   69.7920 C.3   701  MPG701      0.0257
      8  C9        24.3860   28.3900   70.6350 C.2   701  MPG701     -0.0307
      9  C10       23.9800   28.5830   71.9020 C.2   701  MPG701     -0.0307
     10  C11       23.3350   27.5760   72.8290 C.3   701  MPG701      0.0257
     11  C12       23.2210   28.0830   74.2570 C.3   701  MPG701      0.0047
     12  C13       22.9550   26.8650   75.1300 C.3   701  MPG701      0.0003
     13  C14       23.2380   27.1170   76.5960 C.3   701  MPG701      0.0000
     14  C15       23.3890   25.7580   77.2570 C.3   701  MPG701      0.0000
     15  C16       23.9670   25.8360   78.6490 C.3   701  MPG701      0.0000
     16  C17       24.4970   24.4480   79.0230 C.3   701  MPG701      0.0000
     17  C18       24.9790   24.3230   80.4710 C.3   701  MPG701      0.0000
     18  O1        23.8230   22.6180   61.9860 O.3   701  MPG701     -0.3510
     19  C1        23.7510   24.0210   62.2220 C.3   701  MPG701      0.1423
     20  CXD       23.3560   20.3470   62.7610 C.3   701  MPG701      0.2141
     21  O2        24.5210   20.1020   63.5560 O.3   701  MPG701     -0.2176
     22  C21       23.6090   19.9140   61.3130 C.3   701  MPG701      0.2174
     23  O3        24.0010   18.5530   61.2500 O.3   701  MPG701     -0.2175
     24  CX3       22.9800   21.8330   62.8150 C.3   701  MPG701      0.1776
@<TRIPOS>BOND
     1    23    22    1
     2    22    20    1
     3    18    19    1
     4    18    24    1
     5    19     1    1
     6     1     2    1
     7    20    24    1
     8    20    21    1
     9     2     3    1
    10     3     4    1
    11     4     5    1
    12     5     6    1
    13     6     7    1
    14     7     8    1
    15     8     9    2
    16     9    10    1
    17    10    11    1
    18    11    12    1
    19    12    13    1
    20    13    14    1
    21    14    15    1
    22    15    16    1
    23    16    17    1
