@<TRIPOS>MOLECULE
1e14_SPN_M_1.pdb
 43 42 0 0 0
SMALL
GASTEIGER

@<TRIPOS>ATOM
      1  CMA       24.1880  116.1690    6.3440 C.3   600  SPN600      0.1745
      2  O1        25.7190  116.3830    6.1890 O.3   600  SPN600     -0.3489
      3  CM1       27.5000  118.1070    6.7880 C.3   600  SPN600      0.0372
      4  CM2       25.0150  118.5050    7.2350 C.3   600  SPN600      0.0372
      5  C1        26.1650  117.5000    7.1380 C.3   600  SPN600      0.1440
      6  C2        26.2100  116.7430    8.4610 C.2   600  SPN600      0.1791
      7  O2        26.1700  117.3340    9.5360 O.2   600  SPN600     -0.2933
      8  C3        26.2300  115.1500    8.5460 C.3   600  SPN600      0.0926
      9  C4        26.7510  114.6700    9.7570 C.2   600  SPN600     -0.0225
     10  C5        26.8070  113.1480    9.9740 C.2   600  SPN600     -0.0260
     11  CM3       26.2390  112.1570    8.9650 C.3   600  SPN600      0.0307
     12  C6        27.0650  112.8570   11.2990 C.2   600  SPN600     -0.0091
     13  C7        27.1980  111.4980   11.9170 C.2   600  SPN600     -0.0265
     14  C8        27.7560  111.4340   13.2150 C.3   600  SPN600      0.0260
     15  C9        27.8200  109.9880   13.7080 C.3   600  SPN600      0.0043
     16  CM4       27.5370  108.8150   12.7180 C.3   600  SPN600      0.0003
     17  C10       28.4750  109.7900   14.8960 C.3   600  SPN600      0.0003
     18  C11       28.4210  108.3140   15.3920 C.3   600  SPN600      0.0000
     19  C12       28.5800  108.2320   16.7680 C.3   600  SPN600      0.0003
     20  C13       28.6470  106.9150   17.5220 C.3   600  SPN600      0.0043
     21  CM5       28.1010  105.6330   16.8630 C.3   600  SPN600      0.0003
     22  C14       29.6170  106.9820   18.5300 C.3   600  SPN600      0.0257
     23  C15       29.8610  105.8230   19.4700 C.2   600  SPN600     -0.0304
     24  C16       30.7980  105.8300   20.5000 C.2   600  SPN600     -0.0263
     25  C17       31.6560  107.0360   20.8560 C.3   600  SPN600      0.0473
     26  C18       32.6540  106.9840   21.8350 C.2   600  SPN600     -0.0438
     27  CM6       32.9060  105.8630   22.8490 C.3   600  SPN600      0.0264
     28  C19       33.3440  108.3250   22.0570 C.2   600  SPN600     -0.0343
     29  C20       34.3680  108.4100   22.9880 C.3   600  SPN600      0.0254
     30  C21       34.9710  109.8280   23.0660 C.3   600  SPN600      0.0046
     31  C22       36.0010  110.0470   23.9670 C.3   600  SPN600      0.0003
     32  CM7       35.9930  109.5580   25.4350 C.3   600  SPN600      0.0000
     33  C23       36.9800  111.1820   23.7140 C.3   600  SPN600      0.0000
     34  C24       38.3440  110.9540   24.3460 C.3   600  SPN600      0.0000
     35  C25       39.2740  112.0850   23.8370 C.3   600  SPN600      0.0000
     36  C26       40.0940  112.0500   22.7040 C.3   600  SPN600      0.0003
     37  CM8       40.5090  110.7250   22.0390 C.3   600  SPN600      0.0000
     38  C27       40.9990  113.2460   22.3400 C.3   600  SPN600      0.0046
     39  C28       42.3420  113.2340   23.0470 C.3   600  SPN600      0.0254
     40  C29       42.9710  114.6080   23.2410 C.2   600  SPN600     -0.0346
     41  C30       42.7590  115.5500   24.2550 C.2   600  SPN600     -0.0478
     42  CM9       41.7650  115.3660   25.4320 C.3   600  SPN600      0.0260
     43  CMB       43.5190  116.9000   24.3380 C.3   600  SPN600      0.0260
@<TRIPOS>BOND
     1     2     1    1
     2     2     5    1
     3     3     5    1
     4     5     4    1
     5     5     6    1
     6     6     8    1
     7     6     7    2
     8     8     9    1
     9    11    10    1
    10     9    10    2
    11    10    12    1
    12    12    13    2
    13    13    14    1
    14    16    15    1
    15    14    15    1
    16    15    17    1
    17    17    18    1
    18    18    19    1
    19    19    20    1
    20    21    20    1
    21    20    22    1
    22    22    23    1
    23    23    24    2
    24    24    25    1
    25    25    26    1
    26    26    28    2
    27    26    27    1
    28    37    36    1
    29    28    29    1
    30    38    36    1
    31    38    39    1
    32    36    35    1
    33    29    30    1
    34    39    40    1
    35    30    31    1
    36    40    41    2
    37    33    31    1
    38    33    34    1
    39    35    34    1
    40    31    32    1
    41    41    43    1
    42    41    42    1
