@<TRIPOS>MOLECULE
1e14_U10_L_1.pdb
 48 47 0 0 0
SMALL
GASTEIGER

@<TRIPOS>ATOM
      1  C1        12.0110  114.0680   34.1430 C.2   501  U10501      0.0198
      2  C2        11.2560  113.7900   35.3420 C.2   501  U10501      0.2282
      3  C3        10.1090  114.6040   35.6990 C.2   501  U10501      0.2140
      4  C4         9.7670  115.6250   34.8730 C.2   501  U10501      0.2140
      5  C5        10.5210  115.9130   33.6760 C.2   501  U10501      0.2285
      6  C6        11.6660  115.0960   33.3210 C.2   501  U10501      0.0235
      7  C1M       13.2120  113.2000   33.7940 C.3   501  U10501      0.0343
      8  C3M        9.4510  114.7730   38.1820 C.3   501  U10501      0.2528
      9  C4M        8.7550  117.6840   35.9330 C.3   501  U10501      0.2528
     10  C7        12.4530  115.4090   32.0650 C.3   501  U10501      0.0548
     11  C8        12.3060  114.4820   30.9870 C.2   501  U10501     -0.0298
     12  C9        12.0910  114.6400   29.6280 C.2   501  U10501     -0.0475
     13  C10       11.9490  115.9450   28.8280 C.3   501  U10501      0.0260
     14  C11       11.9910  113.3750   28.7600 C.3   501  U10501      0.0264
     15  C12       13.3470  112.9400   28.2240 C.3   501  U10501      0.0297
     16  C13       13.1520  112.2650   26.9270 C.2   501  U10501     -0.0343
     17  C14       13.8200  111.0640   26.6070 C.2   501  U10501     -0.0481
     18  C15       14.7740  110.4620   27.6610 C.3   501  U10501      0.0260
     19  C16       13.6840  110.2940   25.2970 C.3   501  U10501      0.0227
     20  C17       12.3510  110.4710   24.5900 C.3   501  U10501      0.0183
     21  C18       12.0900  109.4880   23.5530 C.3   501  U10501      0.0774
     22  C19       10.8870  109.0780   22.9580 C.1   501  U10501     -0.0779
     23  C20        9.8020  108.5080   22.7330 C.1   501  U10501     -0.0141
     24  C26       11.8230  107.8660   21.3930 C.3   501  U10501      0.0050
     25  C27       13.2310  107.2940   21.3250 C.3   501  U10501      0.0254
     26  C28       13.3840  106.6010   20.0440 C.2   501  U10501     -0.0346
     27  C29       13.6650  105.2640   19.7540 C.2   501  U10501     -0.0478
     28  C30       13.9100  104.3260   20.9490 C.3   501  U10501      0.0260
     29  C31       13.7690  104.5900   18.3860 C.3   501  U10501      0.0263
     30  C32       14.9680  105.0240   17.5430 C.3   501  U10501      0.0297
     31  C33       15.8130  103.9080   17.2330 C.2   501  U10501     -0.0342
     32  C34       16.6770  103.3740   16.3070 C.2   501  U10501     -0.0478
     33  C35       17.3720  102.0010   16.4670 C.3   501  U10501      0.0260
     34  C36       17.0830  103.9990   14.9510 C.3   501  U10501      0.0263
     35  C37       16.2230  103.4390   13.8170 C.3   501  U10501      0.0297
     36  C38       16.8560  102.9190   12.6700 C.2   501  U10501     -0.0342
     37  C39       17.9630  102.5450   11.9620 C.2   501  U10501     -0.0478
     38  C40       17.7060  101.9990   10.5330 C.3   501  U10501      0.0260
     39  C41       19.4130  102.6250   12.4360 C.3   501  U10501      0.0263
     40  C42       19.6300  102.4600   13.9300 C.3   501  U10501      0.0297
     41  C43       19.2830  103.6000   14.7240 C.2   501  U10501     -0.0342
     42  C44       19.3510  104.9750   14.8310 C.2   501  U10501     -0.0478
     43  C45       20.0420  105.9450   13.8480 C.3   501  U10501      0.0260
     44  C46       18.7080  105.7550   16.0030 C.3   501  U10501      0.0260
     45  O2        11.5120  112.8880   36.1360 O.2   501  U10501     -0.2836
     46  O3         9.5130  114.1460   36.9430 O.2   501  U10501     -0.4652
     47  O4         8.6350  116.4830   35.2190 O.2   501  U10501     -0.4652
     48  O5        10.2400  116.8370   32.9140 O.2   501  U10501     -0.2835
@<TRIPOS>BOND
     1    38    37    1
     2    37    39    1
     3    37    36    2
     4    39    40    1
     5    36    35    1
     6    35    34    1
     7    43    42    1
     8    40    41    1
     9    41    42    2
    10    42    44    1
    11    34    32    1
    12    32    33    1
    13    32    31    2
    14    31    30    1
    15    30    29    1
    16    29    27    1
    17    27    26    2
    18    27    28    1
    19    26    25    1
    20    25    24    1
    21    23    22    3
    22    22    21    1
    23    21    20    1
    24    20    19    1
    25    19    17    1
    26    17    16    2
    27    17    18    1
    28    16    15    1
    29    15    14    1
    30    14    12    1
    31    13    12    1
    32    12    11    2
    33    11    10    1
    34    10     6    1
    35    48     5    2
    36     6     5    1
    37     6     1    2
    38     5     4    1
    39     7     1    1
    40     1     2    1
    41     4    47    1
    42     4     3    2
    43    47     9    1
    44     2     3    1
    45     2    45    2
    46     3    46    1
    47    46     8    1
