@<TRIPOS>MOLECULE
1e18_PGD_A_1.pdb
 47 52 0 0 0
SMALL
GASTEIGER

@<TRIPOS>ATOM
      1  PB         3.6160   48.6850   30.7130 P.3   801  PGD801      0.2189
      2  O1B        4.2930   50.0920   31.4050 O.3   801  PGD801     -0.4371
      3  O2B        2.6370   48.8710   29.3690 O.2   801  PGD801     -0.5170
      4  O3B        2.7340   48.1050   31.9810 O.3   801  PGD801     -0.2703
      5  O3A        1.2300   46.9340   33.6960 O.3   801  PGD801     -0.3112
      6  PA         2.2460   46.5600   32.3330 P.3   801  PGD801      0.2189
      7  O1A        3.6160   45.7640   32.9190 O.3   801  PGD801     -0.4371
      8  O2A        1.4930   45.9440   31.0060 O.2   801  PGD801     -0.5170
      9  O5'        4.8610   47.5140   30.4750 O.3   801  PGD801     -0.3112
     10  C5'        5.0170   47.1280   29.1370 C.3   801  PGD801      0.1813
     11  C4'        6.5520   47.0120   28.9120 C.3   801  PGD801      0.1799
     12  O4'        6.7870   46.3130   27.7100 O.3   801  PGD801     -0.3326
     13  C3'        7.1780   48.3980   28.7620 C.3   801  PGD801      0.2158
     14  O3'        8.3060   48.5630   29.6040 O.3   801  PGD801     -0.2175
     15  C2'        7.5780   48.4030   27.2930 C.3   801  PGD801      0.2310
     16  O2'        8.7250   49.1510   27.0510 O.3   801  PGD801     -0.2158
     17  C1'        7.8190   46.9560   26.9650 C.3   801  PGD801      0.2293
     18  N9         7.7180   46.5560   25.5580 N.pl3 801  PGD801     -0.2354
     19  C8         6.8720   47.0360   24.6000 C.3   801  PGD801      0.2246
     20  N7         6.9810   46.3810   23.4020 N.2   801  PGD801     -0.2322
     21  C5         7.9460   45.4620   23.6590 C.2   801  PGD801      0.2182
     22  C6         8.4830   44.5200   22.7900 C.1   801  PGD801      0.2372
     23  O6         8.0980   44.4010   21.6340 O.2   801  PGD801     -0.2069
     24  N1         9.4410   43.6790   23.2690 N.2   801  PGD801     -0.2485
     25  C2         9.8390   43.8040   24.5970 C.1   801  PGD801      0.2531
     26  N2        10.8340   42.9330   25.0770 N.pl3 801  PGD801     -0.0226
     27  N3         9.3430   44.7420   25.4800 N.2   801  PGD801     -0.3074
     28  C4         8.3730   45.5650   24.9400 C.2   801  PGD801      0.2300
     29  C10       -0.0510   47.3020   33.3160 C.3   801  PGD801      0.1795
     30  C11       -0.9350   46.8700   34.5010 C.3   801  PGD801      0.1589
     31  O11       -0.7920   47.8000   35.5410 O.3   801  PGD801     -0.3315
     32  C12       -2.4080   46.7920   34.1260 C.3   801  PGD801      0.1004
     33  S12       -2.9450   46.3260   32.4890 S.3   801  PGD801     -0.0794
     34  C13       -3.3470   47.3720   34.9170 C.3   801  PGD801      0.0980
     35  S13       -5.0700   47.4730   34.4520 S.3   801  PGD801     -0.0799
     36  C14       -3.0380   47.7120   36.3540 C.3   801  PGD801      0.1678
     37  N15       -3.3510   49.1390   36.5720 N.2   801  PGD801     -0.2452
     38  C16       -3.0290   49.5860   37.9090 C.2   801  PGD801      0.2464
     39  C17       -3.8130   50.4720   38.6560 C.1   801  PGD801      0.2441
     40  O17       -4.8490   50.9490   38.2280 O.2   801  PGD801     -0.2063
     41  N18       -3.4230   50.8480   39.9170 N.2   801  PGD801     -0.2474
     42  C19       -2.2940   50.3090   40.4510 C.1   801  PGD801      0.2608
     43  N19       -1.8930   50.7040   41.7430 N.pl3 801  PGD801     -0.0220
     44  N20       -1.5350   49.4000   39.7820 N.2   801  PGD801     -0.2682
     45  C21       -1.8940   49.0510   38.5010 C.1   801  PGD801      0.1292
     46  N22       -1.0970   48.0890   37.8180 N.2   801  PGD801     -0.1767
     47  C23       -1.5650   47.3570   36.6380 C.3   801  PGD801      0.2531
@<TRIPOS>BOND
     1    23    22    2
     2    22    24    2
     3    22    21    1
     4    24    25    2
     5    20    21    2
     6    20    19    1
     7    21    28    1
     8    25    26    1
     9    25    27    2
    10    19    18    1
    11    28    27    2
    12    28    18    1
    13    18    17    1
    14    17    15    1
    15    17    12    1
    16    16    15    1
    17    15    13    1
    18    12    11    1
    19    13    11    1
    20    13    14    1
    21    11    10    1
    22    10     9    1
    23     3     1    2
    24     9     1    1
    25     1     2    1
    26     1     4    1
    27     8     6    2
    28     4     6    1
    29     6     7    1
    30     6     5    1
    31    33    32    1
    32    29     5    1
    33    29    30    1
    34    32    30    1
    35    32    34    1
    36    35    34    1
    37    30    31    1
    38    34    36    1
    39    31    47    1
    40    36    37    1
    41    36    47    1
    42    37    38    2
    43    47    46    1
    44    46    45    2
    45    38    45    1
    46    38    39    1
    47    40    39    2
    48    45    44    2
    49    39    41    2
    50    44    42    2
    51    41    42    2
    52    42    43    1
