@<TRIPOS>MOLECULE
1e19_ADP_A_1.pdb
 27 29 0 0 0
SMALL
GASTEIGER

@<TRIPOS>ATOM
      1  PB         8.0510   37.2990   55.9110 P.3   315  ADP315      0.5373
      2  O1B        7.3630   37.6910   54.6310 O.2   315  ADP315     -0.2221
      3  O2B        9.0320   38.3640   56.2520 O.3   315  ADP315     -0.1143
      4  O3B        8.5900   35.9090   55.8640 O.3   315  ADP315     -0.1143
      5  PA         5.9930   36.3870   57.8830 P.3   315  ADP315      0.2231
      6  O1A        4.7280   37.1040   57.9150 O.3   315  ADP315     -0.4370
      7  O2A        6.0040   35.0400   57.2890 O.2   315  ADP315     -0.5169
      8  O3A        6.9510   37.3940   57.0780 O.3   315  ADP315     -0.2261
      9  O5'        6.6450   36.3000   59.3220 O.3   315  ADP315     -0.3111
     10  C5'        6.6140   37.4860   60.1350 C.3   315  ADP315      0.1813
     11  C4'        5.4460   37.3870   61.1430 C.3   315  ADP315      0.1821
     12  O4'        5.6910   36.3530   62.1350 O.3   315  ADP315     -0.3135
     13  C3'        5.2200   38.6630   61.9290 C.3   315  ADP315      0.2184
     14  O3'        4.5350   39.6910   61.2600 O.3   315  ADP315     -0.2174
     15  C2'        4.4520   38.1180   63.1820 C.3   315  ADP315      0.2570
     16  O2'        3.0100   38.4530   63.0930 O.3   315  ADP315     -0.2130
     17  C1'        4.6410   36.6360   63.0630 C.3   315  ADP315      0.3186
     18  N9         4.9830   35.9810   64.3250 N.pl3 315  ADP315     -0.1439
     19  C8         4.5390   34.7190   64.7020 C.3   315  ADP315      0.3377
     20  N7         5.0570   34.2870   65.8240 N.2   315  ADP315     -0.2095
     21  C5         5.9070   35.2630   66.1920 C.2   315  ADP315      0.2526
     22  C6         6.7470   35.3360   67.2780 C.2   315  ADP315      0.4393
     23  N6         7.0060   34.4190   68.3000 N.pl3 315  ADP315      0.2180
     24  N1         7.5560   36.4200   67.3600 N.2   315  ADP315      0.0021
     25  C2         7.4530   37.4000   66.3880 C.3   315  ADP315      0.5254
     26  N3         6.6830   37.4070   65.2990 N.2   315  ADP315     -0.0055
     27  C4         5.9010   36.3010   65.2610 C.2   315  ADP315      0.3518
@<TRIPOS>BOND
     1     2     1    2
     2     4     1    1
     3     1     3    1
     4     1     8    1
     5     8     5    1
     6     7     5    2
     7     5     6    1
     8     5     9    1
     9     9    10    1
    10    10    11    1
    11    11    13    1
    12    11    12    1
    13    14    13    1
    14    13    15    1
    15    12    17    1
    16    17    15    1
    17    17    18    1
    18    16    15    1
    19    18    19    1
    20    18    27    1
    21    19    20    1
    22    27    26    2
    23    27    21    1
    24    26    25    1
    25    20    21    2
    26    21    22    1
    27    25    24    1
    28    22    24    2
    29    22    23    1
