@<TRIPOS>MOLECULE
1e1d_FSO_A_1.pdb
 10 13 0 0 0
SMALL
GASTEIGER

@<TRIPOS>ATOM
      1 FE5        53.8740   30.0620   12.8770 Fe    600  FSO600      0.0000
      2 FE6        53.3970   27.3970   12.9980 Fe    600  FSO600      0.0000
      3 FE7        53.5470   30.9670   16.5020 Fe    600  FSO600      0.0000
      4 FE8        51.5080   29.0510   14.7310 Fe    600  FSO600      0.0000
      5  S5        55.3410   28.4320   13.0430 S.3   600  FSO600      0.0000
      6  S6        52.0440   29.0290   12.2100 S.3   600  FSO600      0.0000
      7  S7        49.6200   30.6070   14.3060 S.3   600  FSO600      0.0000
      8  O8        52.7700   27.2880   14.8690 O.3   600  FSO600      0.0000
      9  O9        52.0210   29.5340   16.6420 O.3   600  FSO600      0.0000
     10  O10       53.4820   30.7220   14.8110 O.3   600  FSO600      0.0000
@<TRIPOS>BOND
     1     6     1    1
     2     6     2    1
     3     6     4    1
     4     1     2    1
     5     1     5    1
     6     1    10    1
     7     2     5    1
     8     2     8    1
     9     7     4    1
    10     4     8    1
    11     4     9    1
    12    10     3    1
    13     3     9    1
