@<TRIPOS>MOLECULE
1e1f_PSG_A_1.pdb
 21 22 0 0 0
SMALL
GASTEIGER

@<TRIPOS>ATOM
      1  C7        -6.4520   -2.8810   82.4480 C.ar  513  PSG513      0.0079
      2  C8        -7.5690   -3.6170   82.8610 C.ar  513  PSG513      0.0246
      3  C9        -7.5620   -4.2570   84.1270 C.ar  513  PSG513      0.1429
      4  C10       -6.4400   -4.1180   84.9860 C.ar  513  PSG513      0.0246
      5  C11       -5.3550   -3.2960   84.6010 C.ar  513  PSG513      0.0079
      6  C12       -5.3700   -2.6170   83.3610 C.ar  513  PSG513      0.0276
      7  N1        -8.7420   -5.0840   84.5640 N.pl3 513  PSG513      0.0577
      8  O11       -8.8160   -5.4950   85.6970 O.2   513  PSG513     -0.1261
      9  O12       -9.6300   -5.3520   83.7880 O.2   513  PSG513     -0.1261
     10  S1        -4.0220   -1.4710   82.9400 S.3   513  PSG513     -0.0825
     11  C1        -4.7010    0.0960   82.2160 C.3   513  PSG513      0.1995
     12  C2        -3.9720    0.4750   80.8840 C.3   513  PSG513      0.2223
     13  C3        -4.6260    1.6530   80.1110 C.3   513  PSG513      0.2181
     14  C4        -6.1760    1.6810   80.1730 C.3   513  PSG513      0.2143
     15  C5        -6.7060    1.2860   81.5700 C.3   513  PSG513      0.1820
     16  C6        -8.2240    1.1370   81.6470 C.3   513  PSG513      0.2142
     17  O2        -2.6130    0.8160   81.1480 O.3   513  PSG513     -0.2167
     18  O3        -4.2110    1.6120   78.7480 O.3   513  PSG513     -0.2175
     19  O4        -6.6370    2.9840   79.8460 O.3   513  PSG513     -0.2176
     20  O5        -6.1290    0.0270   81.9890 O.3   513  PSG513     -0.3394
     21  O6        -8.7060    0.0710   80.8420 O.3   513  PSG513     -0.2176
@<TRIPOS>BOND
     1    18    13    1
     2    19    14    1
     3    13    14    1
     4    13    12    1
     5    14    15    1
     6    21    16    1
     7    12    17    1
     8    12    11    1
     9    15    16    1
    10    15    20    1
    11    20    11    1
    12    11    10    1
    13     1     2   ar
    14     1     6   ar
    15     2     3   ar
    16    10     6    1
    17     6     5   ar
    18     9     7    2
    19     3     7    1
    20     3     4   ar
    21     7     8    2
    22     5     4   ar
