@<TRIPOS>MOLECULE
1e1k_NAP_A_1.pdb
 48 52 0 0 0
SMALL
GASTEIGER

@<TRIPOS>ATOM
      1  PA        15.6090   -7.8610   18.3910 P.3   802  NAP802      0.2189
      2  O1A       16.0040   -8.5880   17.1960 O.2   802  NAP802     -0.5170
      3  O2A       14.1560   -7.7930   18.5750 O.3   802  NAP802     -0.4371
      4  O5B       16.2270   -8.5380   19.7550 O.3   802  NAP802     -0.3112
      5  C5B       16.5690   -7.7910   20.9540 C.3   802  NAP802      0.1813
      6  C4B       15.7910   -8.1380   22.1800 C.3   802  NAP802      0.1820
      7  O4B       16.3660   -7.7700   23.4700 O.3   802  NAP802     -0.3136
      8  C3B       15.3420   -9.5990   22.4170 C.3   802  NAP802      0.2157
      9  O3B       16.5460  -10.3870   22.5910 O.3   802  NAP802     -0.2175
     10  C2B       14.6480   -9.4390   23.7830 C.3   802  NAP802      0.2314
     11  O2B       14.8980  -10.5520   24.5300 O.3   802  NAP802     -0.2630
     12  C1B       15.6250   -8.4450   24.4590 C.3   802  NAP802      0.3158
     13  N9A       15.0140   -7.6700   25.5090 N.pl3 802  NAP802     -0.1439
     14  C8A       14.0220   -6.7630   25.3980 C.3   802  NAP802      0.3377
     15  N7A       13.8330   -6.0370   26.4450 N.2   802  NAP802     -0.2095
     16  C5A       14.7550   -6.5150   27.3600 C.2   802  NAP802      0.2526
     17  C6A       15.0660   -6.1420   28.6740 C.2   802  NAP802      0.4393
     18  N6A       14.3850   -5.1940   29.2930 N.pl3 802  NAP802      0.2180
     19  N1A       16.0750   -6.7920   29.2710 N.2   802  NAP802      0.0021
     20  C2A       16.7380   -7.7670   28.5970 C.3   802  NAP802      0.5254
     21  N3A       16.5050   -8.1810   27.3920 N.2   802  NAP802     -0.0055
     22  C4A       15.5070   -7.5060   26.8010 C.2   802  NAP802      0.3518
     23  O3        16.3180   -6.3780   18.5000 O.3   802  NAP802     -0.2703
     24  PN        17.6010   -5.7970   17.7120 P.3   802  NAP802      0.2189
     25  O1N       18.7620   -6.7040   17.8120 O.2   802  NAP802     -0.5170
     26  O2N       17.9280   -4.5120   18.4150 O.3   802  NAP802     -0.4371
     27  O5D       17.1340   -5.5560   16.1900 O.3   802  NAP802     -0.3112
     28  C5D       16.0700   -5.0900   15.3610 C.3   802  NAP802      0.1813
     29  C4D       15.9890   -5.6510   13.9660 C.3   802  NAP802      0.1799
     30  O4D       17.2090   -5.3360   13.2060 O.3   802  NAP802     -0.3327
     31  C3D       15.9010   -7.1830   14.0360 C.3   802  NAP802      0.2158
     32  O3D       14.9020   -7.5370   13.1390 O.3   802  NAP802     -0.2175
     33  C2D       17.3170   -7.6630   13.6750 C.3   802  NAP802      0.2309
     34  O2D       17.2540   -8.9110   13.0410 O.3   802  NAP802     -0.2158
     35  C1D       17.6620   -6.5200   12.6880 C.3   802  NAP802      0.2263
     36  N1N       18.9820   -6.7810   12.2230 N.pl3 802  NAP802     -0.2787
     37  C2N       19.0980   -7.7490   11.2700 C.3   802  NAP802      0.1244
     38  C3N       20.2900   -8.1120   10.7330 C.2   802  NAP802      0.0544
     39  C7N       20.5440   -9.2090    9.6190 C.2   802  NAP802      0.2818
     40  O7N       19.6240   -9.8630    9.1020 O.2   802  NAP802     -0.2670
     41  N7N       21.8080   -9.3760    9.2710 N.am  802  NAP802     -0.0839
     42  C4N       21.4900   -7.5200   11.1720 C.2   802  NAP802      0.0033
     43  C5N       21.2610   -6.5400   12.2000 C.2   802  NAP802      0.0157
     44  C6N       20.0950   -6.1500   12.7280 C.2   802  NAP802      0.0633
     45  P2B       13.7030  -11.3280   24.7090 P.3   802  NAP802      0.5328
     46  O1X       13.5290  -12.0980   23.2820 O.2   802  NAP802     -0.2224
     47  O2X       13.6050  -12.7850   25.6160 O.3   802  NAP802     -0.1145
     48  O3X       12.5370  -10.8260   25.2070 O.3   802  NAP802     -0.1145
@<TRIPOS>BOND
     1    40    39    2
     2    41    39   am
     3    39    38    1
     4    38    42    2
     5    38    37    1
     6    42    43    1
     7    37    36    1
     8    43    44    2
     9    36    35    1
    10    36    44    1
    11    35    30    1
    12    35    33    1
    13    34    33    1
    14    32    31    1
    15    30    29    1
    16    33    31    1
    17    29    31    1
    18    29    28    1
    19    28    27    1
    20    27    24    1
    21     2     1    2
    22    24    25    2
    23    24    26    1
    24    24    23    1
    25     1    23    1
    26     1     3    1
    27     1     4    1
    28     4     5    1
    29     5     6    1
    30     6     8    1
    31     6     7    1
    32     8     9    1
    33     8    10    1
    34    46    45    2
    35     7    12    1
    36    10    12    1
    37    10    11    1
    38    12    13    1
    39    11    45    1
    40    45    48    1
    41    45    47    1
    42    14    13    1
    43    14    15    1
    44    13    22    1
    45    15    16    2
    46    22    16    1
    47    22    21    2
    48    16    17    1
    49    21    20    1
    50    20    19    1
    51    17    19    2
    52    17    18    1
