@<TRIPOS>MOLECULE
1e1l_NAP_A_1.pdb
 48 52 0 0 0
SMALL
GASTEIGER

@<TRIPOS>ATOM
      1  PA        13.9800   -7.6000   20.7560 P.3   802  NAP802      0.2189
      2  O1A       14.3800   -8.4280   19.6510 O.2   802  NAP802     -0.5170
      3  O2A       12.5430   -7.4940   20.9190 O.3   802  NAP802     -0.4371
      4  O5B       14.4960   -8.0100   22.2500 O.3   802  NAP802     -0.3112
      5  C5B       14.2260   -7.2760   23.4540 C.3   802  NAP802      0.1813
      6  C4B       14.6120   -7.9140   24.7480 C.3   802  NAP802      0.1820
      7  O4B       14.4450   -7.1010   25.9530 O.3   802  NAP802     -0.3136
      8  C3B       13.9560   -9.2850   25.0830 C.3   802  NAP802      0.2157
      9  O3B       15.0220  -10.1430   25.5280 O.3   802  NAP802     -0.2175
     10  C2B       12.9580   -8.9440   26.1220 C.3   802  NAP802      0.2314
     11  O2B       12.8290   -9.8770   27.1270 O.3   802  NAP802     -0.2630
     12  C1B       13.6790   -7.8060   26.8800 C.3   802  NAP802      0.3158
     13  N9A       12.8350   -7.1130   27.8150 N.pl3 802  NAP802     -0.1439
     14  C8A       11.8730   -6.2290   27.5030 C.3   802  NAP802      0.3377
     15  N7A       11.5840   -5.4020   28.4430 N.2   802  NAP802     -0.2095
     16  C5A       12.4120   -5.7610   29.4990 C.2   802  NAP802      0.2526
     17  C6A       12.5570   -5.2420   30.7890 C.2   802  NAP802      0.4393
     18  N6A       11.8350   -4.2250   31.2250 N.pl3 802  NAP802      0.2180
     19  N1A       13.4830   -5.8360   31.5740 N.2   802  NAP802      0.0021
     20  C2A       14.1940   -6.8690   31.0710 C.3   802  NAP802      0.5254
     21  N3A       14.1190   -7.4060   29.9130 N.2   802  NAP802     -0.0055
     22  C4A       13.1850   -6.8130   29.1420 C.2   802  NAP802      0.3518
     23  O3        14.7180   -6.1360   20.6620 O.3   802  NAP802     -0.2703
     24  PN        16.0550   -5.6510   19.9040 P.3   802  NAP802      0.2189
     25  O1N       17.1740   -6.5190   20.3070 O.2   802  NAP802     -0.5170
     26  O2N       16.3850   -4.3730   20.6120 O.3   802  NAP802     -0.4371
     27  O5D       15.6500   -5.6530   18.3870 O.3   802  NAP802     -0.3112
     28  C5D       14.9780   -4.9000   17.3940 C.3   802  NAP802      0.1813
     29  C4D       14.7550   -5.5090   16.0490 C.3   802  NAP802      0.1799
     30  O4D       15.8560   -5.3940   15.1280 O.3   802  NAP802     -0.3327
     31  C3D       14.4800   -7.0050   16.1850 C.3   802  NAP802      0.2158
     32  O3D       13.4360   -7.3200   15.3300 O.3   802  NAP802     -0.2175
     33  C2D       15.8680   -7.6240   15.8950 C.3   802  NAP802      0.2309
     34  O2D       15.6240   -8.9310   15.4820 O.3   802  NAP802     -0.2158
     35  C1D       16.2940   -6.6490   14.7820 C.3   802  NAP802      0.2263
     36  N1N       17.6640   -6.8560   14.4180 N.pl3 802  NAP802     -0.2787
     37  C2N       17.8930   -7.8450   13.5230 C.3   802  NAP802      0.1244
     38  C3N       19.1410   -8.2970   13.2190 C.2   802  NAP802      0.0544
     39  C7N       19.4870   -9.4060   12.2240 C.2   802  NAP802      0.2818
     40  O7N       18.5410   -9.9590   11.6260 O.2   802  NAP802     -0.2670
     41  N7N       20.7490   -9.7320   12.0630 N.am  802  NAP802     -0.0839
     42  C4N       20.2870   -7.7670   13.8490 C.2   802  NAP802      0.0033
     43  C5N       20.0920   -6.7130   14.7730 C.2   802  NAP802      0.0157
     44  C6N       18.7060   -6.2400   15.0980 C.2   802  NAP802      0.0633
     45  P2B       11.5270  -10.5090   27.0150 P.3   802  NAP802      0.5328
     46  O1X       11.5920  -11.5600   25.8370 O.2   802  NAP802     -0.2224
     47  O2X       10.8610  -11.6370   28.1700 O.3   802  NAP802     -0.1145
     48  O3X       10.3860   -9.7200   27.1260 O.3   802  NAP802     -0.1145
@<TRIPOS>BOND
     1    40    39    2
     2    41    39   am
     3    39    38    1
     4    38    37    1
     5    38    42    2
     6    37    36    1
     7    42    43    1
     8    36    35    1
     9    36    44    1
    10    43    44    2
    11    35    30    1
    12    35    33    1
    13    30    29    1
    14    32    31    1
    15    34    33    1
    16    33    31    1
    17    29    31    1
    18    29    28    1
    19    28    27    1
    20    27    24    1
    21     2     1    2
    22    24    25    2
    23    24    26    1
    24    24    23    1
    25    23     1    1
    26     1     3    1
    27     1     4    1
    28     4     5    1
    29     5     6    1
    30     6     8    1
    31     6     7    1
    32     8     9    1
    33     8    10    1
    34    46    45    2
    35     7    12    1
    36    10    12    1
    37    10    11    1
    38    12    13    1
    39    45    48    1
    40    45    11    1
    41    45    47    1
    42    14    13    1
    43    14    15    1
    44    13    22    1
    45    15    16    2
    46    22    16    1
    47    22    21    2
    48    16    17    1
    49    21    20    1
    50    17    18    1
    51    17    19    2
    52    20    19    1
