@<TRIPOS>MOLECULE
1e1m_NAP_A_1.pdb
 48 52 0 0 0
SMALL
GASTEIGER

@<TRIPOS>ATOM
      1  PA        15.8550   -8.0180   18.5990 P.3   802  NAP802      0.2189
      2  O1A       16.3550   -8.7590   17.4640 O.2   802  NAP802     -0.5170
      3  O2A       14.3990   -7.9940   18.7000 O.3   802  NAP802     -0.4371
      4  O5B       16.3990   -8.5470   20.0640 O.3   802  NAP802     -0.3112
      5  C5B       16.3620   -7.6550   21.2170 C.3   802  NAP802      0.1813
      6  C4B       15.8750   -8.1960   22.4930 C.3   802  NAP802      0.1820
      7  O4B       16.4280   -7.8580   23.7540 O.3   802  NAP802     -0.3136
      8  C3B       15.0120   -9.4210   22.6650 C.3   802  NAP802      0.2157
      9  O3B       15.8130  -10.5920   22.2930 O.3   802  NAP802     -0.2175
     10  C2B       14.7460   -9.4930   24.1830 C.3   802  NAP802      0.2314
     11  O2B       15.0560  -10.7880   24.4140 O.3   802  NAP802     -0.2630
     12  C1B       15.8040   -8.5760   24.7920 C.3   802  NAP802      0.3158
     13  N9A       15.2200   -7.7610   25.8510 N.pl3 802  NAP802     -0.1439
     14  C8A       14.2190   -6.8720   25.7470 C.3   802  NAP802      0.3377
     15  N7A       14.0600   -6.1440   26.7950 N.2   802  NAP802     -0.2095
     16  C5A       15.0270   -6.5800   27.6900 C.2   802  NAP802      0.2526
     17  C6A       15.3700   -6.1830   28.9870 C.2   802  NAP802      0.4393
     18  N6A       14.7560   -5.2080   29.6330 N.pl3 802  NAP802      0.2180
     19  N1A       16.3970   -6.8210   29.5130 N.2   802  NAP802      0.0021
     20  C2A       17.0520   -7.8130   28.8720 C.3   802  NAP802      0.5254
     21  N3A       16.8000   -8.2550   27.6680 N.2   802  NAP802     -0.0055
     22  C4A       15.7550   -7.5910   27.1310 C.2   802  NAP802      0.3518
     23  O3        16.5080   -6.5140   18.6680 O.3   802  NAP802     -0.2703
     24  PN        17.7910   -5.8580   17.9910 P.3   802  NAP802      0.2189
     25  O1N       18.9890   -6.6640   18.2950 O.2   802  NAP802     -0.5170
     26  O2N       17.9730   -4.5850   18.7470 O.3   802  NAP802     -0.4371
     27  O5D       17.4460   -5.7270   16.4490 O.3   802  NAP802     -0.3112
     28  C5D       16.6800   -4.9410   15.5360 C.3   802  NAP802      0.1813
     29  C4D       16.3690   -5.5540   14.1900 C.3   802  NAP802      0.1799
     30  O4D       17.4170   -5.3590   13.1970 O.3   802  NAP802     -0.3327
     31  C3D       16.2440   -7.0700   14.3810 C.3   802  NAP802      0.2158
     32  O3D       15.0320   -7.4410   13.8480 O.3   802  NAP802     -0.2175
     33  C2D       17.5560   -7.6350   13.8490 C.3   802  NAP802      0.2309
     34  O2D       17.3610   -8.9150   13.3080 O.3   802  NAP802     -0.2158
     35  C1D       17.8350   -6.5870   12.7530 C.3   802  NAP802      0.2263
     36  N1N       19.1490   -6.8260   12.2370 N.pl3 802  NAP802     -0.2787
     37  C2N       19.2510   -7.7820   11.2790 C.3   802  NAP802      0.1244
     38  C3N       20.4410   -8.2260   10.8050 C.2   802  NAP802      0.0544
     39  C7N       20.7040   -9.2900    9.7280 C.2   802  NAP802      0.2818
     40  O7N       19.7490   -9.8540    9.1790 O.2   802  NAP802     -0.2670
     41  N7N       21.9750   -9.5180    9.4650 N.am  802  NAP802     -0.0839
     42  C4N       21.6700   -7.6800   11.3300 C.2   802  NAP802      0.0033
     43  C5N       21.4300   -6.6600   12.3500 C.2   802  NAP802      0.0157
     44  C6N       20.2670   -6.2540   12.8020 C.2   802  NAP802      0.0633
     45  P2B       14.0470  -11.4760   25.1760 P.3   802  NAP802      0.5328
     46  O1X       12.5560  -11.1890   24.7810 O.2   802  NAP802     -0.2224
     47  O2X       13.8670  -13.1500   25.4370 O.3   802  NAP802     -0.1145
     48  O3X       14.3620  -11.2420   26.5400 O.3   802  NAP802     -0.1145
@<TRIPOS>BOND
     1    40    39    2
     2    41    39   am
     3    39    38    1
     4    38    37    1
     5    38    42    2
     6    37    36    1
     7    42    43    1
     8    36    35    1
     9    36    44    1
    10    43    44    2
    11    35    30    1
    12    35    33    1
    13    30    29    1
    14    34    33    1
    15    32    31    1
    16    33    31    1
    17    29    31    1
    18    29    28    1
    19    28    27    1
    20    27    24    1
    21     2     1    2
    22    24    25    2
    23    24    23    1
    24    24    26    1
    25     1    23    1
    26     1     3    1
    27     1     4    1
    28     4     5    1
    29     5     6    1
    30     9     8    1
    31     6     8    1
    32     6     7    1
    33     8    10    1
    34     7    12    1
    35    10    11    1
    36    10    12    1
    37    11    45    1
    38    46    45    2
    39    12    13    1
    40    45    47    1
    41    45    48    1
    42    14    13    1
    43    14    15    1
    44    13    22    1
    45    15    16    2
    46    22    21    2
    47    22    16    1
    48    21    20    1
    49    16    17    1
    50    20    19    1
    51    17    19    2
    52    17    18    1
