@<TRIPOS>MOLECULE
1e1o_LYS_A_1.pdb
 10 9 0 0 0
SMALL
GASTEIGER

@<TRIPOS>ATOM
      1  N         21.0570   66.7360   32.5950 N.3   510  LYS510     -0.1208
      2  CA        20.5040   66.4850   33.9180 C.3   510  LYS510      0.1943
      3  C         21.5730   66.6560   35.0030 C.2   510  LYS510      0.3819
      4  O         22.7790   66.6860   34.6670 O.co2 510  LYS510     -0.2441
      5  CB        19.9120   65.0730   33.9800 C.3   510  LYS510      0.0307
      6  CG        18.7370   64.8370   33.0430 C.3   510  LYS510      0.0036
      7  CD        17.5390   65.6940   33.4230 C.3   510  LYS510      0.0206
      8  CE        16.3520   65.4440   32.5020 C.3   510  LYS510      0.1093
      9  NZ        16.5720   66.0020   31.1330 N.3   510  LYS510     -0.1314
     10  OXT       21.1840   66.7700   36.1850 O.co2 510  LYS510     -0.2441
@<TRIPOS>BOND
     1     9     8    1
     2     8     7    1
     3     1     2    1
     4     6     7    1
     5     6     5    1
     6     2     5    1
     7     2     3    1
     8     4     3   ar
     9     3    10   ar
