@<TRIPOS>MOLECULE
1e1q_ADP_D_1.pdb
 27 29 0 0 0
SMALL
GASTEIGER

@<TRIPOS>ATOM
      1  PB       103.8080   47.9410   68.9330 P.3   600  ADP600      0.5373
      2  O1B      102.9170   48.9160   68.2340 O.3   600  ADP600     -0.1143
      3  O2B      104.4710   47.0700   67.9620 O.2   600  ADP600     -0.2221
      4  O3B      104.6690   48.5360   69.9570 O.3   600  ADP600     -0.1143
      5  PA       102.1640   45.6320   69.7750 P.3   600  ADP600      0.2231
      6  O1A      101.8360   45.3170   68.3710 O.2   600  ADP600     -0.5169
      7  O2A      103.2780   44.7170   70.2330 O.3   600  ADP600     -0.4370
      8  O3A      102.7930   47.1290   69.9320 O.3   600  ADP600     -0.2261
      9  O5'      100.9180   45.6710   70.7030 O.3   600  ADP600     -0.3111
     10  C5'      100.7470   46.3570   71.9750 C.3   600  ADP600      0.1813
     11  C4'       99.6290   45.6980   72.7650 C.3   600  ADP600      0.1821
     12  O4'       98.3380   46.3170   72.4330 O.3   600  ADP600     -0.3135
     13  C3'       99.4040   44.2100   72.3970 C.3   600  ADP600      0.2184
     14  O3'      100.1500   43.3230   73.2090 O.3   600  ADP600     -0.2174
     15  C2'       97.9320   44.0000   72.7370 C.3   600  ADP600      0.2570
     16  O2'       97.7970   43.8480   74.1340 O.3   600  ADP600     -0.2130
     17  C1'       97.3620   45.3380   72.2220 C.3   600  ADP600      0.3186
     18  N9        97.0500   45.2170   70.7920 N.pl3 600  ADP600     -0.1439
     19  C8        97.7490   45.5310   69.6870 C.3   600  ADP600      0.3377
     20  N7        97.0920   45.2260   68.5540 N.2   600  ADP600     -0.2095
     21  C5        95.9170   44.6770   68.9790 C.2   600  ADP600      0.2526
     22  C6        94.8190   44.1760   68.2690 C.2   600  ADP600      0.4393
     23  N6        94.7860   44.1460   66.9500 N.pl3 600  ADP600      0.2180
     24  N1        93.7880   43.6910   68.9920 N.2   600  ADP600      0.0021
     25  C2        93.8440   43.7420   70.3580 C.3   600  ADP600      0.5254
     26  N3        94.8300   44.1890   71.1020 N.2   600  ADP600     -0.0055
     27  C4        95.8510   44.6550   70.3490 C.2   600  ADP600      0.3518
@<TRIPOS>BOND
     1    23    22    1
     2     3     1    2
     3     2     1    1
     4    22    21    1
     5    22    24    2
     6     6     5    2
     7    20    21    2
     8    20    19    1
     9     1     8    1
    10     1     4    1
    11    21    27    1
    12    24    25    1
    13    19    18    1
    14     5     8    1
    15     5     7    1
    16     5     9    1
    17    27    18    1
    18    27    26    2
    19    25    26    1
    20     9    10    1
    21    18    17    1
    22    10    11    1
    23    17    12    1
    24    17    15    1
    25    13    15    1
    26    13    11    1
    27    13    14    1
    28    12    11    1
    29    15    16    1
