@<TRIPOS>MOLECULE
1e1q_ANP_A_1.pdb
 31 33 0 0 0
SMALL
GASTEIGER

@<TRIPOS>ATOM
      1  PG       103.2900   64.4400   50.0550 P.3   600  ANP600      0.4884
      2  O1G      103.4290   64.7970   51.4900 O.3   600  ANP600     -0.1240
      3  O2G      104.2580   65.2470   49.2890 O.2   600  ANP600     -0.2331
      4  O3G      103.3660   62.9940   49.7990 O.3   600  ANP600     -0.1240
      5  PB       101.2920   66.2720   48.9640 P.3   600  ANP600      0.4669
      6  O1B      100.9250   67.2540   49.9530 O.3   600  ANP600     -0.1253
      7  O2B      102.2640   66.6260   47.9160 O.2   600  ANP600     -0.2351
      8  N3B      101.7850   64.8150   49.5520 N.3   600  ANP600     -0.0163
      9  PA        99.4910   65.0430   46.9810 P.3   600  ANP600      0.2220
     10  O1A       99.5790   65.7700   45.7020 O.2   600  ANP600     -0.5170
     11  O2A      100.4000   63.8730   46.8770 O.3   600  ANP600     -0.4370
     12  O3A       99.8730   65.8970   48.2680 O.3   600  ANP600     -0.2360
     13  O5'       98.0050   64.5850   47.2400 O.3   600  ANP600     -0.3111
     14  C5'       97.6230   63.8750   48.4670 C.3   600  ANP600      0.1813
     15  C4'       96.4470   62.9810   48.0680 C.3   600  ANP600      0.1821
     16  O4'       95.2540   63.7310   47.7920 O.3   600  ANP600     -0.3135
     17  C3'       96.7270   62.2310   46.7590 C.3   600  ANP600      0.2184
     18  O3'       96.0200   60.9910   46.7910 O.3   600  ANP600     -0.2174
     19  C2'       96.0330   63.0690   45.7090 C.3   600  ANP600      0.2570
     20  O2'       95.6760   62.3060   44.5670 O.3   600  ANP600     -0.2130
     21  C1'       94.7900   63.5460   46.4750 C.3   600  ANP600      0.3186
     22  N9        94.3610   64.8480   45.9010 N.pl3 600  ANP600     -0.1439
     23  C8        95.1450   65.9110   45.5150 C.3   600  ANP600      0.3377
     24  N7        94.4340   66.9070   44.9800 N.2   600  ANP600     -0.2095
     25  C5        93.1260   66.4500   45.0200 C.2   600  ANP600      0.2526
     26  C6        91.9000   67.0140   44.6110 C.2   600  ANP600      0.4393
     27  N6        91.7520   68.1900   44.0630 N.pl3 600  ANP600      0.2180
     28  N1        90.7830   66.2680   44.7860 N.2   600  ANP600      0.0021
     29  C2        90.8980   64.9960   45.3260 C.3   600  ANP600      0.5254
     30  N3        91.9730   64.3780   45.7180 N.2   600  ANP600     -0.0055
     31  C4        93.0630   65.1690   45.5680 C.2   600  ANP600      0.3518
@<TRIPOS>BOND
     1    27    26    1
     2    20    19    1
     3    26    28    2
     4    26    25    1
     5    28    29    1
     6    24    25    2
     7    24    23    1
     8    25    31    1
     9    29    30    1
    10    23    22    1
    11    31    30    2
    12    31    22    1
    13    10     9    2
    14    19    21    1
    15    19    17    1
    16    22    21    1
    17    21    16    1
    18    17    18    1
    19    17    15    1
    20    11     9    1
    21     9    13    1
    22     9    12    1
    23    13    14    1
    24    16    15    1
    25     7     5    2
    26    15    14    1
    27    12     5    1
    28     5     8    1
    29     5     6    1
    30     3     1    2
    31     8     1    1
    32     4     1    1
    33     1     2    1
