@<TRIPOS>MOLECULE
1e1r_ANP_A_1.pdb
 31 33 0 0 0
SMALL
GASTEIGER

@<TRIPOS>ATOM
      1  PG       102.9210   64.1350   48.5590 P.3   600  ANP600      0.4884
      2  O1G      102.9590   64.4260   50.0150 O.3   600  ANP600     -0.1240
      3  O2G      103.9500   64.8810   47.8520 O.2   600  ANP600     -0.2331
      4  O3G      102.9460   62.6950   48.2280 O.3   600  ANP600     -0.1240
      5  PB       100.9410   66.0160   47.4990 P.3   600  ANP600      0.4669
      6  O1B      100.7300   66.9280   48.6260 O.3   600  ANP600     -0.1253
      7  O2B      101.9630   66.4920   46.5400 O.2   600  ANP600     -0.2351
      8  N3B      101.4160   64.5310   48.0440 N.3   600  ANP600     -0.0163
      9  PA        99.1760   64.8170   45.5170 P.3   600  ANP600      0.2220
     10  O1A       99.3630   65.4680   44.2100 O.2   600  ANP600     -0.5170
     11  O2A      100.0000   63.5720   45.4860 O.3   600  ANP600     -0.4370
     12  O3A       99.5620   65.7470   46.7650 O.3   600  ANP600     -0.2360
     13  O5'       97.6520   64.5050   45.8380 O.3   600  ANP600     -0.3111
     14  C5'       97.1920   63.6870   46.9380 C.3   600  ANP600      0.1813
     15  C4'       96.0390   62.7790   46.5690 C.3   600  ANP600      0.1821
     16  O4'       94.8490   63.5210   46.2640 O.3   600  ANP600     -0.3135
     17  C3'       96.2730   61.8980   45.3260 C.3   600  ANP600      0.2184
     18  O3'       95.6180   60.6580   45.4750 O.3   600  ANP600     -0.2174
     19  C2'       95.6220   62.6940   44.2050 C.3   600  ANP600      0.2570
     20  O2'       95.2410   61.8890   43.1030 O.3   600  ANP600     -0.2130
     21  C1'       94.4190   63.2910   44.9360 C.3   600  ANP600      0.3186
     22  N9        93.9680   64.5510   44.3270 N.pl3 600  ANP600     -0.1439
     23  C8        94.7090   65.6220   43.9320 C.3   600  ANP600      0.3377
     24  N7        93.9750   66.5970   43.4050 N.2   600  ANP600     -0.2095
     25  C5        92.6960   66.1230   43.4560 C.2   600  ANP600      0.2526
     26  C6        91.4630   66.6810   43.0430 C.2   600  ANP600      0.4393
     27  N6        91.3270   67.8730   42.4780 N.pl3 600  ANP600      0.2180
     28  N1        90.3620   65.9040   43.2240 N.2   600  ANP600      0.0021
     29  C2        90.4980   64.6610   43.7830 C.3   600  ANP600      0.5254
     30  N3        91.5810   64.0610   44.2010 N.2   600  ANP600     -0.0055
     31  C4        92.6600   64.8540   44.0120 C.2   600  ANP600      0.3518
@<TRIPOS>BOND
     1    27    26    1
     2    26    28    2
     3    26    25    1
     4    20    19    1
     5    28    29    1
     6    24    25    2
     7    24    23    1
     8    25    31    1
     9    29    30    1
    10    23    22    1
    11    31    30    2
    12    31    22    1
    13    19    21    1
    14    19    17    1
    15    10     9    2
    16    22    21    1
    17    21    16    1
    18    17    18    1
    19    17    15    1
    20    11     9    1
    21     9    13    1
    22     9    12    1
    23    13    14    1
    24    16    15    1
    25     7     5    2
    26    15    14    1
    27    12     5    1
    28     5     8    1
    29     5     6    1
    30     3     1    2
    31     8     1    1
    32     4     1    1
    33     1     2    1
