@<TRIPOS>MOLECULE
1e1r_ADP_D_1.pdb
 27 29 0 0 0
SMALL
GASTEIGER

@<TRIPOS>ATOM
      1  PB       103.2580   47.9350   67.4720 P.3   600  ADP600      0.5373
      2  O1B      102.5110   48.8450   66.5430 O.2   600  ADP600     -0.2221
      3  O2B      104.0300   46.9800   66.6990 O.3   600  ADP600     -0.1143
      4  O3B      104.0240   48.6050   68.5080 O.3   600  ADP600     -0.1143
      5  PA       101.5230   45.7300   68.2410 P.3   600  ADP600      0.2231
      6  O1A      101.3210   45.3300   66.8430 O.2   600  ADP600     -0.5169
      7  O2A      102.4990   44.8400   68.9100 O.3   600  ADP600     -0.4370
      8  O3A      102.1010   47.2490   68.3450 O.3   600  ADP600     -0.2261
      9  O5'      100.1830   45.8600   69.0610 O.3   600  ADP600     -0.3111
     10  C5'      100.2200   46.1850   70.5010 C.3   600  ADP600      0.1813
     11  C4'       99.1280   45.4320   71.2220 C.3   600  ADP600      0.1821
     12  O4'       97.8340   46.0520   70.9850 O.3   600  ADP600     -0.3135
     13  C3'       98.9120   43.9680   70.7620 C.3   600  ADP600      0.2184
     14  O3'       99.7610   43.0690   71.4310 O.3   600  ADP600     -0.2174
     15  C2'       97.4980   43.7360   71.3120 C.3   600  ADP600      0.2570
     16  O2'       97.6060   43.5420   72.7140 O.3   600  ADP600     -0.2130
     17  C1'       96.8240   45.0480   70.9010 C.3   600  ADP600      0.3186
     18  N9        96.3310   44.9880   69.5160 N.pl3 600  ADP600     -0.1439
     19  C8        96.9770   45.3880   68.3810 C.3   600  ADP600      0.3377
     20  N7        96.2700   45.1840   67.2730 N.2   600  ADP600     -0.2095
     21  C5        95.1020   44.6070   67.7360 C.2   600  ADP600      0.2526
     22  C6        93.9480   44.1540   67.0540 C.2   600  ADP600      0.4393
     23  N6        93.7830   44.2590   65.7450 N.pl3 600  ADP600      0.2180
     24  N1        92.9800   43.6100   67.8000 N.2   600  ADP600      0.0021
     25  C2        93.1240   43.5720   69.1630 C.3   600  ADP600      0.5254
     26  N3        94.1350   43.9660   69.8770 N.2   600  ADP600     -0.0055
     27  C4        95.1200   44.4830   69.1020 C.2   600  ADP600      0.3518
@<TRIPOS>BOND
     1    23    22    1
     2     2     1    2
     3     3     1    1
     4     6     5    2
     5    22    21    1
     6    22    24    2
     7    20    21    2
     8    20    19    1
     9     1     8    1
    10     1     4    1
    11    21    27    1
    12    24    25    1
    13     5     8    1
    14     5     7    1
    15     5     9    1
    16    19    18    1
    17     9    10    1
    18    27    18    1
    19    27    26    2
    20    25    26    1
    21    18    17    1
    22    10    11    1
    23    13    11    1
    24    13    15    1
    25    13    14    1
    26    17    12    1
    27    17    15    1
    28    12    11    1
    29    15    16    1
