@<TRIPOS>MOLECULE
1e1v_CMG_A_1.pdb
 18 20 0 0 0
SMALL
GASTEIGER

@<TRIPOS>ATOM
      1  N1         2.4450   28.9910    7.3460 N.2   401  CMG401     -0.2855
      2  C2         2.9810   29.9600    6.6140 C.1   401  CMG401      0.2533
      3  N3         2.3900   31.1700    6.6090 N.2   401  CMG401     -0.2693
      4  C4         1.3010   31.4190    7.3260 C.1   401  CMG401      0.1221
      5  C5         0.7490   30.4080    8.0490 C.2   401  CMG401      0.2195
      6  C6         1.3270   29.1410    8.0570 C.2   401  CMG401      0.3177
      7  O6         0.7220   28.1600    8.8410 O.2   401  CMG401     -0.4497
      8  C9         1.7060   27.1180    9.1120 C.3   401  CMG401      0.2081
      9  N7        -0.2920   31.0010    8.6180 N.2   401  CMG401     -0.2273
     10  C8        -0.4920   32.3190    8.2780 C.3   401  CMG401      0.2628
     11  N9         0.5880   32.5280    7.4900 N.2   401  CMG401     -0.1806
     12  N2         4.1220   29.9810    5.8800 N.pl3 401  CMG401     -0.0226
     13  C10        0.9790   26.3030   10.2570 C.3   401  CMG401      0.0438
     14  C11       -0.2230   25.5700    9.5700 C.3   401  CMG401      0.0037
     15  C12       -0.7780   24.5780   10.5920 C.3   401  CMG401      0.0001
     16  C13        0.1720   23.3870   10.3210 C.3   401  CMG401      0.0000
     17  C14        1.3640   23.9990   11.1710 C.3   401  CMG401      0.0001
     18  C15        1.8480   25.0470   10.1260 C.3   401  CMG401      0.0037
@<TRIPOS>BOND
     1    12     2    1
     2     3     2    2
     3     3     4    2
     4     2     1    2
     5     4    11    2
     6     4     5    1
     7     1     6    2
     8    11    10    1
     9     5     6    1
    10     5     9    2
    11     6     7    1
    12    10     9    1
    13     7     8    1
    14     8    13    1
    15    14    13    1
    16    14    15    1
    17    18    13    1
    18    18    17    1
    19    16    15    1
    20    16    17    1
