@<TRIPOS>MOLECULE
1e1x_NW1_A_1.pdb
 18 19 0 0 0
SMALL
GASTEIGER

@<TRIPOS>ATOM
      1  N1         2.1630   28.4110    7.1980 N.2   401  NW1401     -0.2865
      2  C6         1.2250   28.4780    8.1800 C.2   401  NW1401      0.3147
      3  O6         0.9650   27.3090    8.8980 O.2   401  NW1401     -0.4500
      4  C1         1.9190   26.2340    8.6810 C.3   401  NW1401      0.2081
      5  C3         1.6440   25.2190    9.7930 C.3   401  NW1401      0.0438
      6  C11        0.1380   25.0120   10.0520 C.3   401  NW1401      0.0037
      7  C10       -0.0450   24.0560   11.2680 C.3   401  NW1401      0.0001
      8  C9         0.6520   22.6910   10.9410 C.3   401  NW1401      0.0000
      9  C8         2.1770   22.9700   10.8330 C.3   401  NW1401      0.0001
     10  C7         2.3790   23.8680    9.5680 C.3   401  NW1401      0.0037
     11  C5         0.5130   29.7550    8.4910 C.2   401  NW1401      0.2380
     12  N7        -0.4380   29.6840    9.5840 N.2   401  NW1401     -0.0193
     13  O8        -1.0670   30.7150    9.8740 O.2   401  NW1401     -0.1429
     14  C4         0.8580   30.8220    7.7690 C.2   401  NW1401      0.2593
     15  N9         0.3240   31.9930    7.9600 N.pl3 401  NW1401     -0.0901
     16  N3         1.8720   30.6210    6.7240 N.2   401  NW1401     -0.3053
     17  C2         2.4880   29.5500    6.4660 C.1   401  NW1401      0.2457
     18  N2         3.4110   29.4190    5.5470 N.pl3 401  NW1401     -0.0231
@<TRIPOS>BOND
     1    18    17    1
     2    17    16    2
     3    17     1    2
     4    16    14    2
     5     1     2    2
     6    14    15    1
     7    14    11    1
     8     2    11    1
     9     2     3    1
    10    11    12    2
    11     4     3    1
    12     4     5    1
    13    10     5    1
    14    10     9    1
    15    12    13    1
    16     5     6    1
    17     6     7    1
    18     9     8    1
    19     8     7    1
