@<TRIPOS>MOLECULE
1e1y_GLC_A_1.pdb
 12 12 0 0 0
SMALL
GASTEIGER

@<TRIPOS>ATOM
      1  C1        32.8930   22.7650   27.7070 C.3   998  GLC998      0.3024
      2  C2        32.9820   23.0310   26.1830 C.3   998  GLC998      0.2434
      3  C3        31.7780   22.3790   25.4260 C.3   998  GLC998      0.2199
      4  C4        31.5180   20.9160   25.8640 C.3   998  GLC998      0.2144
      5  C5        31.3950   20.8280   27.3950 C.3   998  GLC998      0.1836
      6  C6        31.1630   19.3680   27.8060 C.3   998  GLC998      0.2142
      7  O1        31.7810   23.5150   28.1900 O.3   998  GLC998     -0.1869
      8  O2        32.9240   24.4470   25.9960 O.3   998  GLC998     -0.2148
      9  O3        31.9840   22.3710   24.0400 O.3   998  GLC998     -0.2174
     10  O4        30.3310   20.4420   25.2860 O.3   998  GLC998     -0.2176
     11  O5        32.6320   21.3500   27.9470 O.3   998  GLC998     -0.3236
     12  O6        32.0520   18.5180   27.1250 O.3   998  GLC998     -0.2176
@<TRIPOS>BOND
     1     9     3    1
     2    10     4    1
     3     3     4    1
     4     3     2    1
     5     4     5    1
     6     8     2    1
     7     2     1    1
     8    12     6    1
     9     5     6    1
    10     5    11    1
    11     1    11    1
    12     1     7    1
