@<TRIPOS>MOLECULE
1e1y_CPB_A_1.pdb
 28 31 0 0 0
SMALL
GASTEIGER

@<TRIPOS>ATOM
      1  C1        43.5000   39.9190   27.6330 C.3   940  CPB940      0.0897
      2  N1        42.4820   39.5270   28.6180 N.3   940  CPB940     -0.2693
      3  C16       41.0990   39.6420   28.1280 C.3   940  CPB940      0.0726
      4  C15       39.9930   39.2520   29.1770 C.3   940  CPB940      0.0245
      5  C14       40.3490   37.8830   29.8290 C.3   940  CPB940      0.0617
      6  C13       41.8300   37.8440   30.3560 C.3   940  CPB940      0.1720
      7  C12       42.7910   38.1840   29.1840 C.3   940  CPB940      0.1057
      8  C8        39.1980   37.5070   30.8610 C.ar  940  CPB940      0.0537
      9  C9        38.3190   36.4010   30.5370 C.ar  940  CPB940      0.1505
     10  O1        38.4850   35.7040   29.3290 O.2   940  CPB940     -0.4534
     11  C2        37.7050   34.6330   28.9300 C.ar  940  CPB940      0.1492
     12  C3        36.6890   34.1770   29.7070 C.ar  940  CPB940      0.0797
     13  C4        36.3940   34.8160   31.0020 C.ar  940  CPB940      0.2047
     14  O4        35.4830   34.3940   31.6860 O.2   940  CPB940     -0.2862
     15  C10       37.2780   36.0050   31.4560 C.ar  940  CPB940      0.1122
     16  C5        37.0970   36.6930   32.7000 C.ar  940  CPB940      0.2049
     17  O5        36.0770   36.3310   33.5940 O.3   940  CPB940     -0.2862
     18  C6        37.9470   37.7820   33.0200 C.ar  940  CPB940      0.0840
     19  C7        38.9830   38.1950   32.1250 C.ar  940  CPB940      0.1979
     20  O7        39.7960   39.2810   32.5160 O.3   940  CPB940     -0.2867
     21  C21       37.9930   33.9370   27.5750 C.ar  940  CPB940      0.0452
     22  C22       38.3630   34.6620   26.3900 C.ar  940  CPB940      0.0606
     23 CL1        38.5130   36.3980   26.3540 Cl    940  CPB940     -0.0821
     24  C23       38.6270   33.9870   25.1780 C.ar  940  CPB940      0.0115
     25  C24       38.5250   32.5670   25.0970 C.ar  940  CPB940      0.0009
     26  C25       38.1580   31.8200   26.2640 C.ar  940  CPB940      0.0002
     27  C26       37.8930   32.4990   27.4850 C.ar  940  CPB940      0.0039
     28  O3        42.1540   38.8030   31.3640 O.3   940  CPB940     -0.2213
@<TRIPOS>BOND
     1    25    24   ar
     2    25    26   ar
     3    24    22   ar
     4    26    27   ar
     5    23    22    1
     6    22    21   ar
     7    27    21   ar
     8    21    11    1
     9     1     2    1
    10     3     2    1
    11     3     4    1
    12     2     7    1
    13    11    10   ar
    14    11    12   ar
    15     4     5    1
    16     7     6    1
    17    10     9   ar
    18    12    13   ar
    19     5     6    1
    20     5     8    1
    21     6    28    1
    22     9     8   ar
    23     9    15   ar
    24     8    19   ar
    25    13    15   ar
    26    13    14    2
    27    15    16   ar
    28    19    20    1
    29    19    18   ar
    30    16    18   ar
    31    16    17    1
