@<TRIPOS>MOLECULE
1e1y_PLP_A_1.pdb
 15 15 0 0 0
SMALL
GASTEIGER

@<TRIPOS>ATOM
      1  N1        23.9040   25.6290   30.0340 N.ar  999  PLP999     -0.2452
      2  C2        22.8150   24.9070   30.3920 C.ar  999  PLP999      0.0978
      3  C2A       21.8920   25.5050   31.4520 C.3   999  PLP999      0.0555
      4  C3        22.5560   23.6910   29.7670 C.ar  999  PLP999      0.2049
      5  O3        21.3820   22.9730   30.0690 O.3   999  PLP999     -0.2857
      6  C4        23.4270   23.2230   28.7770 C.ar  999  PLP999      0.0182
      7  C4A       23.1460   21.8840   28.0830 C.3   999  PLP999      0.0342
      8  C5        24.5220   23.9940   28.4400 C.ar  999  PLP999      0.0261
      9  C6        24.7420   25.1860   29.0800 C.ar  999  PLP999      0.0965
     10  C5A       25.4270   23.6640   27.2510 C.3   999  PLP999      0.1815
     11  O4P       25.1020   24.5210   26.1590 O.3   999  PLP999     -0.2653
     12  P         26.0900   24.6290   24.8640 P.3   999  PLP999      0.5329
     13  O1P       25.3140   25.4000   23.8870 O.2   999  PLP999     -0.2224
     14  O2P       27.3530   25.4630   25.4260 O.3   999  PLP999     -0.1145
     15  O3P       26.5540   23.2960   24.5010 O.3   999  PLP999     -0.1145
@<TRIPOS>BOND
     1    13    12    2
     2    15    12    1
     3    12    14    1
     4    12    11    1
     5    11    10    1
     6    10     8    1
     7     7     6    1
     8     8     6   ar
     9     8     9   ar
    10     6     4   ar
    11     9     1   ar
    12     4     5    1
    13     4     2   ar
    14     1     2   ar
    15     2     3    1
