@<TRIPOS>MOLECULE
1e22_ACP_A_1.pdb
 31 33 0 0 0
SMALL
GASTEIGER

@<TRIPOS>ATOM
      1  PG        24.0200   67.8850   44.5370 P.3   512  ACP512      0.1295
      2  O1G       25.1270   68.8850   44.4610 O.2   512  ACP512     -0.4595
      3  O2G       24.3140   66.7130   45.4140 O.3   512  ACP512     -0.3567
      4  O3G       22.6700   68.4910   44.7710 O.3   512  ACP512     -0.3567
      5  PB        23.3410   68.3670   41.5400 P.3   512  ACP512      0.3815
      6  O1B       21.9110   68.6760   41.7810 O.3   512  ACP512     -0.1391
      7  O2B       24.3380   69.4720   41.4520 O.2   512  ACP512     -0.2547
      8  C3B       23.9270   67.1400   42.8260 C.3   512  ACP512      0.1768
      9  PA        22.3650   67.4120   39.0110 P.3   512  ACP512      0.2209
     10  O1A       21.0100   67.1820   39.5720 O.3   512  ACP512     -0.4371
     11  O2A       22.5700   68.5970   38.1350 O.2   512  ACP512     -0.5170
     12  O3A       23.4410   67.4920   40.1990 O.3   512  ACP512     -0.2483
     13  O5'       22.8410   66.0820   38.2660 O.3   512  ACP512     -0.3111
     14  C5'       22.0710   64.8820   38.3380 C.3   512  ACP512      0.1813
     15  C4'       22.6930   63.8830   39.2970 C.3   512  ACP512      0.1821
     16  O4'       24.1230   63.7190   39.0910 O.3   512  ACP512     -0.3135
     17  C3'       22.5850   64.2000   40.7740 C.3   512  ACP512      0.2184
     18  O3'       21.2900   63.8310   41.2170 O.3   512  ACP512     -0.2174
     19  C2'       23.6370   63.2800   41.3790 C.3   512  ACP512      0.2570
     20  O2'       23.1510   61.9590   41.4510 O.3   512  ACP512     -0.2130
     21  C1'       24.7420   63.3280   40.3050 C.3   512  ACP512      0.3186
     22  N9        25.8470   64.2310   40.5930 N.pl3 512  ACP512     -0.1439
     23  C8        25.9200   65.5910   40.3730 C.3   512  ACP512      0.3377
     24  N7        27.0890   66.1150   40.6490 N.2   512  ACP512     -0.2095
     25  C5        27.8360   65.0380   41.0970 C.2   512  ACP512      0.2526
     26  C6        29.1500   64.9370   41.5440 C.2   512  ACP512      0.4393
     27  N6        29.9950   65.9660   41.5650 N.pl3 512  ACP512      0.2180
     28  N1        29.5910   63.7250   41.9540 N.2   512  ACP512      0.0021
     29  C2        28.7410   62.6870   41.9100 C.3   512  ACP512      0.5254
     30  N3        27.4780   62.6540   41.4890 N.2   512  ACP512     -0.0055
     31  C4        27.0750   63.8760   41.0890 C.2   512  ACP512      0.3518
@<TRIPOS>BOND
     1    11     9    2
     2    13    14    1
     3    13     9    1
     4    14    15    1
     5     9    10    1
     6     9    12    1
     7    16    15    1
     8    16    21    1
     9    15    17    1
    10    12     5    1
    11    21    22    1
    12    21    19    1
    13    23    22    1
    14    23    24    1
    15    22    31    1
    16    24    25    2
    17    17    18    1
    18    17    19    1
    19    31    25    1
    20    31    30    2
    21    25    26    1
    22    19    20    1
    23     7     5    2
    24    30    29    1
    25     5     6    1
    26     5     8    1
    27    26    27    1
    28    26    28    2
    29    29    28    1
    30     8     1    1
    31     2     1    2
    32     1     4    1
    33     1     3    1
