@<TRIPOS>MOLECULE
1e22_LYS_A_1.pdb
 10 9 0 0 0
SMALL
GASTEIGER

@<TRIPOS>ATOM
      1  N         20.8970   66.1360   32.4600 N.3   510  LYS510     -0.1208
      2  CA        20.3080   66.0420   33.7910 C.3   510  LYS510      0.1943
      3  C         21.3120   66.4580   34.8670 C.2   510  LYS510      0.3819
      4  O         22.5330   66.4290   34.5900 O.co2 510  LYS510     -0.2441
      5  CB        19.8270   64.6110   34.0530 C.3   510  LYS510      0.0307
      6  CG        18.6820   64.1710   33.1710 C.3   510  LYS510      0.0036
      7  CD        17.5380   65.1560   33.2440 C.3   510  LYS510      0.0206
      8  CE        16.2850   64.6080   32.5700 C.3   510  LYS510      0.1093
      9  NZ        16.1770   65.0520   31.1500 N.3   510  LYS510     -0.1314
     10  OXT       20.8590   66.8120   35.9780 O.co2 510  LYS510     -0.2441
@<TRIPOS>BOND
     1     9     8    1
     2     1     2    1
     3     8     7    1
     4     6     7    1
     5     6     5    1
     6     2     5    1
     7     2     3    1
     8     4     3   ar
     9     3    10   ar
