@<TRIPOS>MOLECULE
1e24_ATP_A_1.pdb
 31 33 0 0 0
SMALL
GASTEIGER

@<TRIPOS>ATOM
      1  PG        24.2930   68.4060   44.4250 P.3   512  ATP512      0.5373
      2  O1G       25.4590   69.3190   44.5240 O.2   512  ATP512     -0.2221
      3  O2G       24.4790   67.0980   45.1110 O.3   512  ATP512     -0.1143
      4  O3G       22.9910   69.0710   44.7340 O.3   512  ATP512     -0.1143
      5  PB        23.5110   68.8150   41.6590 P.3   512  ATP512      0.2277
      6  O1B       22.0900   69.0570   42.0140 O.3   512  ATP512     -0.4368
      7  O2B       24.3590   69.9760   41.2830 O.2   512  ATP512     -0.5168
      8  O3B       24.2190   68.0130   42.8660 O.3   512  ATP512     -0.2258
      9  PA        22.7950   67.7370   39.0390 P.3   512  ATP512      0.2189
     10  O1A       21.3460   67.5060   39.2860 O.3   512  ATP512     -0.4371
     11  O2A       23.2200   68.9360   38.2580 O.2   512  ATP512     -0.5170
     12  O3A       23.5710   67.7440   40.4560 O.3   512  ATP512     -0.2700
     13  O5'       23.3730   66.4400   38.3030 O.3   512  ATP512     -0.3112
     14  C5'       22.6580   65.1950   38.2960 C.3   512  ATP512      0.1813
     15  C4'       23.1270   64.2830   39.4240 C.3   512  ATP512      0.1821
     16  O4'       24.5630   64.0790   39.3670 O.3   512  ATP512     -0.3135
     17  C3'       22.8840   64.7710   40.8440 C.3   512  ATP512      0.2184
     18  O3'       21.5400   64.4890   41.2300 O.3   512  ATP512     -0.2174
     19  C2'       23.8900   63.9560   41.6570 C.3   512  ATP512      0.2570
     20  O2'       23.3890   62.6750   41.9720 O.3   512  ATP512     -0.2130
     21  C1'       25.0580   63.8090   40.6700 C.3   512  ATP512      0.3186
     22  N9        26.2000   64.6950   40.9260 N.pl3 512  ATP512     -0.1439
     23  C8        26.2720   66.0450   40.6900 C.3   512  ATP512      0.3377
     24  N7        27.4410   66.5720   40.9720 N.2   512  ATP512     -0.2095
     25  C5        28.1890   65.4980   41.4290 C.2   512  ATP512      0.2526
     26  C6        29.5280   65.3960   41.8510 C.2   512  ATP512      0.4393
     27  N6        30.3790   66.4230   41.8640 N.pl3 512  ATP512      0.2180
     28  N1        29.9690   64.1840   42.2430 N.2   512  ATP512      0.0021
     29  C2        29.1210   63.1440   42.1990 C.3   512  ATP512      0.5254
     30  N3        27.8470   63.1110   41.8070 N.2   512  ATP512     -0.0055
     31  C4        27.4350   64.3360   41.4280 C.2   512  ATP512      0.3518
@<TRIPOS>BOND
     1    11     9    2
     2    14    13    1
     3    14    15    1
     4    13     9    1
     5     9    10    1
     6     9    12    1
     7    16    15    1
     8    16    21    1
     9    15    17    1
    10    12     5    1
    11    21    22    1
    12    21    19    1
    13    23    22    1
    14    23    24    1
    15    17    18    1
    16    17    19    1
    17    22    31    1
    18    24    25    2
    19     7     5    2
    20    31    25    1
    21    31    30    2
    22    25    26    1
    23    19    20    1
    24     5     6    1
    25     5     8    1
    26    30    29    1
    27    26    27    1
    28    26    28    2
    29    29    28    1
    30     8     1    1
    31     1     2    2
    32     1     4    1
    33     1     3    1
