@<TRIPOS>MOLECULE
1e24_LYS_A_1.pdb
 10 9 0 0 0
SMALL
GASTEIGER

@<TRIPOS>ATOM
      1  N         21.0200   66.8520   32.8900 N.3   510  LYS510     -0.1208
      2  CA        20.4800   66.7000   34.2340 C.3   510  LYS510      0.1943
      3  C         21.5900   66.9200   35.2580 C.2   510  LYS510      0.3819
      4  O         22.7550   67.0350   34.8290 O.co2 510  LYS510     -0.2441
      5  CB        19.8690   65.3030   34.4060 C.3   510  LYS510      0.0307
      6  CG        18.7480   64.9830   33.4250 C.3   510  LYS510      0.0036
      7  CD        17.5510   65.8900   33.6490 C.3   510  LYS510      0.0206
      8  CE        16.3710   65.4770   32.7840 C.3   510  LYS510      0.1093
      9  NZ        16.4690   66.0370   31.4020 N.3   510  LYS510     -0.1314
     10  OXT       21.2900   66.9860   36.4690 O.co2 510  LYS510     -0.2441
@<TRIPOS>BOND
     1     9     8    1
     2     8     7    1
     3     1     2    1
     4     6     7    1
     5     6     5    1
     6     2     5    1
     7     2     3    1
     8     4     3   ar
     9     3    10   ar
