@<TRIPOS>MOLECULE
1e26_NAP_A_1.pdb
 48 52 0 0 0
SMALL
GASTEIGER

@<TRIPOS>ATOM
      1  PA        15.7030    8.9900   23.2660 P.3   207  NAP207      0.2189
      2  O1A       14.9520    9.3660   22.0410 O.2   207  NAP207     -0.5170
      3  O2A       14.9050    8.3480   24.3220 O.3   207  NAP207     -0.4371
      4  O5B       16.3190   10.3570   23.7890 O.3   207  NAP207     -0.3112
      5  C5B       16.4360   10.6040   25.1860 C.3   207  NAP207      0.1813
      6  C4B       16.8690   12.0010   25.2700 C.3   207  NAP207      0.1820
      7  O4B       15.6680   12.6160   24.6930 O.3   207  NAP207     -0.3136
      8  C3B       17.0590   12.6060   26.6690 C.3   207  NAP207      0.2157
      9  O3B       18.4420   12.8770   27.0320 O.3   207  NAP207     -0.2175
     10  C2B       16.1130   13.8520   26.5520 C.3   207  NAP207      0.2314
     11  O2B       16.4890   15.2600   26.7370 O.3   207  NAP207     -0.2630
     12  C1B       14.9930   13.4580   25.6680 C.3   207  NAP207      0.3158
     13  N9A       13.8280   12.7340   26.3500 N.pl3 207  NAP207     -0.1439
     14  C8A       13.3050   11.5090   26.0360 C.3   207  NAP207      0.3377
     15  N7A       12.2730   11.1720   26.8290 N.2   207  NAP207     -0.2095
     16  C5A       12.1580   12.2060   27.6340 C.2   207  NAP207      0.2526
     17  C6A       11.1970   12.3320   28.6550 C.2   207  NAP207      0.4393
     18  N6A       10.3150   11.3580   28.8640 N.pl3 207  NAP207      0.2180
     19  N1A       11.2170   13.4840   29.4020 N.2   207  NAP207      0.0021
     20  C2A       12.1350   14.4530   29.1550 C.3   207  NAP207      0.5254
     21  N3A       13.0570   14.3270   28.1730 N.2   207  NAP207     -0.0055
     22  C4A       13.1020   13.2100   27.3820 C.2   207  NAP207      0.3518
     23  O3        16.9070    8.0490   22.8250 O.3   207  NAP207     -0.2703
     24  PN        17.6580    6.9830   23.7300 P.3   207  NAP207      0.2189
     25  O1N       16.7180    5.9300   24.1480 O.2   207  NAP207     -0.5170
     26  O2N       18.4430    7.6550   24.8010 O.3   207  NAP207     -0.4371
     27  O5D       18.7000    6.2800   22.7160 O.3   207  NAP207     -0.3112
     28  C5D       18.8230    6.5950   21.3260 C.3   207  NAP207      0.1813
     29  C4D       19.0670    5.2430   20.6660 C.3   207  NAP207      0.1799
     30  O4D       17.8020    4.5940   20.3470 O.3   207  NAP207     -0.3327
     31  C3D       19.8120    5.3340   19.3140 C.3   207  NAP207      0.2158
     32  O3D       20.6770    4.1770   19.0910 O.3   207  NAP207     -0.2175
     33  C2D       18.6970    5.3730   18.2960 C.3   207  NAP207      0.2309
     34  O2D       19.0780    5.1590   16.9330 O.3   207  NAP207     -0.2158
     35  C1D       17.7980    4.3010   18.9100 C.3   207  NAP207      0.2263
     36  N1N       16.3890    4.2710   18.4300 N.pl3 207  NAP207     -0.2787
     37  C2N       15.8750    3.1210   17.7470 C.3   207  NAP207      0.1244
     38  C3N       14.5280    3.1110   17.3040 C.2   207  NAP207      0.0544
     39  C7N       13.8760    1.9040   16.5430 C.2   207  NAP207      0.2818
     40  O7N       12.7930    2.0380   15.9750 O.2   207  NAP207     -0.2670
     41  N7N       14.5330    0.7470   16.5150 N.am  207  NAP207     -0.0839
     42  C4N       13.7370    4.2540   17.5630 C.2   207  NAP207      0.0033
     43  C5N       14.2510    5.3880   18.2320 C.2   207  NAP207      0.0157
     44  C6N       15.5720    5.4070   18.6690 C.2   207  NAP207      0.0633
     45  P2B       17.8490   15.7760   27.3840 P.3   207  NAP207      0.5328
     46  O1X       17.8830   15.2350   28.7760 O.3   207  NAP207     -0.1145
     47  O2X       17.8230   17.2590   27.4000 O.3   207  NAP207     -0.1145
     48  O3X       19.0360   15.3280   26.6070 O.2   207  NAP207     -0.2224
@<TRIPOS>BOND
     1    40    39    2
     2    41    39   am
     3    39    38    1
     4    34    33    1
     5    38    42    2
     6    38    37    1
     7    42    43    1
     8    37    36    1
     9    43    44    2
    10    33    35    1
    11    33    31    1
    12    36    44    1
    13    36    35    1
    14    35    30    1
    15    32    31    1
    16    31    29    1
    17    30    29    1
    18    29    28    1
    19    28    27    1
    20     2     1    2
    21    27    24    1
    22    23     1    1
    23    23    24    1
    24     1     4    1
    25     1     3    1
    26    24    25    2
    27    24    26    1
    28     4     5    1
    29     7     6    1
    30     7    12    1
    31     5     6    1
    32     6     8    1
    33    12    13    1
    34    12    10    1
    35    14    13    1
    36    14    15    1
    37    13    22    1
    38    10     8    1
    39    10    11    1
    40    48    45    2
    41     8     9    1
    42    11    45    1
    43    15    16    2
    44    22    16    1
    45    22    21    2
    46    45    47    1
    47    45    46    1
    48    16    17    1
    49    21    20    1
    50    17    18    1
    51    17    19    2
    52    20    19    1
