@<TRIPOS>MOLECULE
1e26_GPB_A_1.pdb
 31 33 0 0 0
SMALL
GASTEIGER

@<TRIPOS>ATOM
      1  N1        10.2540    2.7580   13.1950 N.2   208  GPB208     -0.2746
      2  C2        10.5750    1.9740   12.1900 C.1   208  GPB208      0.2495
      3  NA2        9.7900    1.1160   11.6990 N.pl3 208  GPB208     -0.0227
      4  N3        11.8790    2.0950   11.6220 N.2   208  GPB208     -0.3328
      5  C4        12.8510    2.9760   12.0400 C.2   208  GPB208      0.1192
      6  C5        13.9640    2.9930   11.4640 C.3   208  GPB208      0.0640
      7  C4A       12.4700    3.8780   13.1950 C.3   208  GPB208      0.1666
      8  C6        12.9520    5.0300   14.1400 C.2   208  GPB208     -0.0032
      9  C7        11.8890    5.2450   14.9200 C.2   208  GPB208      0.1031
     10  N8        10.8380    4.5320   14.7380 N.2   208  GPB208     -0.1854
     11  C8A       11.2010    3.7150   13.7010 C.1   208  GPB208      0.0865
     12  C9        14.2580    5.8070   14.2540 C.3   208  GPB208      0.0297
     13  C10       15.3050    6.1620   13.1830 C.3   208  GPB208      0.0308
     14  C11       15.0160    8.2990    9.3520 C.ar  208  GPB208      0.0550
     15  C12       16.2200    7.7670    9.8050 C.ar  208  GPB208      0.0042
     16  C13       16.3020    7.1090   11.0150 C.ar  208  GPB208     -0.0041
     17  C14       15.1280    6.9390   11.8710 C.ar  208  GPB208     -0.0219
     18  C15       13.9040    7.4490   11.4920 C.ar  208  GPB208     -0.0041
     19  C16       13.8450    8.1370   10.2190 C.ar  208  GPB208      0.0042
     20  C         14.9620    8.9580    8.1080 C.2   208  GPB208      0.2652
     21  O         15.8790    9.5890    7.6210 O.2   208  GPB208     -0.2684
     22  N         13.8650    8.9360    7.4980 N.am  208  GPB208     -0.1918
     23  CA        13.5160    9.6250    6.2570 C.3   208  GPB208      0.1986
     24  CB        13.7060    8.5370    5.1670 C.3   208  GPB208      0.0451
     25  CG        14.8180    8.8970    4.0930 C.3   208  GPB208      0.1164
     26  CD        14.7590    7.6700    3.1770 C.2   208  GPB208      0.3649
     27  OE1       15.9830    7.1290    3.2910 O.co2 208  GPB208     -0.2457
     28  OE2       13.6440    7.3690    2.4590 O.co2 208  GPB208     -0.2457
     29  CT        12.0200   10.0130    6.2750 C.2   208  GPB208      0.3842
     30  O1        11.2110    9.4990    7.0750 O.co2 208  GPB208     -0.2437
     31  O2        11.6410   10.8800    5.4580 O.co2 208  GPB208     -0.2437
@<TRIPOS>BOND
     1    28    26   ar
     2    26    27   ar
     3    26    25    1
     4    25    24    1
     5    24    23    1
     6    31    29   ar
     7    23    29    1
     8    23    22    1
     9    29    30   ar
    10    22    20   am
    11    21    20    2
    12    20    14    1
    13    14    15   ar
    14    14    19   ar
    15    15    16   ar
    16    19    18   ar
    17    16    17   ar
    18     6     5    1
    19    18    17   ar
    20     4     5    2
    21     4     2    2
    22     3     2    1
    23    17    13    1
    24     5     7    1
    25     2     1    2
    26    13    12    1
    27     1    11    2
    28     7    11    1
    29     7     8    1
    30    11    10    2
    31     8    12    1
    32     8     9    2
    33    10     9    1
