@<TRIPOS>MOLECULE
1e29_HEC_A_1.pdb
 43 50 0 0 0
SMALL
GASTEIGER

@<TRIPOS>ATOM
      1 FE          1.5610   35.0170   45.5570 Fe    136  HEC136      0.0000
      2  CHA       -1.7850   35.0180   45.8320 C.2   136  HEC136      0.0000
      3  CHB        1.3310   33.2930   42.6820 C.2   136  HEC136      0.0000
      4  CHC        4.9460   35.0890   45.1820 C.2   136  HEC136      0.0000
      5  CHD        1.8360   36.5020   48.5570 C.2   136  HEC136      0.0000
      6  NA         0.0730   34.3770   44.4270 N.ar  136  HEC136      0.0000
      7  C1A       -1.2780   34.4440   44.6860 C.ar  136  HEC136      0.0000
      8  C2A       -2.0400   33.8390   43.6270 C.ar  136  HEC136      0.0000
      9  C3A       -1.1530   33.3770   42.7140 C.ar  136  HEC136      0.0000
     10  C4A        0.1620   33.6640   43.2350 C.ar  136  HEC136      0.0000
     11  CMA       -1.4160   32.6890   41.3810 C.3   136  HEC136      0.0000
     12  CAA       -3.5470   33.7340   43.5620 C.3   136  HEC136      0.0000
     13  CBA       -4.0830   32.4260   44.1240 C.3   136  HEC136      0.0000
     14  CGA       -5.5520   32.1010   43.8530 C.2   136  HEC136      0.0000
     15  O1A       -6.2150   32.9100   43.1780 O.co2 136  HEC136      0.0000
     16  O2A       -6.0330   31.0510   44.3910 O.co2 136  HEC136      0.0000
     17  NB         2.8560   34.3330   44.2000 N.2   136  HEC136      0.0000
     18  C1B        2.5860   33.5430   43.0970 C.2   136  HEC136      0.0000
     19  C2B        3.8040   33.1230   42.4340 C.2   136  HEC136      0.0000
     20  C3B        4.8230   33.7490   43.0970 C.2   136  HEC136      0.0000
     21  C4B        4.2360   34.4560   44.2030 C.2   136  HEC136      0.0000
     22  CMB        3.8690   32.1520   41.2640 C.3   136  HEC136      0.0000
     23  CAB        6.2980   33.6490   42.7610 C.3   136  HEC136      0.0000
     24  CBB        6.6280   34.3190   41.4350 C.3   136  HEC136      0.0000
     25  NC         3.0880   35.7070   46.6220 N.ar  136  HEC136      0.0000
     26  C1C        4.4520   35.6650   46.3500 C.ar  136  HEC136      0.0000
     27  C2C        5.2300   36.2490   47.4160 C.ar  136  HEC136      0.0000
     28  C3C        4.3630   36.6380   48.3820 C.ar  136  HEC136      0.0000
     29  C4C        3.0260   36.2980   47.8780 C.ar  136  HEC136      0.0000
     30  CMC        6.7560   36.2590   47.3910 C.3   136  HEC136      0.0000
     31  CAC        4.6040   37.1300   49.7960 C.3   136  HEC136      0.0000
     32  CBC        5.6130   38.2540   49.8300 C.3   136  HEC136      0.0000
     33  ND         0.2860   35.6600   46.9350 N.2   136  HEC136      0.0000
     34  C1D        0.5690   36.1920   48.1810 C.2   136  HEC136      0.0000
     35  C2D       -0.6340   36.4920   48.8920 C.2   136  HEC136      0.0000
     36  C3D       -1.6710   36.1150   48.1020 C.2   136  HEC136      0.0000
     37  C4D       -1.0750   35.5620   46.8910 C.2   136  HEC136      0.0000
     38  CMD       -0.6840   37.0850   50.2930 C.3   136  HEC136      0.0000
     39  CAD       -3.1460   36.2570   48.3140 C.3   136  HEC136      0.0000
     40  CBD       -3.8040   37.4600   47.6540 C.3   136  HEC136      0.0000
     41  CGD       -5.2540   37.6190   48.0460 C.2   136  HEC136      0.0000
     42  O1D       -6.1010   37.6770   47.1420 O.co2 136  HEC136      0.0000
     43  O2D       -5.5100   37.7280   49.2710 O.co2 136  HEC136      0.0000
@<TRIPOS>BOND
     1    22    19    1
     2    11     9    1
     3    24    23    1
     4    19    20    2
     5    19    18    1
     6     3    18    1
     7     3    10    2
     8     9    10   ar
     9     9     8   ar
    10    23    20    1
    11    20    21    1
    12    18    17    2
    13    15    14   ar
    14    10     6   ar
    15    12     8    1
    16    12    13    1
    17     8     7   ar
    18    14    13    1
    19    14    16   ar
    20    17    21    1
    21    17     1    1
    22    21     4    2
    23     6     7   ar
    24     6     1    1
    25     7     2    2
    26     4    26    1
    27     1    25    1
    28     1    33    1
    29     2    37    1
    30    26    25   ar
    31    26    27   ar
    32    25    29   ar
    33    37    33    2
    34    37    36    1
    35    33    34    1
    36    42    41   ar
    37    30    27    1
    38    27    28   ar
    39    40    41    1
    40    40    39    1
    41    29    28   ar
    42    29     5    1
    43    41    43   ar
    44    36    39    1
    45    36    35    2
    46    34     5    2
    47    34    35    1
    48    28    31    1
    49    35    38    1
    50    31    32    1
