@<TRIPOS>MOLECULE
1e2d_TMP_A_1.pdb
 21 22 0 0 0
SMALL
GASTEIGER

@<TRIPOS>ATOM
      1  P         12.6930   71.5570   26.7240 P.3   301  TMP301      0.5327
      2  O1P       12.4250   72.0370   28.1250 O.3   301  TMP301     -0.1145
      3  O2P       11.5370   71.3690   25.8090 O.2   301  TMP301     -0.2224
      4  O3P       13.6890   70.3700   26.8000 O.3   301  TMP301     -0.1145
      5  O5'       13.4880   72.7030   25.9090 O.3   301  TMP301     -0.2675
      6  C5'       14.8120   73.1510   26.1990 C.3   301  TMP301      0.1858
      7  C4'       14.8540   74.6850   26.2660 C.3   301  TMP301      0.1774
      8  O4'       14.7500   75.4880   25.0530 O.3   301  TMP301     -0.3339
      9  C3'       13.9330   75.2820   27.3220 C.3   301  TMP301      0.1857
     10  O3'       14.6670   76.0490   28.2840 O.3   301  TMP301     -0.2203
     11  C2'       13.1040   76.2890   26.5030 C.3   301  TMP301      0.0874
     12  C1'       14.0740   76.6410   25.3470 C.3   301  TMP301      0.2090
     13  N1        13.5430   77.2890   24.1670 N.am  301  TMP301     -0.1794
     14  C2        14.0110   78.5740   23.7980 C.1   301  TMP301      0.2844
     15  O2        14.6950   79.2730   24.5590 O.2   301  TMP301     -0.1918
     16  N3        13.5370   78.9750   22.5730 N.2   301  TMP301     -0.2455
     17  C4        12.7810   78.1990   21.7230 C.1   301  TMP301      0.2134
     18  O4        12.3620   78.6030   20.4760 O.2   301  TMP301     -0.2088
     19  C5        12.3450   76.8670   22.1840 C.2   301  TMP301      0.0891
     20  C5M       11.5490   76.0190   21.2590 C.3   301  TMP301      0.0462
     21  C6        12.8160   76.4540   23.3990 C.2   301  TMP301      0.0877
@<TRIPOS>BOND
     1    18    17    2
     2    20    19    1
     3    17    19    1
     4    17    16    2
     5    19    21    2
     6    16    14    2
     7    21    13    1
     8    14    13   am
     9    14    15    2
    10    13    12    1
    11     8    12    1
    12     8     7    1
    13    12    11    1
    14     3     1    2
    15     5     6    1
    16     5     1    1
    17     6     7    1
    18     7     9    1
    19    11     9    1
    20     1     4    1
    21     1     2    1
    22     9    10    1
