@<TRIPOS>MOLECULE
1e2d_ADP_A_1.pdb
 27 29 0 0 0
SMALL
GASTEIGER

@<TRIPOS>ATOM
      1  PB         8.0950   69.1920   30.7100 P.3   302  ADP302      0.5373
      2  O1B        6.9620   70.1380   30.7650 O.3   302  ADP302     -0.1143
      3  O2B        8.4830   68.6920   29.3870 O.2   302  ADP302     -0.2221
      4  O3B        9.4050   69.8230   31.3830 O.3   302  ADP302     -0.1143
      5  PA         7.9860   66.4110   31.7090 P.3   302  ADP302      0.2231
      6  O1A        9.3780   66.0470   31.3330 O.3   302  ADP302     -0.4370
      7  O2A        6.9140   65.8290   30.8410 O.2   302  ADP302     -0.5169
      8  O3A        7.7750   67.9950   31.7510 O.3   302  ADP302     -0.2261
      9  O5'        7.6950   65.9880   33.1900 O.3   302  ADP302     -0.3111
     10  C5'        8.5420   66.4960   34.2810 C.3   302  ADP302      0.1813
     11  C4'        8.5460   65.4240   35.3820 C.3   302  ADP302      0.1821
     12  O4'        7.3110   65.4580   36.0990 O.3   302  ADP302     -0.3135
     13  C3'        8.7710   64.0370   34.8230 C.3   302  ADP302      0.2184
     14  O3'        9.5170   63.2550   35.7450 O.3   302  ADP302     -0.2174
     15  C2'        7.3220   63.4890   34.8020 C.3   302  ADP302      0.2570
     16  O2'        7.3020   62.1160   35.0190 O.3   302  ADP302     -0.2130
     17  C1'        6.6680   64.2160   35.9760 C.3   302  ADP302      0.3186
     18  N9         5.2460   64.4770   35.6740 N.pl3 302  ADP302     -0.1439
     19  C8         4.7700   64.9980   34.4790 C.3   302  ADP302      0.3377
     20  N7         3.4720   65.2340   34.5230 N.2   302  ADP302     -0.2095
     21  C5         3.0850   64.8510   35.8440 C.2   302  ADP302      0.2526
     22  C6         1.8620   64.8360   36.5150 C.2   302  ADP302      0.4393
     23  N6         0.7140   65.1910   36.0180 N.pl3 302  ADP302      0.2180
     24  N1         1.9450   64.3680   37.7740 N.2   302  ADP302      0.0021
     25  C2         3.0580   63.9490   38.3840 C.3   302  ADP302      0.5254
     26  N3         4.2540   63.9180   37.8140 N.2   302  ADP302     -0.0055
     27  C4         4.1480   64.3600   36.5520 C.2   302  ADP302      0.3518
@<TRIPOS>BOND
     1     3     1    2
     2     1     2    1
     3     1     4    1
     4     1     8    1
     5     7     5    2
     6     6     5    1
     7     5     8    1
     8     5     9    1
     9     9    10    1
    10    10    11    1
    11    19    20    1
    12    19    18    1
    13    20    21    2
    14    15    13    1
    15    15    16    1
    16    15    17    1
    17    13    11    1
    18    13    14    1
    19    11    12    1
    20    18    17    1
    21    18    27    1
    22    21    22    1
    23    21    27    1
    24    17    12    1
    25    23    22    1
    26    22    24    2
    27    27    26    2
    28    24    25    1
    29    26    25    1
