@<TRIPOS>MOLECULE
1e2e_TMP_A_1.pdb
 21 22 0 0 0
SMALL
GASTEIGER

@<TRIPOS>ATOM
      1  P         13.3300   71.8780   26.8650 P.3   301  TMP301      0.5327
      2  O1P       14.2460   70.7620   26.6470 O.3   301  TMP301     -0.1145
      3  O2P       12.6680   71.9530   28.2380 O.3   301  TMP301     -0.1145
      4  O3P       12.0850   71.9350   25.7920 O.2   301  TMP301     -0.2224
      5  O5'       13.9950   73.2980   26.7710 O.3   301  TMP301     -0.2675
      6  C5'       14.5440   74.1120   25.7460 C.3   301  TMP301      0.1858
      7  C4'       14.6960   75.5880   26.1330 C.3   301  TMP301      0.1774
      8  O4'       14.7450   76.5630   25.0950 O.3   301  TMP301     -0.3339
      9  C3'       13.7280   76.0850   27.2070 C.3   301  TMP301      0.1857
     10  O3'       14.4710   76.8190   28.1660 O.3   301  TMP301     -0.2203
     11  C2'       12.8150   77.0310   26.3830 C.3   301  TMP301      0.0874
     12  C1'       13.7260   77.5390   25.2980 C.3   301  TMP301      0.2090
     13  N1        13.3950   78.0700   23.9980 N.am  301  TMP301     -0.1794
     14  C2        13.8510   79.3610   23.5980 C.1   301  TMP301      0.2844
     15  O2        14.5510   80.0870   24.3400 O.2   301  TMP301     -0.1918
     16  N3        13.4820   79.7060   22.3180 N.2   301  TMP301     -0.2455
     17  C4        12.7500   78.8730   21.5000 C.1   301  TMP301      0.2134
     18  O4        12.3800   79.1930   20.2210 O.2   301  TMP301     -0.2088
     19  C5        12.3220   77.5250   21.9960 C.2   301  TMP301      0.0891
     20  C5M       11.5500   76.5940   21.1150 C.3   301  TMP301      0.0462
     21  C6        12.7360   77.1460   23.2480 C.2   301  TMP301      0.0877
@<TRIPOS>BOND
     1    18    17    2
     2    20    19    1
     3    17    19    1
     4    17    16    2
     5    19    21    2
     6    16    14    2
     7    21    13    1
     8    14    13   am
     9    14    15    2
    10    13    12    1
    11     8    12    1
    12     8     7    1
    13    12    11    1
    14     6     7    1
    15     6     5    1
    16     4     1    2
    17     7     9    1
    18    11     9    1
    19     2     1    1
    20     5     1    1
    21     1     3    1
    22     9    10    1
