@<TRIPOS>MOLECULE
1e2e_ADP_A_1.pdb
 27 29 0 0 0
SMALL
GASTEIGER

@<TRIPOS>ATOM
      1  PB         8.3680   69.7080   30.6620 P.3   302  ADP302      0.5373
      2  O1B        7.2070   70.7150   30.8010 O.3   302  ADP302     -0.1143
      3  O2B        8.6730   69.1750   29.3880 O.2   302  ADP302     -0.2221
      4  O3B        9.6130   70.2530   31.4850 O.3   302  ADP302     -0.1143
      5  PA         8.2280   66.9810   31.7680 P.3   302  ADP302      0.2231
      6  O1A        9.6170   66.7930   31.3170 O.3   302  ADP302     -0.4370
      7  O2A        7.2220   66.2670   30.9140 O.2   302  ADP302     -0.5169
      8  O3A        7.7930   68.5550   31.7420 O.3   302  ADP302     -0.2261
      9  O5'        7.9330   66.6690   33.2800 O.3   302  ADP302     -0.3111
     10  C5'        8.8240   67.1640   34.3130 C.3   302  ADP302      0.1813
     11  C4'        8.9030   66.1070   35.4420 C.3   302  ADP302      0.1821
     12  O4'        7.6470   66.0420   36.0970 O.3   302  ADP302     -0.3135
     13  C3'        9.2400   64.7260   34.9110 C.3   302  ADP302      0.2184
     14  O3'        9.8020   63.9210   35.9320 O.3   302  ADP302     -0.2174
     15  C2'        7.8050   64.1760   34.6840 C.3   302  ADP302      0.2570
     16  O2'        7.7640   62.7870   34.6700 O.3   302  ADP302     -0.2130
     17  C1'        7.1150   64.7420   35.9280 C.3   302  ADP302      0.3186
     18  N9         5.6800   64.8710   35.7120 N.pl3 302  ADP302     -0.1439
     19  C8         5.1360   65.1830   34.4740 C.3   302  ADP302      0.3377
     20  N7         3.8650   65.4840   34.5720 N.2   302  ADP302     -0.2095
     21  C5         3.5310   65.3800   35.9230 C.2   302  ADP302      0.2526
     22  C6         2.3160   65.5320   36.5970 C.2   302  ADP302      0.4393
     23  N6         1.1620   65.8670   36.1140 N.pl3 302  ADP302      0.2180
     24  N1         2.4500   65.3120   37.9160 N.2   302  ADP302      0.0021
     25  C2         3.5750   64.9930   38.5390 C.3   302  ADP302      0.5254
     26  N3         4.7540   64.8030   37.9630 N.2   302  ADP302     -0.0055
     27  C4         4.6410   65.0030   36.6660 C.2   302  ADP302      0.3518
@<TRIPOS>BOND
     1     3     1    2
     2     1     2    1
     3     1     4    1
     4     1     8    1
     5     7     5    2
     6     6     5    1
     7     8     5    1
     8     5     9    1
     9     9    10    1
    10    10    11    1
    11    19    20    1
    12    19    18    1
    13    20    21    2
    14    16    15    1
    15    15    13    1
    16    15    17    1
    17    13    11    1
    18    13    14    1
    19    11    12    1
    20    18    17    1
    21    18    27    1
    22    21    22    1
    23    21    27    1
    24    17    12    1
    25    23    22    1
    26    22    24    2
    27    27    26    2
    28    24    25    1
    29    26    25    1
