@<TRIPOS>MOLECULE
1e2f_ANP_A_1.pdb
 31 33 0 0 0
SMALL
GASTEIGER

@<TRIPOS>ATOM
      1  PG        10.6850   71.0860   30.4510 P.3   302  ANP302      0.4884
      2  O1G       11.8940   70.9890   31.3310 O.3   302  ANP302     -0.1240
      3  O2G        9.9990   72.4240   30.5820 O.3   302  ANP302     -0.1240
      4  O3G       10.8880   70.4430   29.1570 O.2   302  ANP302     -0.2331
      5  PB         8.2760   69.3750   30.5870 P.3   302  ANP302      0.4669
      6  O1B        7.1150   70.2580   30.7260 O.3   302  ANP302     -0.1253
      7  O2B        8.5690   68.8660   29.2580 O.2   302  ANP302     -0.2351
      8  N3B        9.6040   70.1490   31.2870 N.3   302  ANP302     -0.0163
      9  PA         8.0120   66.7070   31.6310 P.3   302  ANP302      0.2220
     10  O1A        6.8610   66.1680   30.8860 O.2   302  ANP302     -0.5170
     11  O2A        9.3820   66.3010   31.1800 O.3   302  ANP302     -0.4370
     12  O3A        7.9220   68.3000   31.6980 O.3   302  ANP302     -0.2360
     13  O5'        7.8840   66.3410   33.1780 O.3   302  ANP302     -0.3111
     14  C5'        8.7890   66.9050   34.1790 C.3   302  ANP302      0.1813
     15  C4'        8.8780   65.9490   35.3600 C.3   302  ANP302      0.1821
     16  O4'        7.6420   66.0340   36.0650 O.3   302  ANP302     -0.3135
     17  C3'        9.0400   64.4990   34.8940 C.3   302  ANP302      0.2184
     18  O3'        9.8300   63.6910   35.8210 O.3   302  ANP302     -0.2174
     19  C2'        7.6280   63.9930   34.8230 C.3   302  ANP302      0.2570
     20  O2'        7.5260   62.5730   35.1460 O.3   302  ANP302     -0.2130
     21  C1'        6.9500   64.7830   35.9620 C.3   302  ANP302      0.3186
     22  N9         5.5180   65.0180   35.6700 N.pl3 302  ANP302     -0.1439
     23  C8         4.9010   65.2970   34.4800 C.3   302  ANP302      0.3377
     24  N7         3.6130   65.4990   34.6030 N.2   302  ANP302     -0.2095
     25  C5         3.3740   65.3280   35.9470 C.2   302  ANP302      0.2526
     26  C6         2.1910   65.4220   36.7300 C.2   302  ANP302      0.4393
     27  N6         0.9870   65.6800   36.1860 N.pl3 302  ANP302      0.2180
     28  N1         2.3300   65.1970   38.0390 N.2   302  ANP302      0.0021
     29  C2         3.5330   64.9260   38.5620 C.3   302  ANP302      0.5254
     30  N3         4.6970   64.8310   37.9430 N.2   302  ANP302     -0.0055
     31  C4         4.5250   65.0510   36.6170 C.2   302  ANP302      0.3518
@<TRIPOS>BOND
     1     4     1    2
     2     7     5    2
     3     1     3    1
     4     1     8    1
     5     1     2    1
     6     5     6    1
     7     5     8    1
     8     5    12    1
     9    10     9    2
    10    11     9    1
    11     9    12    1
    12     9    13    1
    13    13    14    1
    14    14    15    1
    15    23    24    1
    16    23    22    1
    17    24    25    2
    18    19    17    1
    19    19    20    1
    20    19    21    1
    21    17    15    1
    22    17    18    1
    23    15    16    1
    24    22    21    1
    25    22    31    1
    26    25    31    1
    27    25    26    1
    28    21    16    1
    29    27    26    1
    30    31    30    2
    31    26    28    2
    32    30    29    1
    33    28    29    1
