@<TRIPOS>MOLECULE
1e2f_ADP_A_1.pdb
 27 29 0 0 0
SMALL
GASTEIGER

@<TRIPOS>ATOM
      1  PB         8.1540   69.5450   30.6340 P.3   303  ADP303      0.5373
      2  O1B        7.1400   70.6200   30.6980 O.3   303  ADP303     -0.1143
      3  O2B        8.3800   68.9570   29.2940 O.2   303  ADP303     -0.2221
      4  O3B        9.5790   69.9560   31.2380 O.3   303  ADP303     -0.1143
      5  PA         8.0140   66.7910   31.7140 P.3   303  ADP303      0.2231
      6  O1A        9.4190   66.5690   31.3190 O.3   303  ADP303     -0.4370
      7  O2A        6.9610   66.0400   30.9510 O.2   303  ADP303     -0.5169
      8  O3A        7.5970   68.3820   31.6350 O.3   303  ADP303     -0.2261
      9  O5'        7.7380   66.5380   33.2350 O.3   303  ADP303     -0.3111
     10  C5'        8.7280   66.9650   34.1960 C.3   303  ADP303      0.1813
     11  C4'        8.8290   65.9580   35.3360 C.3   303  ADP303      0.1821
     12  O4'        7.5920   66.0010   36.0470 O.3   303  ADP303     -0.3135
     13  C3'        9.1000   64.5090   34.9660 C.3   303  ADP303      0.2184
     14  O3'        9.7710   63.9350   36.0790 O.3   303  ADP303     -0.2174
     15  C2'        7.6460   63.9860   34.8540 C.3   303  ADP303      0.2570
     16  O2'        7.4750   62.6220   35.0760 O.3   303  ADP303     -0.2130
     17  C1'        6.9460   64.7640   35.9730 C.3   303  ADP303      0.3186
     18  N9         5.5210   65.0270   35.6850 N.pl3 303  ADP303     -0.1439
     19  C8         4.9340   65.2930   34.4720 C.3   303  ADP303      0.3377
     20  N7         3.6300   65.4940   34.5790 N.2   303  ADP303     -0.2095
     21  C5         3.3620   65.3420   35.9570 C.2   303  ADP303      0.2526
     22  C6         2.1860   65.4370   36.7010 C.2   303  ADP303      0.4393
     23  N6         1.0260   65.6870   36.1900 N.pl3 303  ADP303      0.2180
     24  N1         2.3630   65.2210   38.0190 N.2   303  ADP303      0.0021
     25  C2         3.5320   64.9510   38.6120 C.3   303  ADP303      0.5254
     26  N3         4.6900   64.8550   37.9580 N.2   303  ADP303     -0.0055
     27  C4         4.4990   65.0620   36.6710 C.2   303  ADP303      0.3518
@<TRIPOS>BOND
     1     3     1    2
     2     1     2    1
     3     1     4    1
     4     1     8    1
     5     7     5    2
     6     6     5    1
     7     8     5    1
     8     5     9    1
     9     9    10    1
    10    10    11    1
    11    19    20    1
    12    19    18    1
    13    20    21    2
    14    15    13    1
    15    15    16    1
    16    15    17    1
    17    13    11    1
    18    13    14    1
    19    11    12    1
    20    18    17    1
    21    18    27    1
    22    21    27    1
    23    21    22    1
    24    17    12    1
    25    23    22    1
    26    27    26    2
    27    22    24    2
    28    26    25    1
    29    24    25    1
