@<TRIPOS>MOLECULE
1e2f_TMP_A_1.pdb
 21 22 0 0 0
SMALL
GASTEIGER

@<TRIPOS>ATOM
      1  P         14.4600   71.2080   26.1790 P.3   301  TMP301      0.5327
      2  O1P       15.3100   70.4890   27.1710 O.3   301  TMP301     -0.1145
      3  O2P       12.9910   71.0280   26.2440 O.3   301  TMP301     -0.1145
      4  O3P       14.9700   70.9740   24.6850 O.2   301  TMP301     -0.2224
      5  O5'       14.6410   72.7730   26.4030 O.3   301  TMP301     -0.2675
      6  C5'       14.2470   73.7340   25.3900 C.3   301  TMP301      0.1858
      7  C4'       14.6830   75.1190   25.8810 C.3   301  TMP301      0.1774
      8  O4'       14.8210   76.1750   24.9300 O.3   301  TMP301     -0.3339
      9  C3'       13.8920   75.6450   27.0650 C.3   301  TMP301      0.1857
     10  O3'       14.8030   76.2370   27.9880 O.3   301  TMP301     -0.2203
     11  C2'       13.0210   76.7210   26.3930 C.3   301  TMP301      0.0874
     12  C1'       13.9000   77.1810   25.2290 C.3   301  TMP301      0.2090
     13  N1        13.3580   77.7570   24.0190 N.am  301  TMP301     -0.1794
     14  C2        13.7610   79.0590   23.6210 C.1   301  TMP301      0.2844
     15  O2        14.3920   79.8480   24.3420 O.2   301  TMP301     -0.1918
     16  N3        13.3400   79.3950   22.3630 N.2   301  TMP301     -0.2455
     17  C4        12.6370   78.5670   21.4940 C.1   301  TMP301      0.2134
     18  O4        12.2730   78.9570   20.2190 O.2   301  TMP301     -0.2088
     19  C5        12.2790   77.2130   21.9900 C.2   301  TMP301      0.0891
     20  C5M       11.5250   76.3050   21.0850 C.3   301  TMP301      0.0462
     21  C6        12.6760   76.8810   23.2500 C.2   301  TMP301      0.0877
@<TRIPOS>BOND
     1    18    17    2
     2    20    19    1
     3    17    19    1
     4    17    16    2
     5    19    21    2
     6    16    14    2
     7    21    13    1
     8    14    13   am
     9    14    15    2
    10    13    12    1
    11     4     1    2
    12     8    12    1
    13     8     7    1
    14    12    11    1
    15     6     7    1
    16     6     5    1
    17     7     9    1
    18     1     3    1
    19     1     5    1
    20     1     2    1
    21    11     9    1
    22     9    10    1
