@<TRIPOS>MOLECULE
1e2g_TYD_A_1.pdb
 25 26 0 0 0
SMALL
GASTEIGER

@<TRIPOS>ATOM
      1  PA        16.7810   72.0830   27.5060 P.3   304  TYD304      0.2231
      2  O1A       18.0920   72.2430   26.8540 O.2   304  TYD304     -0.5169
      3  O2A       16.7250   71.8530   28.9710 O.3   304  TYD304     -0.4370
      4  O3A       15.9560   70.9290   26.7610 O.3   304  TYD304     -0.2261
      5  PB        14.6610   70.0310   27.1070 P.3   304  TYD304      0.5373
      6  O1B       14.2250   69.4040   25.8370 O.2   304  TYD304     -0.2221
      7  O2B       13.6550   70.8940   27.6770 O.3   304  TYD304     -0.1143
      8  O3B       15.2370   68.9540   28.0990 O.3   304  TYD304     -0.1143
      9  O5'       15.8560   73.3310   27.2880 O.3   304  TYD304     -0.3111
     10  C5'       15.5840   73.7930   25.8680 C.3   304  TYD304      0.1812
     11  C4'       14.9110   75.1770   26.1590 C.3   304  TYD304      0.1773
     12  O4'       14.6750   75.9850   24.9680 O.3   304  TYD304     -0.3339
     13  C3'       13.6730   75.3720   27.0530 C.3   304  TYD304      0.1857
     14  O3'       14.0280   76.0690   28.2390 O.3   304  TYD304     -0.2203
     15  C2'       12.7410   76.2610   26.2190 C.3   304  TYD304      0.0874
     16  C1'       13.7530   76.9610   25.2550 C.3   304  TYD304      0.2090
     17  N1        13.2560   77.4800   23.9890 N.am  304  TYD304     -0.1794
     18  C2        13.7180   78.7600   23.5890 C.1   304  TYD304      0.2844
     19  O2        14.3600   79.4890   24.3690 O.2   304  TYD304     -0.1918
     20  N3        13.3170   79.1000   22.3400 N.2   304  TYD304     -0.2455
     21  C4        12.5760   78.3100   21.4900 C.1   304  TYD304      0.2134
     22  O4        12.2220   78.7170   20.2480 O.2   304  TYD304     -0.2088
     23  C5        12.1650   76.9680   21.9530 C.2   304  TYD304      0.0891
     24  C5M       11.3740   76.1140   21.0340 C.3   304  TYD304      0.0462
     25  C6        12.5430   76.6040   23.2340 C.2   304  TYD304      0.0877
@<TRIPOS>BOND
     1    22    21    2
     2    24    23    1
     3    21    23    1
     4    21    20    2
     5    23    25    2
     6    20    18    2
     7    25    17    1
     8    18    17   am
     9    18    19    2
    10    17    16    1
    11    12    16    1
    12    12    11    1
    13    16    15    1
    14     6     5    2
    15    10    11    1
    16    10     9    1
    17    11    13    1
    18    15    13    1
    19     4     5    1
    20     4     1    1
    21     2     1    2
    22    13    14    1
    23     5     7    1
    24     5     8    1
    25     9     1    1
    26     1     3    1
