@<TRIPOS>MOLECULE
1e2g_TMP_A_1.pdb
 21 22 0 0 0
SMALL
GASTEIGER

@<TRIPOS>ATOM
      1  P         12.5520   71.9840   26.3490 P.3   301  TMP301      0.5327
      2  O1P       12.2860   72.2570   27.8030 O.3   301  TMP301     -0.1145
      3  O2P       11.3790   71.7080   25.5060 O.2   301  TMP301     -0.2224
      4  O3P       13.6290   70.7980   26.2240 O.3   301  TMP301     -0.1145
      5  O5'       13.3610   73.1960   25.7220 O.3   301  TMP301     -0.2675
      6  C5'       14.6660   73.6280   26.2050 C.3   301  TMP301      0.1858
      7  C4'       14.6200   75.1640   26.3190 C.3   301  TMP301      0.1774
      8  O4'       14.7130   75.9870   25.1670 O.3   301  TMP301     -0.3339
      9  C3'       13.4660   75.6500   27.1760 C.3   301  TMP301      0.1857
     10  O3'       13.9100   76.5350   28.1870 O.3   301  TMP301     -0.2203
     11  C2'       12.6320   76.4380   26.1370 C.3   301  TMP301      0.0874
     12  C1'       13.6950   76.9550   25.1630 C.3   301  TMP301      0.2090
     13  N1        13.4370   77.4450   23.8210 N.am  301  TMP301     -0.1794
     14  C2        13.8050   78.7590   23.4250 C.1   301  TMP301      0.2844
     15  O2        14.4880   79.5140   24.1330 O.2   301  TMP301     -0.1918
     16  N3        13.3030   79.1380   22.1980 N.2   301  TMP301     -0.2455
     17  C4        12.5210   78.3320   21.3830 C.1   301  TMP301      0.2134
     18  O4        12.0240   78.7140   20.1340 O.2   301  TMP301     -0.2088
     19  C5        12.1980   76.9540   21.8710 C.2   301  TMP301      0.0891
     20  C5M       11.3770   76.0380   21.0610 C.3   301  TMP301      0.0462
     21  C6        12.6910   76.6030   23.0940 C.2   301  TMP301      0.0877
@<TRIPOS>BOND
     1    18    17    2
     2    20    19    1
     3    17    19    1
     4    17    16    2
     5    19    21    2
     6    16    14    2
     7    21    13    1
     8    14    13   am
     9    14    15    2
    10    13    12    1
    11    12     8    1
    12    12    11    1
    13     8     7    1
    14     3     1    2
    15     5     6    1
    16     5     1    1
    17    11     9    1
    18     6     7    1
    19     4     1    1
    20     7     9    1
    21     1     2    1
    22     9    10    1
