@<TRIPOS>MOLECULE
1e2g_ADP_A_1.pdb
 27 29 0 0 0
SMALL
GASTEIGER

@<TRIPOS>ATOM
      1  PB         8.3360   69.3330   30.1280 P.3   302  ADP302      0.5373
      2  O1B        7.2080   70.3410   30.1900 O.3   302  ADP302     -0.1143
      3  O2B        8.6170   68.7800   28.8400 O.2   302  ADP302     -0.2221
      4  O3B        9.6600   69.9430   30.7830 O.3   302  ADP302     -0.1143
      5  PA         8.1040   66.6260   31.2870 P.3   302  ADP302      0.2231
      6  O1A        9.4150   66.2280   30.7280 O.3   302  ADP302     -0.4370
      7  O2A        6.9490   65.9970   30.5100 O.2   302  ADP302     -0.5169
      8  O3A        7.8970   68.2410   31.2510 O.3   302  ADP302     -0.2261
      9  O5'        7.9100   66.3380   32.7940 O.3   302  ADP302     -0.3111
     10  C5'        8.9170   66.8220   33.7580 C.3   302  ADP302      0.1813
     11  C4'        8.9440   65.8190   34.9200 C.3   302  ADP302      0.1821
     12  O4'        7.7160   65.9050   35.6220 O.3   302  ADP302     -0.3135
     13  C3'        9.1620   64.3890   34.4820 C.3   302  ADP302      0.2184
     14  O3'        9.8950   63.6620   35.4610 O.3   302  ADP302     -0.2174
     15  C2'        7.7210   63.8560   34.5250 C.3   302  ADP302      0.2570
     16  O2'        7.5660   62.4900   34.7870 O.3   302  ADP302     -0.2130
     17  C1'        7.0880   64.6480   35.6630 C.3   302  ADP302      0.3186
     18  N9         5.6640   64.9220   35.3960 N.pl3 302  ADP302     -0.1439
     19  C8         5.0720   65.1650   34.1740 C.3   302  ADP302      0.3377
     20  N7         3.7610   65.3430   34.2860 N.2   302  ADP302     -0.2095
     21  C5         3.4990   65.2020   35.6610 C.2   302  ADP302      0.2526
     22  C6         2.3190   65.2820   36.3830 C.2   302  ADP302      0.4393
     23  N6         1.1470   65.4940   35.8590 N.pl3 302  ADP302      0.2180
     24  N1         2.4960   65.1320   37.7130 N.2   302  ADP302      0.0021
     25  C2         3.6820   64.9270   38.3120 C.3   302  ADP302      0.5254
     26  N3         4.8500   64.8310   37.6730 N.2   302  ADP302     -0.0055
     27  C4         4.6480   64.9740   36.3810 C.2   302  ADP302      0.3518
@<TRIPOS>BOND
     1     3     1    2
     2     1     2    1
     3     1     4    1
     4     1     8    1
     5     7     5    2
     6     6     5    1
     7     8     5    1
     8     5     9    1
     9     9    10    1
    10    10    11    1
    11    19    20    1
    12    19    18    1
    13    20    21    2
    14    13    15    1
    15    13    11    1
    16    13    14    1
    17    15    16    1
    18    15    17    1
    19    11    12    1
    20    18    17    1
    21    18    27    1
    22    12    17    1
    23    21    27    1
    24    21    22    1
    25    23    22    1
    26    27    26    2
    27    22    24    2
    28    26    25    1
    29    24    25    1
