@<TRIPOS>MOLECULE
1e2i_ARP_A_1.pdb
 14 15 0 0 0
SMALL
GASTEIGER

@<TRIPOS>ATOM
      1  C7        48.5390   33.9890   -0.3620 C.3   502  ARP502      0.2369
      2  C8        49.7640   33.5990    0.5210 C.3   502  ARP502      0.1985
      3  O1        50.4690   34.7920    0.7770 O.3   502  ARP502     -0.2187
      4  C9        50.6550   32.5850   -0.1740 C.3   502  ARP502      0.0400
      5  C4        46.1120   33.2980    0.2270 C.2   502  ARP502      0.3501
      6  C3        45.2110   33.7440    1.2250 C.2   502  ARP502      0.2525
      7  C2        43.9260   33.1560    1.2950 C.2   502  ARP502      0.4393
      8  N2        43.6110   32.1840    0.3940 N.2   502  ARP502      0.0021
      9  C1        44.5380   31.8050   -0.5470 C.3   502  ARP502      0.5254
     10  N5        42.9710   33.5250    2.2410 N.pl3 502  ARP502      0.2180
     11  N4        47.2820   34.0540    0.4030 N.pl3 502  ARP502     -0.1650
     12  N3        45.8350   34.7510    1.9920 N.2   502  ARP502     -0.2096
     13  C6        47.0630   34.9300    1.5030 C.3   502  ARP502      0.3359
     14  N1        45.7770   32.3130   -0.6780 N.2   502  ARP502     -0.0055
@<TRIPOS>BOND
     1    14     9    1
     2    14     5    2
     3     9     8    1
     4     1    11    1
     5     1     2    1
     6     4     2    1
     7     5    11    1
     8     5     6    1
     9     8     7    2
    10    11    13    1
    11     2     3    1
    12     6     7    1
    13     6    12    2
    14     7    10    1
    15    13    12    1
