@<TRIPOS>MOLECULE
1e2i_APS_A_1.pdb
 14 15 0 0 0
SMALL
GASTEIGER

@<TRIPOS>ATOM
      1  C7        48.5590   34.0030   -0.3690 C.3   500  APS500      0.2369
      2  C8        49.7670   33.8940    0.6430 C.3   500  APS500      0.1985
      3  O1        49.4630   34.6750    1.9160 O.3   500  APS500     -0.2187
      4  C9        49.8670   32.5220    0.9490 C.3   500  APS500      0.0400
      5  C4        46.1230   33.2870    0.2060 C.2   500  APS500      0.3501
      6  C3        45.2310   33.7260    1.1960 C.2   500  APS500      0.2525
      7  C2        43.9300   33.1520    1.2930 C.2   500  APS500      0.4393
      8  N2        43.5890   32.1850    0.4110 N.2   500  APS500      0.0021
      9  C1        44.5220   31.8110   -0.5300 C.3   500  APS500      0.5254
     10  N5        43.1330   33.6530    2.3000 N.pl3 500  APS500      0.2180
     11  N4        47.2840   34.0490    0.3930 N.pl3 500  APS500     -0.1650
     12  N3        45.8170   34.7340    1.9840 N.2   500  APS500     -0.2096
     13  C6        47.0620   34.9250    1.4940 C.3   500  APS500      0.3359
     14  N1        45.7670   32.3030   -0.6870 N.2   500  APS500     -0.0055
@<TRIPOS>BOND
     1    14     9    1
     2    14     5    2
     3     9     8    1
     4     1    11    1
     5     1     2    1
     6     5    11    1
     7     5     6    1
     8    11    13    1
     9     8     7    2
    10     2     4    1
    11     2     3    1
    12     6     7    1
    13     6    12    2
    14     7    10    1
    15    13    12    1
