@<TRIPOS>MOLECULE
1e2j_THM_A_1.pdb
 17 18 0 0 0
SMALL
GASTEIGER

@<TRIPOS>ATOM
      1  O5'       51.1770   35.2420    1.3550 O.3   500  THM500     -0.2176
      2  C5'       49.9550   34.9120    0.6260 C.3   500  THM500      0.2141
      3  C4'       49.9060   33.4720    0.1670 C.3   500  THM500      0.1802
      4  O4'       48.7040   32.7800    0.5280 O.3   500  THM500     -0.3338
      5  C3'       49.6980   33.3920   -1.3290 C.3   500  THM500      0.1858
      6  O3'       49.9020   32.0470   -1.6230 O.3   500  THM500     -0.2203
      7  C2'       48.1990   33.6240   -1.4550 C.3   500  THM500      0.0874
      8  C1'       47.5830   32.7560   -0.4150 C.3   500  THM500      0.2090
      9  N1        46.2940   33.1110    0.2170 N.am  500  THM500     -0.1794
     10  C2        45.1640   32.4960   -0.1890 C.1   500  THM500      0.2844
     11  O2        45.1350   31.5850   -1.0380 O.2   500  THM500     -0.1918
     12  N3        43.9540   32.9200    0.4000 N.2   500  THM500     -0.2455
     13  C4        43.8370   33.9450    1.3660 C.1   500  THM500      0.2134
     14  O4        42.7010   34.2580    1.8320 O.2   500  THM500     -0.2088
     15  C5        45.0650   34.5040    1.6990 C.2   500  THM500      0.0891
     16  C5M       45.1430   35.6220    2.7340 C.3   500  THM500      0.0462
     17  C6        46.2190   34.1120    1.1550 C.2   500  THM500      0.0877
@<TRIPOS>BOND
     1     6     5    1
     2     7     5    1
     3     7     8    1
     4     5     3    1
     5    11    10    2
     6     8     9    1
     7     8     4    1
     8    10     9   am
     9    10    12    2
    10     3     4    1
    11     3     2    1
    12     9    17    1
    13    12    13    2
    14     2     1    1
    15    17    15    2
    16    13    15    1
    17    13    14    2
    18    15    16    1
