@<TRIPOS>MOLECULE
1e2k_TMC_A_1.pdb
 18 20 0 0 0
SMALL
GASTEIGER

@<TRIPOS>ATOM
      1  O16       50.3650   35.7730    1.2290 O.3   500  TMC500     -0.2203
      2  O18       50.7440   34.6090   -2.0410 O.3   500  TMC500     -0.2230
      3  O9        45.4850   31.6870   -1.2610 O.2   500  TMC500     -0.1919
      4  O7        43.1910   34.5170    1.4590 O.2   500  TMC500     -0.2088
      5  N8        46.6500   33.2970   -0.0480 N.am  500  TMC500     -0.2053
      6  N5        44.3790   33.1100    0.1630 N.2   500  TMC500     -0.2456
      7  C1        50.1450   33.6030    0.1970 C.3   500  TMC500      0.0604
      8  C10       49.7430   34.2920   -1.1100 C.3   500  TMC500      0.1561
      9  C14       48.4730   33.6530   -1.6110 C.3   500  TMC500      0.0539
     10  C17       47.9650   32.7100   -0.5190 C.3   500  TMC500      0.0925
     11  C13       49.0050   32.6710    0.6400 C.3   500  TMC500      0.0244
     12  C15       50.3270   32.1180    0.1530 C.3   500  TMC500      0.0069
     13  C12       50.8100   34.3980    1.2750 C.3   500  TMC500      0.1844
     14  C11       45.5520   32.6120   -0.4750 C.1   500  TMC500      0.2825
     15  C6        44.3590   34.1810    1.0470 C.1   500  TMC500      0.2134
     16  C4        45.5420   34.8400    1.4210 C.2   500  TMC500      0.0890
     17  C2        46.6870   34.3520    0.8440 C.2   500  TMC500      0.0852
     18  C3        45.6000   35.9960    2.3980 C.3   500  TMC500      0.0462
@<TRIPOS>BOND
     1     2     8    1
     2     9     8    1
     3     9    10    1
     4     3    14    2
     5     8     7    1
     6    10     5    1
     7    10    11    1
     8    14     5   am
     9    14     6    2
    10     5    17    1
    11    12     7    1
    12    12    11    1
    13     6    15    2
    14     7    11    1
    15     7    13    1
    16    17    16    2
    17    15    16    1
    18    15     4    2
    19     1    13    1
    20    16    18    1
