@<TRIPOS>MOLECULE
1e2l_TMC_A_1.pdb
 18 20 0 0 0
SMALL
GASTEIGER

@<TRIPOS>ATOM
      1  O16       50.2480   36.1560    0.6380 O.3   500  TMC500     -0.2203
      2  O18       50.7490   34.8620   -2.4060 O.3   500  TMC500     -0.2230
      3  O9        45.5780   31.9080   -1.4740 O.2   500  TMC500     -0.1919
      4  O7        43.2950   34.6050    1.4770 O.2   500  TMC500     -0.2088
      5  N8        46.8020   33.4610   -0.2830 N.am  500  TMC500     -0.2053
      6  N5        44.4640   33.2090    0.0280 N.2   500  TMC500     -0.2456
      7  C1        50.2620   33.9340   -0.1760 C.3   500  TMC500      0.0604
      8  C10       49.7220   34.6090   -1.4330 C.3   500  TMC500      0.1561
      9  C14       48.5910   33.7320   -1.9820 C.3   500  TMC500      0.0539
     10  C17       48.0950   32.8740   -0.7790 C.3   500  TMC500      0.0925
     11  C13       49.2220   32.9240    0.2940 C.3   500  TMC500      0.0244
     12  C15       50.5670   32.4800   -0.2380 C.3   500  TMC500      0.0069
     13  C12       50.8760   34.8460    0.8430 C.3   500  TMC500      0.1844
     14  C11       45.6370   32.8110   -0.6370 C.1   500  TMC500      0.2825
     15  C6        44.3550   34.2370    0.9510 C.1   500  TMC500      0.2134
     16  C4        45.6250   34.8860    1.2590 C.2   500  TMC500      0.0890
     17  C2        46.7800   34.4890    0.6550 C.2   500  TMC500      0.0852
     18  C3        45.5750   36.0050    2.2950 C.3   500  TMC500      0.0462
@<TRIPOS>BOND
     1     2     8    1
     2     9     8    1
     3     9    10    1
     4     3    14    2
     5     8     7    1
     6    10     5    1
     7    10    11    1
     8    14     5   am
     9    14     6    2
    10     5    17    1
    11    12     7    1
    12    12    11    1
    13     7    11    1
    14     7    13    1
    15     6    15    2
    16     1    13    1
    17    17    16    2
    18    15    16    1
    19    15     4    2
    20    16    18    1
