@<TRIPOS>MOLECULE
1e2m_HPT_A_1.pdb
 13 13 0 0 0
SMALL
GASTEIGER

@<TRIPOS>ATOM
      1  O2        43.0540   34.2260    1.6240 O.2   500  HPT500     -0.2130
      2  C3        45.3940   34.6570    1.2040 C.3   500  HPT500      0.1678
      3  C4        45.4610   35.8080    2.1440 C.3   500  HPT500      0.0261
      4  C5        46.4560   34.3210    0.4020 C.2   500  HPT500      0.1183
      5  C1        45.1830   32.4320   -0.5480 C.1   500  HPT500      0.3646
      6  N1        46.3500   33.2260   -0.4700 N.2   500  HPT500     -0.3157
      7  C2        44.1520   33.8790    1.1840 C.1   500  HPT500      0.1988
      8  N2        44.0790   32.7640    0.2850 N.2   500  HPT500     -0.2366
      9  O1        45.1340   31.4820   -1.3210 O.2   500  HPT500     -0.1745
     10  O3        50.9580   34.2460    0.3070 O.3   500  HPT500     -0.2204
     11  C11       47.7390   35.0920    0.4010 C.3   500  HPT500      0.0593
     12  C12       48.8480   34.6890    1.4020 C.3   500  HPT500      0.0427
     13  C13       50.2100   35.2750    1.0100 C.3   500  HPT500      0.1825
@<TRIPOS>BOND
     1     9     5    2
     2     5     6    2
     3     5     8    2
     4     6     4    2
     5     8     7    2
     6    10    13    1
     7    11     4    1
     8    11    12    1
     9     4     2    1
    10    13    12    1
    11     7     2    1
    12     7     1    2
    13     2     3    1
