@<TRIPOS>MOLECULE
1e2n_RCA_A_1.pdb
 21 22 0 0 0
SMALL
GASTEIGER

@<TRIPOS>ATOM
      1  O2        42.9340   35.0230    1.9530 O.2   500  RCA500     -0.2130
      2  C3        45.2780   35.5490    1.5000 C.3   500  RCA500      0.1679
      3  C4        45.3400   36.6850    2.4570 C.3   500  RCA500      0.0261
      4  C5        46.3690   35.1850    0.7610 C.2   500  RCA500      0.1194
      5  C1        45.0990   33.3610   -0.3090 C.1   500  RCA500      0.3646
      6  N1        46.2960   34.1070   -0.1380 N.2   500  RCA500     -0.3157
      7  C2        44.0040   34.8270    1.3770 C.1   500  RCA500      0.1988
      8  N2        43.9640   33.7310    0.4490 N.2   500  RCA500     -0.2366
      9  O1        45.0790   32.4270   -1.1030 O.2   500  RCA500     -0.1745
     10  C11       50.0940   35.8380    1.7500 C.3   500  RCA500      0.1657
     11  O4        52.3170   32.9590    1.7190 O.2   500  RCA500     -0.1882
     12  O3        48.7240   33.6120   -0.8210 O.2   500  RCA500     -0.2133
     13  N4        51.1550   34.8870    2.2220 N.2   500  RCA500     -0.1740
     14  C10       51.4570   33.7720    1.4010 C.1   500  RCA500      0.3062
     15  C12       50.7100   36.7520    0.6480 C.3   500  RCA500      0.2083
     16  O5        50.6600   38.0720    1.1320 O.3   500  RCA500     -0.2182
     17  C7        48.8960   34.9790    1.2200 C.3   500  RCA500      0.1351
     18  N3        50.6960   33.5570    0.2050 N.2   500  RCA500     -0.2468
     19  C9        49.4240   34.1590    0.0240 C.1   500  RCA500      0.1927
     20  C6        47.7090   35.8840    0.8520 C.3   500  RCA500      0.0752
     21  C8        48.5080   33.9950    2.3210 C.3   500  RCA500      0.0202
@<TRIPOS>BOND
     1     9     5    2
     2    12    19    2
     3     5     6    2
     4     5     8    2
     5     6     4    2
     6    19    18    2
     7    19    17    1
     8    18    14    2
     9     8     7    2
    10    15    16    1
    11    15    10    1
    12     4    20    1
    13     4     2    1
    14    20    17    1
    15    17    10    1
    16    17    21    1
    17     7     2    1
    18     7     1    2
    19    14    11    2
    20    14    13    2
    21     2     3    1
    22    10    13    1
