@<TRIPOS>MOLECULE
1e2p_CCV_A_1.pdb
 15 15 0 0 0
SMALL
GASTEIGER

@<TRIPOS>ATOM
      1  N1        46.0660   33.0830   -0.5230 N.2   500  CCV500     -0.3157
      2  O1        44.7750   31.4630   -1.3410 O.2   500  CCV500     -0.1745
      3  O2        43.0950   34.1490    1.8060 O.2   500  CCV500     -0.2130
      4  N2        43.8800   32.7680    0.2280 N.2   500  CCV500     -0.2366
      5  C1        44.9070   32.4030   -0.5730 C.1   500  CCV500      0.3646
      6  C2        44.0110   33.8040    1.0780 C.1   500  CCV500      0.1988
      7  C3        45.3020   34.5320    1.1180 C.3   500  CCV500      0.1678
      8  C4        45.4210   35.6930    2.0870 C.3   500  CCV500      0.0261
      9  C5        46.2960   34.1380    0.3050 C.2   500  CCV500      0.1184
     10  C11       47.6820   34.7910    0.2510 C.3   500  CCV500      0.0619
     11  C12       48.9200   33.8750    0.5630 C.3   500  CCV500      0.0727
     12  C13       49.8500   34.5360    1.6200 C.3   500  CCV500      0.1851
     13  C14       49.6990   33.4840   -0.7130 C.3   500  CCV500      0.1851
     14  O3        50.1640   35.9120    1.3370 O.3   500  CCV500     -0.2203
     15  O4        48.8350   33.0130   -1.7690 O.3   500  CCV500     -0.2203
@<TRIPOS>BOND
     1    15    13    1
     2     2     5    2
     3    13    11    1
     4     5     1    2
     5     5     4    2
     6     1     9    2
     7     4     6    2
     8    10     9    1
     9    10    11    1
    10     9     7    1
    11    11    12    1
    12     6     7    1
    13     6     3    2
    14     7     8    1
    15    14    12    1
