@<TRIPOS>MOLECULE
1e2q_ATP_A_1.pdb
 31 33 0 0 0
SMALL
GASTEIGER

@<TRIPOS>ATOM
      1  PG        10.8560   70.7200   29.8770 P.3   302  ATP302      0.5373
      2  O1G       12.1210   70.6340   30.6860 O.3   302  ATP302     -0.1143
      3  O2G       10.2430   72.0530   29.9630 O.3   302  ATP302     -0.1143
      4  O3G       11.1560   70.0560   28.5720 O.2   302  ATP302     -0.2221
      5  PB         8.2870   69.3470   30.2290 P.3   302  ATP302      0.2277
      6  O1B        8.5700   68.7080   28.9360 O.2   302  ATP302     -0.5168
      7  O2B        7.2220   70.3640   30.2690 O.3   302  ATP302     -0.4368
      8  O3B        9.7390   69.9100   30.7290 O.3   302  ATP302     -0.2258
      9  PA         8.0850   66.6520   31.3610 P.3   302  ATP302      0.2189
     10  O1A        6.9530   66.0670   30.6020 O.2   302  ATP302     -0.5170
     11  O2A        9.4390   66.2020   30.9600 O.3   302  ATP302     -0.4371
     12  O3A        7.9490   68.2470   31.3230 O.3   302  ATP302     -0.2700
     13  O5'        7.8840   66.3530   32.8660 O.3   302  ATP302     -0.3112
     14  C5'        8.8890   66.8010   33.8600 C.3   302  ATP302      0.1813
     15  C4'        8.8460   65.9440   34.9980 C.3   302  ATP302      0.1821
     16  O4'        7.6250   65.9670   35.7210 O.3   302  ATP302     -0.3135
     17  C3'        9.0750   64.4850   34.5850 C.3   302  ATP302      0.2184
     18  O3'        9.8310   63.7620   35.5870 O.3   302  ATP302     -0.2174
     19  C2'        7.6750   63.8830   34.5970 C.3   302  ATP302      0.2570
     20  O2'        7.4860   62.5000   34.8450 O.3   302  ATP302     -0.2130
     21  C1'        7.0160   64.6540   35.7820 C.3   302  ATP302      0.3186
     22  N9         5.5980   64.9370   35.4400 N.pl3 302  ATP302     -0.1439
     23  C8         5.0300   65.1600   34.1780 C.3   302  ATP302      0.3377
     24  N7         3.7380   65.3370   34.3700 N.2   302  ATP302     -0.2095
     25  C5         3.4420   65.2180   35.7000 C.2   302  ATP302      0.2526
     26  C6         2.2510   65.2970   36.4350 C.2   302  ATP302      0.4393
     27  N6         1.0700   65.5090   35.8490 N.pl3 302  ATP302      0.2180
     28  N1         2.4630   65.1240   37.7320 N.2   302  ATP302      0.0021
     29  C2         3.6390   64.9190   38.3640 C.3   302  ATP302      0.5254
     30  N3         4.7920   64.8390   37.6950 N.2   302  ATP302     -0.0055
     31  C4         4.5960   64.9890   36.4340 C.2   302  ATP302      0.3518
@<TRIPOS>BOND
     1     4     1    2
     2     6     5    2
     3     1     3    1
     4     1     2    1
     5     1     8    1
     6     5     7    1
     7     5     8    1
     8     5    12    1
     9    10     9    2
    10    11     9    1
    11    12     9    1
    12     9    13    1
    13    13    14    1
    14    14    15    1
    15    23    24    1
    16    23    22    1
    17    24    25    2
    18    17    19    1
    19    17    15    1
    20    17    18    1
    21    19    20    1
    22    19    21    1
    23    15    16    1
    24    22    21    1
    25    22    31    1
    26    25    31    1
    27    25    26    1
    28    16    21    1
    29    27    26    1
    30    31    30    2
    31    26    28    2
    32    30    29    1
    33    28    29    1
