@<TRIPOS>MOLECULE
1e2q_TMP_A_1.pdb
 21 22 0 0 0
SMALL
GASTEIGER

@<TRIPOS>ATOM
      1  P         12.6100   71.9260   26.5260 P.3   301  TMP301      0.5327
      2  O1P       12.2250   72.2680   27.9530 O.3   301  TMP301     -0.1145
      3  O2P       11.5420   71.6780   25.5560 O.2   301  TMP301     -0.2224
      4  O3P       13.7620   70.8160   26.6390 O.3   301  TMP301     -0.1145
      5  O5'       13.3990   73.1890   25.9420 O.3   301  TMP301     -0.2675
      6  C5'       14.7610   73.5770   26.2720 C.3   301  TMP301      0.1858
      7  C4'       14.6710   75.1260   26.2630 C.3   301  TMP301      0.1774
      8  O4'       14.5720   75.8810   25.0660 O.3   301  TMP301     -0.3339
      9  C3'       13.5600   75.5600   27.2040 C.3   301  TMP301      0.1857
     10  O3'       14.0960   76.2980   28.2980 O.3   301  TMP301     -0.2203
     11  C2'       12.7060   76.4980   26.3330 C.3   301  TMP301      0.0874
     12  C1'       13.7090   76.9670   25.2600 C.3   301  TMP301      0.2090
     13  N1        13.2850   77.4780   23.9700 N.am  301  TMP301     -0.1794
     14  C2        13.7100   78.7790   23.5900 C.1   301  TMP301      0.2844
     15  O2        14.3630   79.5450   24.3110 O.2   301  TMP301     -0.1918
     16  N3        13.2640   79.1430   22.3610 N.2   301  TMP301     -0.2455
     17  C4        12.5260   78.3110   21.5280 C.1   301  TMP301      0.2134
     18  O4        12.1530   78.7720   20.2960 O.2   301  TMP301     -0.2088
     19  C5        12.1480   76.9520   21.9730 C.2   301  TMP301      0.0891
     20  C5M       11.3400   76.0810   21.0520 C.3   301  TMP301      0.0462
     21  C6        12.5870   76.6150   23.2180 C.2   301  TMP301      0.0877
@<TRIPOS>BOND
     1    18    17    2
     2    20    19    1
     3    17    19    1
     4    17    16    2
     5    19    21    2
     6    16    14    2
     7    21    13    1
     8    14    13   am
     9    14    15    2
    10    13    12    1
    11     8    12    1
    12     8     7    1
    13    12    11    1
    14     3     1    2
    15     5     6    1
    16     5     1    1
    17     7     6    1
    18     7     9    1
    19    11     9    1
    20     1     4    1
    21     1     2    1
    22     9    10    1
