@<TRIPOS>MOLECULE
1e2r_DHE_A_1.pdb
 49 56 0 0 0
SMALL
GASTEIGER

@<TRIPOS>ATOM
      1 FE         14.9830    3.1290   36.1650 Fe    602  DHE602      0.0000
      2  CHA       11.6230    2.8040   35.8590 C.2   602  DHE602      0.0000
      3  CHB       14.6790    3.6760   39.5060 C.2   602  DHE602      0.0000
      4  CHC       18.2770    2.5660   36.4780 C.2   602  DHE602      0.0000
      5  CHD       15.3170    3.5420   32.8120 C.2   602  DHE602      0.0000
      6  NA        13.3940    3.2120   37.4840 N.2   602  DHE602      0.0000
      7  C1A       12.0680    3.0870   37.1380 C.2   602  DHE602      0.0000
      8  C2A       11.2900    3.3000   38.3100 C.2   602  DHE602      0.0000
      9  C3A       12.1510    3.5050   39.3570 C.2   602  DHE602      0.0000
     10  C4A       13.4780    3.4820   38.8300 C.2   602  DHE602      0.0000
     11  CMA       11.8170    3.6850   40.8010 C.3   602  DHE602      0.0000
     12  CAA        9.7910    3.2960   38.3510 C.3   602  DHE602      0.0000
     13  CBA        9.2350    4.5480   37.8580 C.3   602  DHE602      0.0000
     14  CGA        7.7840    4.7360   37.8310 C.2   602  DHE602      0.0000
     15  O1A        7.0300    3.8930   38.3740 O.co2 602  DHE602      0.0000
     16  O2A        7.3470    5.7640   37.2590 O.co2 602  DHE602      0.0000
     17  NB        16.3160    3.1630   37.7400 N.pl3 602  DHE602      0.0000
     18  C1B       15.9360    3.3770   39.0370 C.2   602  DHE602      0.0000
     19  C2B       17.1130    3.2370   39.9200 C.2   602  DHE602      0.0000
     20  OMB       17.1770    3.5020   41.0960 O.2   602  DHE602      0.0000
     21  C3B       18.2340    2.6680   39.0720 C.2   602  DHE602      0.0000
     22  CGB       18.3290    1.1060   39.4560 C.3   602  DHE602      0.0000
     23  CAB       19.5490    3.3210   39.3070 C.3   602  DHE602      0.0000
     24  CBB       19.7490    4.6530   38.7170 C.2   602  DHE602      0.0000
     25  O1B       20.9120    4.9760   38.3590 O.co2 602  DHE602      0.0000
     26  O2B       18.7690    5.4190   38.5950 O.co2 602  DHE602      0.0000
     27  C4B       17.6200    2.8010   37.6670 C.2   602  DHE602      0.0000
     28  NC        16.5420    3.0240   34.8230 N.2   602  DHE602      0.0000
     29  C1C       17.8430    2.7950   35.1930 C.2   602  DHE602      0.0000
     30  C2C       18.6960    2.7500   34.0070 C.2   602  DHE602      0.0000
     31  OMC       19.8450    2.3530   33.9010 O.2   602  DHE602      0.0000
     32  C3C       17.8560    3.2940   32.8560 C.2   602  DHE602      0.0000
     33  CGC       18.0100    2.0020   31.9090 C.3   602  DHE602      0.0000
     34  CAC       18.2450    4.5380   32.1980 C.3   602  DHE602      0.0000
     35  CBC       18.4870    5.6690   33.1290 C.2   602  DHE602      0.0000
     36  O1C       18.3630    6.8450   32.7370 O.co2 602  DHE602      0.0000
     37  O2C       18.8330    5.4130   34.2890 O.co2 602  DHE602      0.0000
     38  C4C       16.4740    3.2730   33.4960 C.2   602  DHE602      0.0000
     39  ND        13.6760    3.0660   34.5750 N.ar  602  DHE602      0.0000
     40  C1D       14.0270    3.2080   33.2480 C.ar  602  DHE602      0.0000
     41  C2D       12.8440    2.9940   32.4670 C.ar  602  DHE602      0.0000
     42  C3D       11.8170    2.6950   33.3470 C.ar  602  DHE602      0.0000
     43  C4D       12.3230    2.8480   34.6610 C.ar  602  DHE602      0.0000
     44  CMD       12.8020    3.1120   30.9690 C.3   602  DHE602      0.0000
     45  CAD       10.4340    2.3050   33.0460 C.2   602  DHE602      0.0000
     46  CBD        9.9920    1.6760   32.0150 C.2   602  DHE602      0.0000
     47  CGD        8.5950    1.2800   31.8120 C.2   602  DHE602      0.0000
     48  O1D        8.2830    0.7310   30.7420 O.co2 602  DHE602      0.0000
     49  O2D        7.7700    1.5040   32.7340 O.co2 602  DHE602      0.0000
@<TRIPOS>BOND
     1    48    47   ar
     2    44    41    1
     3    47    46    1
     4    47    49   ar
     5    33    32    1
     6    46    45    2
     7    34    32    1
     8    34    35    1
     9    41    40   ar
    10    41    42   ar
    11    36    35   ar
    12     5    40    2
    13     5    38    1
    14    32    38    1
    15    32    30    2
    16    45    42    1
    17    35    37   ar
    18    40    39   ar
    19    42    43   ar
    20    38    28    2
    21    31    30    1
    22    30    29    1
    23    39    43   ar
    24    39     1    1
    25    43     2    2
    26    28    29    1
    27    28     1    1
    28    29     4    2
    29     2     7    1
    30     1     6    1
    31     1    17    1
    32     4    27    1
    33     7     6    2
    34     7     8    1
    35    16    14   ar
    36     6    10    1
    37    27    17    1
    38    27    21    2
    39    17    18    1
    40    14    13    1
    41    14    15   ar
    42    13    12    1
    43     8    12    1
    44     8     9    2
    45    25    24   ar
    46    26    24   ar
    47    24    23    1
    48    10     9    1
    49    10     3    2
    50    18     3    1
    51    18    19    2
    52    21    23    1
    53    21    22    1
    54    21    19    1
    55     9    11    1
    56    19    20    1
