@<TRIPOS>MOLECULE
1e2r_HEC_A_1.pdb
 43 50 0 0 0
SMALL
GASTEIGER

@<TRIPOS>ATOM
      1 FE         31.7340    3.1850   47.4420 Fe    601  HEC601      0.0000
      2  CHA       32.6440    0.3020   48.9780 C.2   601  HEC601      0.0000
      3  CHB       33.5800    4.9680   49.6320 C.2   601  HEC601      0.0000
      4  CHC       31.0990    5.9830   45.6560 C.2   601  HEC601      0.0000
      5  CHD       29.6960    1.4070   45.3610 C.2   601  HEC601      0.0000
      6  NA        32.8950    2.7270   48.9550 N.2   601  HEC601      0.0000
      7  C1A       33.1820    1.4790   49.4650 C.2   601  HEC601      0.0000
      8  C2A       34.0790    1.5720   50.5970 C.2   601  HEC601      0.0000
      9  C3A       34.3580    2.8710   50.7720 C.2   601  HEC601      0.0000
     10  C4A       33.6000    3.5950   49.7730 C.2   601  HEC601      0.0000
     11  CMA       35.3040    3.4280   51.8270 C.3   601  HEC601      0.0000
     12  CAA       34.5560    0.4410   51.4950 C.3   601  HEC601      0.0000
     13  CBA       33.4320   -0.0830   52.3810 C.3   601  HEC601      0.0000
     14  CGA       33.7960   -1.3680   53.0990 C.2   601  HEC601      0.0000
     15  O1A       33.2350   -1.6190   54.1860 O.co2 601  HEC601      0.0000
     16  O2A       34.6300   -2.1340   52.5740 O.co2 601  HEC601      0.0000
     17  NB        32.1990    5.0700   47.6210 N.ar  601  HEC601      0.0000
     18  C1B       32.9250    5.6670   48.6380 C.ar  601  HEC601      0.0000
     19  C2B       33.0310    7.0940   48.4440 C.ar  601  HEC601      0.0000
     20  C3B       32.4070    7.3690   47.2790 C.ar  601  HEC601      0.0000
     21  C4B       31.8750    6.1110   46.7840 C.ar  601  HEC601      0.0000
     22  CMB       33.6620    8.1060   49.3940 C.3   601  HEC601      0.0000
     23  CAB       32.2490    8.7520   46.6410 C.3   601  HEC601      0.0000
     24  CBB       33.5510    9.3880   46.1610 C.3   601  HEC601      0.0000
     25  NC        30.6530    3.5940   45.8350 N.2   601  HEC601      0.0000
     26  C1C       30.5010    4.8210   45.2190 C.2   601  HEC601      0.0000
     27  C2C       29.5670    4.7480   44.1150 C.2   601  HEC601      0.0000
     28  C3C       29.1140    3.4800   44.0680 C.2   601  HEC601      0.0000
     29  C4C       29.8180    2.7570   45.1160 C.2   601  HEC601      0.0000
     30  CMC       29.1450    5.8680   43.1730 C.3   601  HEC601      0.0000
     31  CAC       27.9990    2.9670   43.1500 C.3   601  HEC601      0.0000
     32  CBC       28.3720    2.8960   41.6730 C.3   601  HEC601      0.0000
     33  ND        31.2530    1.2670   47.2330 N.ar  601  HEC601      0.0000
     34  C1D       30.3640    0.6980   46.3370 C.ar  601  HEC601      0.0000
     35  C2D       30.3280   -0.7490   46.4620 C.ar  601  HEC601      0.0000
     36  C3D       31.1620   -1.0570   47.4730 C.ar  601  HEC601      0.0000
     37  C4D       31.7340    0.1870   47.9460 C.ar  601  HEC601      0.0000
     38  CMD       29.4370   -1.7400   45.7040 C.3   601  HEC601      0.0000
     39  CAD       31.6070   -2.4640   47.8570 C.3   601  HEC601      0.0000
     40  CBD       32.5330   -3.0680   46.8020 C.3   601  HEC601      0.0000
     41  CGD       33.1220   -4.4170   47.2080 C.2   601  HEC601      0.0000
     42  O1D       32.4750   -5.1650   47.9690 O.co2 601  HEC601      0.0000
     43  O2D       34.2360   -4.7460   46.7450 O.co2 601  HEC601      0.0000
@<TRIPOS>BOND
     1    32    31    1
     2    31    28    1
     3    30    27    1
     4    28    27    2
     5    28    29    1
     6    27    26    1
     7    29     5    1
     8    29    25    2
     9    26     4    2
    10    26    25    1
    11     5    34    2
    12     4    21    1
    13    38    35    1
    14    25     1    1
    15    24    23    1
    16    34    35   ar
    17    34    33   ar
    18    35    36   ar
    19    23    20    1
    20    43    41   ar
    21    21    20   ar
    22    21    17   ar
    23    40    41    1
    24    40    39    1
    25    41    42   ar
    26    33     1    1
    27    33    37   ar
    28    20    19   ar
    29     1    17    1
    30     1     6    1
    31    36    39    1
    32    36    37   ar
    33    17    18   ar
    34    37     2    2
    35    19    18   ar
    36    19    22    1
    37    18     3    1
    38     6     7    2
    39     6    10    1
    40     2     7    1
    41     7     8    1
    42     3    10    2
    43    10     9    1
    44     8     9    2
    45     8    12    1
    46     9    11    1
    47    12    13    1
    48    13    14    1
    49    16    14   ar
    50    14    15   ar
