@<TRIPOS>MOLECULE
1e2s_CSN_P_1.pdb
 15 15 0 0 0
SMALL
GASTEIGER

@<TRIPOS>ATOM
      1  S1        21.9790   34.1130  -21.0110 S.3   701  CSN701      0.0426
      2  O4        22.3600   32.5260  -21.0510 O.3   701  CSN701     -0.3559
      3  O3        20.7820   34.3680  -20.1590 O.3   701  CSN701     -0.2589
      4  O2        21.8760   34.4880  -22.4140 O.2   701  CSN701     -0.3360
      5  O1        23.1530   34.5990  -20.3020 O.2   701  CSN701     -0.3360
      6  O7        19.9030   33.2370  -21.7420 O.3   701  CSN701     -0.2832
      7  O6        20.7320   26.8830  -21.0130 O.2   701  CSN701     -0.1261
      8  O5        22.6070   27.9030  -20.6360 O.2   701  CSN701     -0.1261
      9  C6        21.8140   30.2260  -21.0170 C.ar  701  CSN701      0.0672
     10  N1        21.3900   27.9090  -20.9330 N.pl3 701  CSN701      0.0578
     11  C3        19.2290   30.9080  -21.7280 C.ar  701  CSN701      0.0470
     12  C1        21.4340   31.5310  -21.2050 C.ar  701  CSN701      0.2117
     13  C4        19.5840   29.5760  -21.5520 C.ar  701  CSN701      0.0276
     14  C2        20.1310   31.9700  -21.5740 C.ar  701  CSN701      0.2322
     15  C5        20.8700   29.2260  -21.1910 C.ar  701  CSN701      0.1462
@<TRIPOS>BOND
     1     4     1    2
     2     6    14    1
     3    11    14   ar
     4    11    13   ar
     5    14    12   ar
     6    13    15   ar
     7    12     2    1
     8    12     9   ar
     9    15     9   ar
    10    15    10    1
    11     2     1    1
    12     7    10    2
    13     1     5    2
    14     1     3    1
    15    10     8    2
