@<TRIPOS>MOLECULE
1e2v_HEC_A_1.pdb
 43 50 0 0 0
SMALL
GASTEIGER

@<TRIPOS>ATOM
      1 FE         19.9950   44.8690   55.2230 Fe    900  HEC900      0.0000
      2  CHA       19.6420   46.3120   52.2070 C.2   900  HEC900      0.0000
      3  CHB       23.3100   44.8510   54.8630 C.2   900  HEC900      0.0000
      4  CHC       20.3510   43.8000   58.4270 C.2   900  HEC900      0.0000
      5  CHD       16.6620   44.5570   55.5080 C.2   900  HEC900      0.0000
      6  NA        21.2250   45.4610   53.8020 N.ar  900  HEC900      0.0000
      7  C1A       20.9240   46.1050   52.6370 C.ar  900  HEC900      0.0000
      8  C2A       22.1140   46.4760   51.8790 C.ar  900  HEC900      0.0000
      9  C3A       23.1650   46.0000   52.6120 C.ar  900  HEC900      0.0000
     10  C4A       22.5800   45.3700   53.7990 C.ar  900  HEC900      0.0000
     11  CMA       24.6630   46.1230   52.3150 C.3   900  HEC900      0.0000
     12  CAA       22.1010   47.1780   50.5140 C.3   900  HEC900      0.0000
     13  CBA       22.1020   46.1050   49.4340 C.3   900  HEC900      0.0000
     14  CGA       21.9900   46.6650   48.0210 C.2   900  HEC900      0.0000
     15  O1A       22.2940   45.9140   47.0720 O.co2 900  HEC900      0.0000
     16  O2A       21.5930   47.8400   47.8590 O.co2 900  HEC900      0.0000
     17  NB        21.5230   44.4080   56.4150 N.2   900  HEC900      0.0000
     18  C1B       22.8480   44.4040   56.0760 C.2   900  HEC900      0.0000
     19  C2B       23.6960   43.8990   57.1840 C.2   900  HEC900      0.0000
     20  C3B       22.8420   43.5950   58.2030 C.2   900  HEC900      0.0000
     21  C4B       21.5050   43.9500   57.7080 C.2   900  HEC900      0.0000
     22  CMB       25.2250   43.7490   57.1760 C.3   900  HEC900      0.0000
     23  CAB       23.1460   42.9740   59.4320 C.3   900  HEC900      0.0000
     24  CBB       24.1450   43.6740   60.3400 C.3   900  HEC900      0.0000
     25  NC        18.7570   44.3650   56.6840 N.ar  900  HEC900      0.0000
     26  C1C       19.0730   43.9970   57.9760 C.ar  900  HEC900      0.0000
     27  C2C       17.8940   43.7530   58.7770 C.ar  900  HEC900      0.0000
     28  C3C       16.8250   43.9360   57.9670 C.ar  900  HEC900      0.0000
     29  C4C       17.3920   44.3180   56.6530 C.ar  900  HEC900      0.0000
     30  CMC       17.8630   43.3690   60.2500 C.3   900  HEC900      0.0000
     31  CAC       15.4650   43.6960   58.2880 C.3   900  HEC900      0.0000
     32  CBC       14.8350   44.4200   59.4740 C.3   900  HEC900      0.0000
     33  ND        18.4680   45.3040   54.0790 N.2   900  HEC900      0.0000
     34  C1D       17.1510   45.0310   54.3080 C.2   900  HEC900      0.0000
     35  C2D       16.3270   45.4500   53.1800 C.2   900  HEC900      0.0000
     36  C3D       17.1620   46.0430   52.2960 C.2   900  HEC900      0.0000
     37  C4D       18.4910   45.9260   52.8680 C.2   900  HEC900      0.0000
     38  CMD       14.8420   45.1810   52.9690 C.3   900  HEC900      0.0000
     39  CAD       16.8090   46.6240   50.9380 C.3   900  HEC900      0.0000
     40  CBD       16.4390   48.1030   50.9270 C.3   900  HEC900      0.0000
     41  CGD       16.1060   48.5970   49.5290 C.2   900  HEC900      0.0000
     42  O1D       17.0310   48.7740   48.7070 O.co2 900  HEC900      0.0000
     43  O2D       14.9140   48.7880   49.2500 O.co2 900  HEC900      0.0000
@<TRIPOS>BOND
     1    15    14   ar
     2    16    14   ar
     3    14    13    1
     4    42    41   ar
     5    43    41   ar
     6    13    12    1
     7    41    40    1
     8    12     8    1
     9    40    39    1
    10    39    36    1
    11     8     9   ar
    12     8     7   ar
    13     2     7    2
    14     2    37    1
    15    36    37    1
    16    36    35    2
    17    11     9    1
    18     9    10   ar
    19     7     6   ar
    20    37    33    2
    21    38    35    1
    22    35    34    1
    23    10     6   ar
    24    10     3    2
    25     6     1    1
    26    33    34    1
    27    33     1    1
    28    34     5    2
    29     3    18    1
    30     1    17    1
    31     1    25    1
    32     5    29    1
    33    18    17    2
    34    18    19    1
    35    17    21    1
    36    29    25   ar
    37    29    28   ar
    38    25    26   ar
    39    22    19    1
    40    19    20    2
    41    21    20    1
    42    21     4    2
    43    28    31    1
    44    28    27   ar
    45    26     4    1
    46    26    27   ar
    47    20    23    1
    48    31    32    1
    49    27    30    1
    50    23    24    1
