@<TRIPOS>MOLECULE
1e2w_HEC_A_1.pdb
 43 50 0 0 0
SMALL
GASTEIGER

@<TRIPOS>ATOM
      1 FE         13.9390    4.1950   14.1320 Fe    900  HEC900      0.0000
      2  CHA       14.1370    4.8870   17.4300 C.2   900  HEC900      0.0000
      3  CHB       14.3090    0.8760   14.7850 C.2   900  HEC900      0.0000
      4  CHC       13.2840    3.4580   10.8790 C.2   900  HEC900      0.0000
      5  CHD       13.9510    7.4910   13.4010 C.2   900  HEC900      0.0000
      6  NA        14.1530    3.1130   15.7620 N.2   900  HEC900      0.0000
      7  C1A       14.1660    3.5500   17.0690 C.2   900  HEC900      0.0000
      8  C2A       14.2780    2.4460   18.0000 C.2   900  HEC900      0.0000
      9  C3A       14.3730    1.3010   17.2320 C.2   900  HEC900      0.0000
     10  C4A       14.3020    1.7330   15.8580 C.2   900  HEC900      0.0000
     11  CMA       14.5880   -0.1290   17.7490 C.3   900  HEC900      0.0000
     12  CAA       14.4180    2.5530   19.5060 C.3   900  HEC900      0.0000
     13  CBA       15.9030    2.5320   19.8740 C.3   900  HEC900      0.0000
     14  CGA       16.1570    2.7850   21.3490 C.2   900  HEC900      0.0000
     15  O1A       17.3040    2.5680   21.7960 O.co2 900  HEC900      0.0000
     16  O2A       15.2200    3.2050   22.0630 O.co2 900  HEC900      0.0000
     17  NB        13.8080    2.5290   13.0700 N.ar  900  HEC900      0.0000
     18  C1B       14.0830    1.2480   13.4850 C.ar  900  HEC900      0.0000
     19  C2B       14.0270    0.3220   12.3750 C.ar  900  HEC900      0.0000
     20  C3B       13.6680    1.0250   11.2730 C.ar  900  HEC900      0.0000
     21  C4B       13.5380    2.4000   11.7240 C.ar  900  HEC900      0.0000
     22  CMB       14.3740   -1.1730   12.4170 C.3   900  HEC900      0.0000
     23  CAB       13.5290    0.5510    9.9620 C.3   900  HEC900      0.0000
     24  CBB       12.4780   -0.5360    9.7370 C.3   900  HEC900      0.0000
     25  NC        13.6110    5.2490   12.4960 N.2   900  HEC900      0.0000
     26  C1C       13.3000    4.7890   11.2430 C.2   900  HEC900      0.0000
     27  C2C       13.0850    5.8790   10.3170 C.2   900  HEC900      0.0000
     28  C3C       13.3000    7.0440   11.0060 C.2   900  HEC900      0.0000
     29  C4C       13.6400    6.6240   12.3670 C.2   900  HEC900      0.0000
     30  CMC       12.7600    5.7380    8.8340 C.3   900  HEC900      0.0000
     31  CAC       13.2960    8.3650   10.4950 C.3   900  HEC900      0.0000
     32  CBC       11.9550    8.8150    9.8870 C.3   900  HEC900      0.0000
     33  ND        14.0730    5.8430   15.2000 N.ar  900  HEC900      0.0000
     34  C1D       14.1380    7.1400   14.7220 C.ar  900  HEC900      0.0000
     35  C2D       14.2720    8.0840   15.7890 C.ar  900  HEC900      0.0000
     36  C3D       14.2190    7.3650   16.9310 C.ar  900  HEC900      0.0000
     37  C4D       14.1040    5.9580   16.5530 C.ar  900  HEC900      0.0000
     38  CMD       14.4800    9.5990   15.6490 C.3   900  HEC900      0.0000
     39  CAD       14.3030    7.9390   18.3330 C.3   900  HEC900      0.0000
     40  CBD       12.9750    8.1260   19.0480 C.3   900  HEC900      0.0000
     41  CGD       13.1450    8.8040   20.3950 C.2   900  HEC900      0.0000
     42  O1D       13.3460   10.0320   20.4260 O.co2 900  HEC900      0.0000
     43  O2D       13.0940    8.1100   21.4260 O.co2 900  HEC900      0.0000
@<TRIPOS>BOND
     1    30    27    1
     2    24    23    1
     3    32    31    1
     4    23    20    1
     5    27    28    2
     6    27    26    1
     7    31    28    1
     8     4    26    2
     9     4    21    1
    10    28    29    1
    11    26    25    1
    12    20    21   ar
    13    20    19   ar
    14    21    17   ar
    15    29    25    2
    16    29     5    1
    17    19    22    1
    18    19    18   ar
    19    25     1    1
    20    17    18   ar
    21    17     1    1
    22     5    34    2
    23    18     3    1
    24     1    33    1
    25     1     6    1
    26    34    33   ar
    27    34    35   ar
    28     3    10    2
    29    33    37   ar
    30    38    35    1
    31     6    10    1
    32     6     7    2
    33    35    36   ar
    34    10     9    1
    35    37    36   ar
    36    37     2    2
    37    36    39    1
    38     7     2    1
    39     7     8    1
    40     9    11    1
    41     9     8    2
    42     8    12    1
    43    39    40    1
    44    40    41    1
    45    12    13    1
    46    13    14    1
    47    41    42   ar
    48    41    43   ar
    49    14    15   ar
    50    14    16   ar
