@<TRIPOS>MOLECULE
1e2z_HEC_A_1.pdb
 43 50 0 0 0
SMALL
GASTEIGER

@<TRIPOS>ATOM
      1 FE         18.8850   45.5580   55.8310 Fe    900  HEC900      0.0000
      2  CHA       18.5040   46.9970   52.8050 C.2   900  HEC900      0.0000
      3  CHB       22.1920   45.4100   55.4470 C.2   900  HEC900      0.0000
      4  CHC       19.2140   44.3430   58.9650 C.2   900  HEC900      0.0000
      5  CHD       15.5370   45.3700   56.1100 C.2   900  HEC900      0.0000
      6  NA        20.0920   46.1260   54.4610 N.ar  900  HEC900      0.0000
      7  C1A       19.7940   46.7890   53.2910 C.ar  900  HEC900      0.0000
      8  C2A       20.9760   47.1040   52.5230 C.ar  900  HEC900      0.0000
      9  C3A       22.0110   46.5880   53.2400 C.ar  900  HEC900      0.0000
     10  C4A       21.4250   45.9920   54.4530 C.ar  900  HEC900      0.0000
     11  CMA       23.4990   46.4660   52.7830 C.3   900  HEC900      0.0000
     12  CAA       21.0250   47.7950   51.1640 C.3   900  HEC900      0.0000
     13  CBA       21.4530   46.8630   50.0440 C.3   900  HEC900      0.0000
     14  CGA       21.1690   47.4400   48.6640 C.2   900  HEC900      0.0000
     15  O1A       21.3930   46.7220   47.6630 O.co2 900  HEC900      0.0000
     16  O2A       20.7210   48.6130   48.5840 O.co2 900  HEC900      0.0000
     17  NB        20.3910   44.9740   56.9610 N.2   900  HEC900      0.0000
     18  C1B       21.7270   44.9360   56.6210 C.2   900  HEC900      0.0000
     19  C2B       22.5680   44.3730   57.7130 C.2   900  HEC900      0.0000
     20  C3B       21.6990   44.1400   58.7660 C.2   900  HEC900      0.0000
     21  C4B       20.3620   44.4670   58.2560 C.2   900  HEC900      0.0000
     22  CMB       24.0350   43.9170   57.6680 C.3   900  HEC900      0.0000
     23  CAB       22.0580   43.5660   59.9910 C.3   900  HEC900      0.0000
     24  CBB       23.2140   44.2850   60.7530 C.3   900  HEC900      0.0000
     25  NC        17.6460   45.0840   57.2410 N.ar  900  HEC900      0.0000
     26  C1C       17.9400   44.6950   58.5160 C.ar  900  HEC900      0.0000
     27  C2C       16.7210   44.4830   59.2990 C.ar  900  HEC900      0.0000
     28  C3C       15.6650   44.6550   58.4810 C.ar  900  HEC900      0.0000
     29  C4C       16.2620   45.0430   57.2020 C.ar  900  HEC900      0.0000
     30  CMC       16.6770   44.0570   60.7330 C.3   900  HEC900      0.0000
     31  CAC       14.3040   44.4110   58.7880 C.3   900  HEC900      0.0000
     32  CBC       13.6410   45.3220   59.8610 C.3   900  HEC900      0.0000
     33  ND        17.3700   46.0100   54.6580 N.2   900  HEC900      0.0000
     34  C1D       16.0360   45.8320   54.9200 C.2   900  HEC900      0.0000
     35  C2D       15.1850   46.2690   53.8040 C.2   900  HEC900      0.0000
     36  C3D       16.0430   46.7560   52.8700 C.2   900  HEC900      0.0000
     37  C4D       17.3780   46.5950   53.4210 C.2   900  HEC900      0.0000
     38  CMD       13.6640   46.1620   53.7120 C.3   900  HEC900      0.0000
     39  CAD       15.6610   47.4990   51.6110 C.3   900  HEC900      0.0000
     40  CBD       15.4210   48.9560   51.9820 C.3   900  HEC900      0.0000
     41  CGD       15.0690   49.8470   50.7860 C.2   900  HEC900      0.0000
     42  O1D       14.6700   51.0060   51.0370 O.co2 900  HEC900      0.0000
     43  O2D       15.1950   49.4170   49.6130 O.co2 900  HEC900      0.0000
@<TRIPOS>BOND
     1    15    14   ar
     2    16    14   ar
     3    14    13    1
     4    43    41   ar
     5    13    12    1
     6    41    42   ar
     7    41    40    1
     8    12     8    1
     9    39    40    1
    10    39    36    1
    11     8     9   ar
    12     8     7   ar
    13    11     9    1
    14     2     7    2
    15     2    37    1
    16    36    37    1
    17    36    35    2
    18     9    10   ar
    19     7     6   ar
    20    37    33    2
    21    38    35    1
    22    35    34    1
    23    10     6   ar
    24    10     3    2
    25     6     1    1
    26    33    34    1
    27    33     1    1
    28    34     5    2
    29     3    18    1
    30     1    17    1
    31     1    25    1
    32     5    29    1
    33    18    17    2
    34    18    19    1
    35    17    21    1
    36    29    25   ar
    37    29    28   ar
    38    25    26   ar
    39    22    19    1
    40    19    20    2
    41    21    20    1
    42    21     4    2
    43    28    31    1
    44    28    27   ar
    45    26     4    1
    46    26    27   ar
    47    20    23    1
    48    31    32    1
    49    27    30    1
    50    23    24    1
