@<TRIPOS>MOLECULE
1e32_ADP_A_1.pdb
 27 29 0 0 0
SMALL
GASTEIGER

@<TRIPOS>ATOM
      1  PB        30.6440   11.9750   16.6570 P.3   800  ADP800      0.5373
      2  O1B       29.9260   12.6700   17.7770 O.3   800  ADP800     -0.1143
      3  O2B       30.3310   12.3990   15.2680 O.2   800  ADP800     -0.2221
      4  O3B       30.4140   10.3470   16.8000 O.3   800  ADP800     -0.1143
      5  PA        33.0280   11.7440   18.3420 P.3   800  ADP800      0.2231
      6  O1A       33.8900   12.9070   18.5620 O.2   800  ADP800     -0.5169
      7  O2A       32.1690   11.2780   19.4550 O.3   800  ADP800     -0.4370
      8  O3A       32.1680   12.0590   17.0180 O.3   800  ADP800     -0.2261
      9  O5'       33.8140   10.4850   17.8560 O.3   800  ADP800     -0.3111
     10  C5'       34.8390   10.4890   16.8770 C.3   800  ADP800      0.1813
     11  C4'       36.1440    9.9720   17.4610 C.3   800  ADP800      0.1821
     12  O4'       36.6430   10.1250   16.0570 O.3   800  ADP800     -0.3135
     13  C3'       36.6910   11.1690   18.1800 C.3   800  ADP800      0.2184
     14  O3'       36.8230   10.9020   19.5930 O.3   800  ADP800     -0.2174
     15  C2'       38.0890   11.3970   17.4960 C.3   800  ADP800      0.2570
     16  O2'       39.0910   10.5230   18.1010 O.3   800  ADP800     -0.2130
     17  C1'       37.8130   10.9820   16.0290 C.3   800  ADP800      0.3186
     18  N9        37.4840   12.1940   15.1500 N.pl3 800  ADP800     -0.1439
     19  C8        36.3350   12.4430   14.5380 C.3   800  ADP800      0.3377
     20  N7        36.3370   13.5300   13.8770 N.2   800  ADP800     -0.2095
     21  C5        37.5980   14.0630   14.0700 C.2   800  ADP800      0.2526
     22  C6        38.2730   15.2540   13.6070 C.2   800  ADP800      0.4393
     23  N6        37.6590   16.1950   12.8080 N.pl3 800  ADP800      0.2180
     24  N1        39.5640   15.4480   14.0110 N.2   800  ADP800      0.0021
     25  C2        40.1560   14.5400   14.7880 C.3   800  ADP800      0.5254
     26  N3        39.6070   13.4040   15.2610 N.2   800  ADP800     -0.0055
     27  C4        38.3340   13.2170   14.8540 C.2   800  ADP800      0.3518
@<TRIPOS>BOND
     1    23    22    1
     2    22    24    2
     3    22    21    1
     4    20    21    2
     5    20    19    1
     6    24    25    1
     7    21    27    1
     8    19    18    1
     9    25    26    1
    10    27    18    1
    11    27    26    2
    12    18    17    1
    13     3     1    2
    14    17    12    1
    15    17    15    1
    16    12    11    1
    17     1     4    1
    18     1     8    1
    19     1     2    1
    20    10    11    1
    21    10     9    1
    22     8     5    1
    23    11    13    1
    24    15    16    1
    25    15    13    1
    26     9     5    1
    27    13    14    1
    28     5     6    2
    29     5     7    1
