@<TRIPOS>MOLECULE
1e34_TPX_B_1.pdb
 21 21 0 0 0
SMALL
GASTEIGER

@<TRIPOS>ATOM
      1  C         -9.0360   23.7870   37.6540 C.2   280  TPX280      0.2075
      2  CA       -10.4560   23.2700   37.7690 C.3   280  TPX280      0.0771
      3  CB       -10.6410   22.1640   36.8160 C.3   280  TPX280      0.1300
      4  CC       -12.0150   21.5610   36.8870 C.2   280  TPX280      0.3662
      5  CD       -11.4020   24.4160   37.5870 C.3   280  TPX280      0.0084
      6  CE       -11.0880   25.5130   38.5910 C.3   280  TPX280      0.0005
      7  O         -8.5430   24.4530   36.7620 O.2   280  TPX280     -0.2883
      8  OA       -12.5260   21.1910   35.7980 O.co2 280  TPX280     -0.2456
      9  OB       -12.5550   21.4450   38.0030 O.co2 280  TPX280     -0.2456
     10  CK        -9.6190   21.0950   36.8170 C.3   280  TPX280      0.1271
     11  N         -8.2370   21.4900   36.6760 N.3   280  TPX280     -0.0772
     12  OC        -8.5790   22.2170   34.2940 O.2   280  TPX280     -0.1516
     13  OD        -6.3140   22.0310   35.2180 O.2   280  TPX280     -0.1516
     14  S         -7.6510   21.5780   35.1370 S.O2  280  TPX280      0.0768
     15  CF        -7.5250   19.8540   34.7370 C.ar  280  TPX280      0.1235
     16  CG1       -6.0850   19.6590   34.0230 C.ar  280  TPX280      0.0196
     17  CG2       -8.3460   18.9860   34.4160 C.ar  280  TPX280      0.0196
     18  CH1       -5.7890   18.3930   33.5580 C.ar  280  TPX280     -0.0029
     19  CH2       -8.0500   17.7210   33.9500 C.ar  280  TPX280     -0.0029
     20  CI        -6.7720   17.4220   33.5210 C.ar  280  TPX280     -0.0218
     21  CJ        -6.4510   16.0460   33.0140 C.3   280  TPX280      0.0310
@<TRIPOS>BOND
     1    21    20    1
     2    20    18   ar
     3    20    19   ar
     4    18    16   ar
     5    19    17   ar
     6    16    15   ar
     7    12    14    2
     8    17    15   ar
     9    15    14    1
    10    14    13    2
    11    14    11    1
    12     8     4   ar
    13    11    10    1
    14     7     1    2
    15     3    10    1
    16     3     4    1
    17     3     2    1
    18     4     9   ar
    19     5     2    1
    20     5     6    1
    21     1     2    1
