@<TRIPOS>MOLECULE
1e35_TPX_B_1.pdb
 21 21 0 0 0
SMALL
GASTEIGER

@<TRIPOS>ATOM
      1  C         -8.9690   23.7000   37.7570 C.2   280  TPX280      0.2075
      2  CA       -10.3810   23.1600   37.8340 C.3   280  TPX280      0.0771
      3  CB       -10.5640   22.0920   36.8290 C.3   280  TPX280      0.1299
      4  CC       -11.9380   21.5020   36.9220 C.2   280  TPX280      0.3662
      5  CD       -11.3190   24.3340   37.6150 C.3   280  TPX280      0.0084
      6  CE       -11.0740   25.3710   38.6950 C.3   280  TPX280      0.0005
      7  O         -8.5200   24.2860   36.7710 O.2   280  TPX280     -0.2883
      8  OA       -12.5340   21.3660   38.0100 O.co2 280  TPX280     -0.2456
      9  OB       -12.4710   21.1750   35.8510 O.co2 280  TPX280     -0.2456
     10  CK        -9.5340   21.0300   36.9560 C.3   280  TPX280      0.1267
     11  N         -8.1620   21.4580   36.8240 N.3   280  TPX280     -0.0815
     12  OC        -8.4750   22.1130   34.3920 O.2   280  TPX280     -0.1562
     13  OD        -6.2290   21.8560   35.3990 O.2   280  TPX280     -0.1562
     14  S         -7.5730   21.4560   35.2630 S.O2  280  TPX280      0.0559
     15  CF        -7.5290   19.7090   34.9710 C.3   280  TPX280      0.1518
     16  CG1       -6.2640   19.5380   33.7770 C.3   280  TPX280      0.0299
     17  CG2       -8.4270   18.8270   34.5080 C.3   280  TPX280      0.0506
     18  CH1       -6.0470   18.2950   33.2130 C.3   280  TPX280      0.0235
     19  CH2       -8.2100   17.5850   33.9440 C.2   280  TPX280     -0.0328
     20  CI        -7.0200   17.3180   33.2960 C.2   280  TPX280     -0.0481
     21  CJ        -6.7840   15.9680   32.6830 C.3   280  TPX280      0.0260
@<TRIPOS>BOND
     1    21    20    1
     2    18    20    1
     3    18    16    1
     4    20    19    2
     5    16    15    1
     6    19    17    1
     7    12    14    2
     8    17    15    1
     9    15    14    1
    10    14    13    2
    11    14    11    1
    12     9     4   ar
    13     7     1    2
    14    11    10    1
    15     3     4    1
    16     3    10    1
    17     3     2    1
    18     4     8   ar
    19     5     2    1
    20     5     6    1
    21     1     2    1
