@<TRIPOS>MOLECULE
1e36_TPY_B_1.pdb
 23 23 0 0 0
SMALL
GASTEIGER

@<TRIPOS>ATOM
      1  C         -8.9280   23.7140   37.7350 C.2   280  TPY280      0.2075
      2  CA       -10.3070   23.1220   37.7910 C.3   280  TPY280      0.0771
      3  CB       -10.4580   22.0750   36.7710 C.3   280  TPY280      0.1300
      4  CC       -11.8080   21.4220   36.8900 C.2   280  TPY280      0.3662
      5  CD       -11.2670   24.2820   37.6390 C.3   280  TPY280      0.0084
      6  CE       -10.9780   25.3650   38.6620 C.3   280  TPY280      0.0005
      7  O         -8.4540   24.3760   36.8250 O.2   280  TPY280     -0.2883
      8  OA       -12.3660   21.1010   35.8100 O.co2 280  TPY280     -0.2456
      9  OB       -12.3080   21.2150   38.0150 O.co2 280  TPY280     -0.2456
     10  OC        -8.3830   21.7900   34.1610 O.2   280  TPY280     -0.1516
     11  OD        -6.4100   22.7060   35.1920 O.2   280  TPY280     -0.1516
     12  S         -7.3740   21.6370   35.1350 S.O2  280  TPY280      0.0768
     13  N         -8.0130   21.4140   36.6310 N.3   280  TPY280     -0.0772
     14  CK        -9.4080   21.0090   36.7170 C.3   280  TPY280      0.1271
     15  CF        -6.3620   20.2050   34.9950 C.ar  280  TPY280      0.1237
     16  CG1       -4.9940   20.3980   35.0490 C.ar  280  TPY280      0.0217
     17  CG2       -6.9050   18.9450   34.8850 C.ar  280  TPY280      0.0217
     18  CH1       -4.1350   19.3090   34.9690 C.ar  280  TPY280      0.0254
     19  CH2       -6.0290   17.8730   34.8050 C.ar  280  TPY280      0.0254
     20  CI        -4.6670   18.0340   34.8440 C.ar  280  TPY280      0.1430
     21  NJ        -3.7390   16.8550   34.7640 N.pl3 280  TPY280      0.0577
     22  OE        -2.5240   17.1440   34.8300 O.2   280  TPY280     -0.1261
     23  OF        -4.3100   15.7680   34.6490 O.2   280  TPY280     -0.1261
@<TRIPOS>BOND
     1    10    12    2
     2    23    21    2
     3    21    22    2
     4    21    20    1
     5    19    20   ar
     6    19    17   ar
     7    20    18   ar
     8    17    15   ar
     9    18    16   ar
    10    15    16   ar
    11    15    12    1
    12    12    11    2
    13    12    13    1
    14     8     4   ar
    15    13    14    1
    16    14     3    1
    17     3     4    1
    18     3     2    1
    19     7     1    2
    20     4     9   ar
    21     5     2    1
    22     5     6    1
    23     1     2    1
