@<TRIPOS>MOLECULE
1e37_TPY_B_1.pdb
 23 23 0 0 0
SMALL
GASTEIGER

@<TRIPOS>ATOM
      1  C         -9.1260   24.0010   37.7900 C.2   280  TPY280      0.2075
      2  CA       -10.5040   23.4080   37.8760 C.3   280  TPY280      0.0771
      3  CB       -10.6740   22.3720   36.8460 C.3   280  TPY280      0.1300
      4  CC       -12.0030   21.6850   36.9380 C.2   280  TPY280      0.3662
      5  CD       -11.5030   24.5360   37.8060 C.3   280  TPY280      0.0084
      6  CE       -11.1790   25.6560   38.7850 C.3   280  TPY280      0.0005
      7  O         -8.6600   24.6410   36.8560 O.2   280  TPY280     -0.2883
      8  OA       -12.5620   21.3300   35.8780 O.co2 280  TPY280     -0.2456
      9  OB       -12.4810   21.4910   38.0590 O.co2 280  TPY280     -0.2456
     10  OC        -8.6600   22.0470   34.2340 O.2   280  TPY280     -0.1516
     11  OD        -6.6650   22.9970   35.2010 O.2   280  TPY280     -0.1516
     12  S         -7.6140   21.9140   35.1610 S.O2  280  TPY280      0.0768
     13  N         -8.2560   21.7210   36.6460 N.3   280  TPY280     -0.0772
     14  CK        -9.6280   21.3130   36.8120 C.3   280  TPY280      0.1271
     15  CF        -6.5680   20.5080   35.0480 C.ar  280  TPY280      0.1237
     16  CG1       -5.1970   20.6960   35.0520 C.ar  280  TPY280      0.0217
     17  CG2       -7.1010   19.2320   34.9730 C.ar  280  TPY280      0.0217
     18  CH1       -4.3350   19.6060   34.9720 C.ar  280  TPY280      0.0254
     19  CH2       -6.2150   18.1810   34.9000 C.ar  280  TPY280      0.0254
     20  CI        -4.8500   18.3280   34.8990 C.ar  280  TPY280      0.1430
     21  NJ        -3.9870   17.0990   34.8260 N.pl3 280  TPY280      0.0577
     22  OE        -4.6300   16.0320   34.7510 O.2   280  TPY280     -0.1261
     23  OF        -2.7680   17.3080   34.8480 O.2   280  TPY280     -0.1261
@<TRIPOS>BOND
     1    10    12    2
     2    22    21    2
     3    21    23    2
     4    21    20    1
     5    20    19   ar
     6    20    18   ar
     7    19    17   ar
     8    18    16   ar
     9    17    15   ar
    10    15    16   ar
    11    15    12    1
    12    12    11    2
    13    12    13    1
    14     8     4   ar
    15    13    14    1
    16    14     3    1
    17     3     4    1
    18     3     2    1
    19     7     1    2
    20     4     9   ar
    21     1     2    1
    22     5     2    1
    23     5     6    1
