@<TRIPOS>MOLECULE
1e38_TPY_B_1.pdb
 23 23 0 0 0
SMALL
GASTEIGER

@<TRIPOS>ATOM
      1  C         -9.1760   24.0010   38.2110 C.2   280  TPY280      0.2075
      2  CA       -10.5470   23.4040   38.3190 C.3   280  TPY280      0.0771
      3  CB       -10.7130   22.3140   37.3310 C.3   280  TPY280      0.1300
      4  CC       -12.0650   21.6810   37.4290 C.2   280  TPY280      0.3662
      5  CD       -11.5710   24.5060   38.2310 C.3   280  TPY280      0.0084
      6  CE       -11.2680   25.6450   39.1830 C.3   280  TPY280      0.0005
      7  O         -8.6620   24.6790   37.3340 O.2   280  TPY280     -0.2883
      8  OA       -12.5690   21.2840   36.3480 O.co2 280  TPY280     -0.2456
      9  OB       -12.6550   21.5390   38.5250 O.co2 280  TPY280     -0.2456
     10  OC        -8.6330   21.9780   34.5860 O.2   280  TPY280     -0.1516
     11  OD        -6.7160   23.0330   35.6570 O.2   280  TPY280     -0.1516
     12  S         -7.6260   21.9190   35.5740 S.O2  280  TPY280      0.0768
     13  N         -8.2760   21.6680   37.0470 N.3   280  TPY280     -0.0772
     14  CK        -9.6450   21.2780   37.2690 C.3   280  TPY280      0.1271
     15  CF        -6.4970   20.5730   35.4300 C.ar  280  TPY280      0.1237
     16  CG1       -6.9600   19.2730   35.4370 C.ar  280  TPY280      0.0217
     17  CG2       -5.1440   20.8330   35.3620 C.ar  280  TPY280      0.0217
     18  CH1       -6.0390   18.2400   35.3570 C.ar  280  TPY280      0.0254
     19  CH2       -4.2410   19.7920   35.2690 C.ar  280  TPY280      0.0254
     20  CI        -4.6810   18.4870   35.2690 C.ar  280  TPY280      0.1430
     21  NJ        -3.7700   17.2990   35.1840 N.pl3 280  TPY280      0.0577
     22  OE        -2.5450   17.4950   35.1130 O.2   280  TPY280     -0.1261
     23  OF        -4.4330   16.2380   35.1970 O.2   280  TPY280     -0.1261
@<TRIPOS>BOND
     1    10    12    2
     2    22    21    2
     3    21    23    2
     4    21    20    1
     5    20    19   ar
     6    20    18   ar
     7    19    17   ar
     8    18    16   ar
     9    17    15   ar
    10    15    16   ar
    11    15    12    1
    12    12    11    2
    13    12    13    1
    14     8     4   ar
    15    13    14    1
    16    14     3    1
    17     3     4    1
    18     3     2    1
    19     7     1    2
    20     4     9   ar
    21     1     2    1
    22     5     2    1
    23     5     6    1
