@<TRIPOS>MOLECULE
1e39_HEC_A_1.pdb
 43 50 0 0 0
SMALL
GASTEIGER

@<TRIPOS>ATOM
      1 FE         30.1790   58.6490   43.3200 Fe    801  HEC801      0.0000
      2  CHA       28.3820   55.7950   43.6180 C.2   801  HEC801      0.0000
      3  CHB       28.5400   59.4440   40.4500 C.2   801  HEC801      0.0000
      4  CHC       31.7570   61.6560   43.1960 C.2   801  HEC801      0.0000
      5  CHD       32.0030   57.7540   45.9940 C.2   801  HEC801      0.0000
      6  NA        28.7580   57.8670   42.3100 N.ar  801  HEC801      0.0000
      7  C1A       28.1120   56.6780   42.5800 C.ar  801  HEC801      0.0000
      8  C2A       27.1870   56.3280   41.5200 C.ar  801  HEC801      0.0000
      9  C3A       27.2720   57.3050   40.5800 C.ar  801  HEC801      0.0000
     10  C4A       28.2390   58.2540   41.0830 C.ar  801  HEC801      0.0000
     11  CMA       26.2740   57.5390   39.4410 C.3   801  HEC801      0.0000
     12  CAA       26.3470   55.0450   41.4940 C.3   801  HEC801      0.0000
     13  CBA       26.9020   53.9580   40.5620 C.3   801  HEC801      0.0000
     14  CGA       25.9410   52.7960   40.3910 C.2   801  HEC801      0.0000
     15  O1A       26.2220   51.9480   39.5190 O.co2 801  HEC801      0.0000
     16  O2A       24.9320   52.7660   41.1250 O.co2 801  HEC801      0.0000
     17  NB        30.2470   60.2000   41.9960 N.2   801  HEC801      0.0000
     18  C1B       29.5780   60.2770   40.8030 C.2   801  HEC801      0.0000
     19  C2B       29.8920   61.5290   40.1390 C.2   801  HEC801      0.0000
     20  C3B       30.7380   62.2130   40.9450 C.2   801  HEC801      0.0000
     21  C4B       30.9400   61.3850   42.1200 C.2   801  HEC801      0.0000
     22  CMB       29.3920   61.8730   38.7380 C.3   801  HEC801      0.0000
     23  CAB       31.2940   63.4720   40.7090 C.3   801  HEC801      0.0000
     24  CBB       30.4440   64.6580   40.6100 C.3   801  HEC801      0.0000
     25  NC        31.5470   59.5200   44.3710 N.ar  801  HEC801      0.0000
     26  C1C       32.0340   60.8180   44.2570 C.ar  801  HEC801      0.0000
     27  C2C       33.0020   61.1180   45.2890 C.ar  801  HEC801      0.0000
     28  C3C       33.1230   60.0050   46.0630 C.ar  801  HEC801      0.0000
     29  C4C       32.1970   59.0350   45.5000 C.ar  801  HEC801      0.0000
     30  CMC       33.8420   62.3830   45.4120 C.3   801  HEC801      0.0000
     31  CAC       34.2130   59.7520   46.9150 C.3   801  HEC801      0.0000
     32  CBC       34.3850   60.5900   48.1200 C.3   801  HEC801      0.0000
     33  ND        30.1660   57.0900   44.5820 N.2   801  HEC801      0.0000
     34  C1D       31.1860   56.7840   45.4520 C.2   801  HEC801      0.0000
     35  C2D       30.9410   55.4960   46.0810 C.2   801  HEC801      0.0000
     36  C3D       29.7760   55.0190   45.5710 C.2   801  HEC801      0.0000
     37  C4D       29.3110   56.0110   44.6130 C.2   801  HEC801      0.0000
     38  CMD       31.5420   55.0830   47.4310 C.3   801  HEC801      0.0000
     39  CAD       28.8940   53.9460   46.2190 C.3   801  HEC801      0.0000
     40  CBD       27.4990   54.4130   46.6590 C.3   801  HEC801      0.0000
     41  CGD       27.5740   55.4580   47.7640 C.2   801  HEC801      0.0000
     42  O1D       26.8140   56.4460   47.7260 O.co2 801  HEC801      0.0000
     43  O2D       28.3920   55.2990   48.6920 O.co2 801  HEC801      0.0000
@<TRIPOS>BOND
     1    22    19    1
     2    11     9    1
     3    15    14   ar
     4    19    18    1
     5    19    20    2
     6    14    13    1
     7    14    16   ar
     8     3    18    1
     9     3    10    2
    10    13    12    1
    11     9    10   ar
    12     9     8   ar
    13    24    23    1
    14    23    20    1
    15    18    17    2
    16    20    21    1
    17    10     6   ar
    18    12     8    1
    19     8     7   ar
    20    17    21    1
    21    17     1    1
    22    21     4    2
    23     6     7   ar
    24     6     1    1
    25     7     2    2
    26     4    26    1
    27     1    25    1
    28     1    33    1
    29     2    37    1
    30    26    25   ar
    31    26    27   ar
    32    25    29   ar
    33    33    37    2
    34    33    34    1
    35    37    36    1
    36    27    30    1
    37    27    28   ar
    38    34     5    2
    39    34    35    1
    40    29     5    1
    41    29    28   ar
    42    36    35    2
    43    36    39    1
    44    28    31    1
    45    35    38    1
    46    39    40    1
    47    40    41    1
    48    31    32    1
    49    42    41   ar
    50    41    43   ar
