@<TRIPOS>MOLECULE
1e3d_FSX_A_1.pdb
 10 14 0 0 0
SMALL
GASTEIGER

@<TRIPOS>ATOM
      1 FE1        11.5730    8.8880   42.3010 Fe    269  FSX269      0.0000
      2 FE2        14.4020    8.4210   40.9760 Fe    269  FSX269      0.0000
      3 FE3        12.4390   11.0670   43.7050 Fe    269  FSX269      0.0000
      4 FE4        14.4030    9.1810   43.9520 Fe    269  FSX269      0.0000
      5  O1        14.4630   10.4880   40.4380 O.3   269  FSX269      0.0000
      6  S2        11.4350   11.0320   41.7180 S.3   269  FSX269      0.0000
      7  S3        12.1860    8.9610   44.5220 S.3   269  FSX269      0.0000
      8  S4        14.6300   11.3410   43.4660 S.3   269  FSX269      0.0000
      9  O24       15.1000    8.1060   42.6360 O.3   269  FSX269      0.0000
     10  O12       12.6890    7.8620   41.2610 O.3   269  FSX269      0.0000
@<TRIPOS>BOND
     1     5     2    1
     2     2    10    1
     3     2     9    1
     4    10     1    1
     5     6     1    1
     6     6     3    1
     7     1     3    1
     8     1     7    1
     9     9     4    1
    10     8     3    1
    11     8     4    1
    12     3     4    1
    13     3     7    1
    14     4     7    1
