@<TRIPOS>MOLECULE
1e3e_NAD_A_1.pdb
 44 48 0 0 0
SMALL
GASTEIGER

@<TRIPOS>ATOM
      1  PA        99.7560   30.0530   26.0560 P.3   377  NAD377      0.2189
      2  O1A       99.7650   28.6230   25.8400 O.3   377  NAD377     -0.4371
      3  O2A      100.8890   30.7450   25.3750 O.2   377  NAD377     -0.5170
      4  O5B       99.7870   30.3990   27.6430 O.3   377  NAD377     -0.3112
      5  C5B       99.8000   29.4560   28.7710 C.3   377  NAD377      0.1813
      6  C4B      100.8070   29.8600   29.8350 C.3   377  NAD377      0.1821
      7  O4B      100.3190   29.4310   31.1700 O.3   377  NAD377     -0.3135
      8  C3B      102.2210   29.2530   29.7030 C.3   377  NAD377      0.2184
      9  O3B      103.2700   30.1840   29.8680 O.3   377  NAD377     -0.2174
     10  C2B      102.2380   28.1410   30.7350 C.3   377  NAD377      0.2570
     11  O2B      103.5240   27.7760   31.2330 O.3   377  NAD377     -0.2130
     12  C1B      101.3250   28.6900   31.8310 C.3   377  NAD377      0.3186
     13  N9A      100.8140   27.6200   32.7230 N.pl3 377  NAD377     -0.1439
     14  C8A      100.3690   26.3410   32.4670 C.3   377  NAD377      0.3377
     15  N7A       99.9960   25.6700   33.5820 N.2   377  NAD377     -0.2095
     16  C5A      100.2180   26.5630   34.5970 C.2   377  NAD377      0.2526
     17  C6A      100.0340   26.4880   36.0080 C.2   377  NAD377      0.4393
     18  N6A       99.5770   25.4100   36.6560 N.pl3 377  NAD377      0.2180
     19  N1A      100.3600   27.5990   36.7500 N.2   377  NAD377      0.0021
     20  C2A      100.8410   28.7360   36.1180 C.3   377  NAD377      0.5254
     21  N3A      101.0420   28.8940   34.8360 N.2   377  NAD377     -0.0055
     22  C4A      100.7120   27.7780   34.1000 C.2   377  NAD377      0.3518
     23  O3        98.3520   30.7330   25.6670 O.3   377  NAD377     -0.2703
     24  PN        97.8180   32.2130   25.3890 P.3   377  NAD377      0.2189
     25  O1N       97.9120   32.5550   23.9750 O.2   377  NAD377     -0.5170
     26  O2N       98.5560   33.1880   26.1900 O.3   377  NAD377     -0.4371
     27  O5D       96.2480   32.0490   25.7790 O.3   377  NAD377     -0.3112
     28  C5D       95.8470   31.7320   27.1060 C.3   377  NAD377      0.1813
     29  C4D       94.4600   31.1930   27.2520 C.3   377  NAD377      0.1799
     30  O4D       93.3980   32.1760   27.0050 O.3   377  NAD377     -0.3327
     31  C3D       94.1140   29.9850   26.3490 C.3   377  NAD377      0.2158
     32  O3D       93.5280   28.9590   27.1600 O.3   377  NAD377     -0.2175
     33  C2D       93.2070   30.6210   25.2770 C.3   377  NAD377      0.2309
     34  O2D       92.3960   29.6850   24.5810 O.3   377  NAD377     -0.2158
     35  C1D       92.4380   31.6590   26.0740 C.3   377  NAD377      0.2263
     36  N1N       91.8100   32.8020   25.3580 N.pl3 377  NAD377     -0.2787
     37  C2N       90.5690   33.2060   25.8320 C.3   377  NAD377      0.1244
     38  C3N       89.8890   34.2710   25.2420 C.2   377  NAD377      0.0544
     39  C7N       88.4830   34.8180   25.7020 C.2   377  NAD377      0.2818
     40  O7N       87.7420   35.4730   24.9490 O.2   377  NAD377     -0.2670
     41  N7N       88.1410   34.5380   26.9870 N.am  377  NAD377     -0.0839
     42  C4N       90.4380   34.9960   24.1160 C.2   377  NAD377      0.0033
     43  C5N       91.7160   34.5230   23.6860 C.2   377  NAD377      0.0157
     44  C6N       92.4420   33.4680   24.2340 C.2   377  NAD377      0.0633
@<TRIPOS>BOND
     1    43    42    1
     2    43    44    2
     3    25    24    2
     4    42    38    2
     5    44    36    1
     6    34    33    1
     7    40    39    2
     8    38    39    1
     9    38    37    1
    10    33    35    1
    11    33    31    1
    12    36    37    1
    13    36    35    1
    14     3     1    2
    15    24    23    1
    16    24    27    1
    17    24    26    1
    18    23     1    1
    19    39    41   am
    20    27    28    1
    21     2     1    1
    22     1     4    1
    23    35    30    1
    24    31    32    1
    25    31    29    1
    26    30    29    1
    27    28    29    1
    28     4     5    1
    29     5     6    1
    30     8     6    1
    31     8     9    1
    32     8    10    1
    33     6     7    1
    34    10    11    1
    35    10    12    1
    36     7    12    1
    37    12    13    1
    38    14    13    1
    39    14    15    1
    40    13    22    1
    41    15    16    2
    42    22    16    1
    43    22    21    2
    44    16    17    1
    45    21    20    1
    46    17    18    1
    47    17    19    2
    48    20    19    1
