@<TRIPOS>MOLECULE
1e3g_R18_A_1.pdb
 21 24 0 0 0
SMALL
GASTEIGER

@<TRIPOS>ATOM
      1  C1         0.4140   28.0700    4.1030 C.3   1000  R181000     0.0338
      2  C2         1.1950   26.9990    4.8320 C.3   1000  R181000     0.0738
      3  C3         2.6610   27.1400    4.5320 C.2   1000  R181000     0.1731
      4  C4         3.1740   28.4570    4.7940 C.2   1000  R181000     0.0329
      5  C5         2.3670   29.5530    4.7800 C.2   1000  R181000    -0.0236
      6  C6         2.9730   30.9060    5.1160 C.3   1000  R181000     0.0265
      7  C7         2.2070   32.0300    4.4570 C.3   1000  R181000     0.0090
      8  C8         0.7330   31.9620    4.8980 C.3   1000  R181000     0.0227
      9  C9         0.1240   30.5970    4.5140 C.2   1000  R181000    -0.0270
     10  C10        0.9120   29.4800    4.4760 C.2   1000  R181000    -0.0296
     11  C11       -1.3160   30.5830    4.2510 C.2   1000  R181000    -0.0091
     12  C12       -2.1020   31.6750    4.3100 C.2   1000  R181000    -0.0247
     13  C13       -1.5350   33.0390    4.6640 C.3   1000  R181000     0.0447
     14  C14       -0.0560   33.0660    4.2610 C.3   1000  R181000     0.0101
     15  C15        0.3870   34.5090    4.5720 C.3   1000  R181000     0.0032
     16  C16       -0.8990   35.2990    4.3110 C.3   1000  R181000     0.0308
     17  C17       -2.0010   34.2820    3.9000 C.3   1000  R181000     0.1300
     18  C18       -1.7250   33.2280    6.1890 C.3   1000  R181000     0.0068
     19  C27       -2.0340   34.0500    2.4120 C.3   1000  R181000     0.0333
     20  O83        3.3750   26.2120    4.1620 O.2   1000  R181000    -0.2913
     21  O97       -3.2570   34.7970    4.3450 O.3   1000  R181000    -0.2254
@<TRIPOS>BOND
     1    19    17    1
     2    17    16    1
     3    17    21    1
     4    17    13    1
     5     1    10    1
     6     1     2    1
     7    20     3    2
     8    11    12    2
     9    11     9    1
    10    14    15    1
    11    14    13    1
    12    14     8    1
    13    12    13    1
    14    16    15    1
    15     7     8    1
    16     7     6    1
    17    10     9    2
    18    10     5    1
    19     9     8    1
    20     3     4    1
    21     3     2    1
    22    13    18    1
    23     5     4    2
    24     5     6    1
