@<TRIPOS>MOLECULE
1e3i_NAD_A_1.pdb
 44 48 0 0 0
SMALL
GASTEIGER

@<TRIPOS>ATOM
      1  PA        97.0440   29.2900   24.9050 P.3   377  NAD377      0.2189
      2  O1A       97.0490   27.8530   24.7110 O.3   377  NAD377     -0.4371
      3  O2A       98.1730   29.9890   24.2240 O.2   377  NAD377     -0.5170
      4  O5B       97.0590   29.6500   26.4680 O.3   377  NAD377     -0.3112
      5  C5B       97.0450   28.7170   27.5860 C.3   377  NAD377      0.1813
      6  C4B       98.0800   29.0970   28.6090 C.3   377  NAD377      0.1821
      7  O4B       97.6240   28.6450   29.9390 O.3   377  NAD377     -0.3135
      8  C3B       99.4730   28.4790   28.4100 C.3   377  NAD377      0.2184
      9  O3B      100.5220   29.4030   28.5660 O.3   377  NAD377     -0.2174
     10  C2B       99.5130   27.3380   29.4140 C.3   377  NAD377      0.2570
     11  O2B      100.8100   26.9660   29.8600 O.3   377  NAD377     -0.2130
     12  C1B       98.6280   27.8650   30.5500 C.3   377  NAD377      0.3186
     13  N9A       98.0910   26.7950   31.4130 N.pl3 377  NAD377     -0.1439
     14  C8A       97.5980   25.5390   31.1290 C.3   377  NAD377      0.3377
     15  N7A       97.2140   24.8580   32.2320 N.2   377  NAD377     -0.2095
     16  C5A       97.4740   25.7170   33.2660 C.2   377  NAD377      0.2526
     17  C6A       97.3050   25.6090   34.6780 C.2   377  NAD377      0.4393
     18  N6A       96.8120   24.5290   35.2970 N.pl3 377  NAD377      0.2180
     19  N1A       97.6770   26.6890   35.4510 N.2   377  NAD377      0.0021
     20  C2A       98.1950   27.8260   34.8440 C.3   377  NAD377      0.5254
     21  N3A       98.3870   28.0110   33.5560 N.2   377  NAD377     -0.0055
     22  C4A       98.0110   26.9230   32.7950 C.2   377  NAD377      0.3518
     23  O3        95.6450   29.9570   24.5240 O.3   377  NAD377     -0.2703
     24  PN        95.0970   31.4290   24.3200 P.3   377  NAD377      0.2189
     25  O1N       95.0560   31.8010   22.9100 O.2   377  NAD377     -0.5170
     26  O2N       95.9030   32.4070   25.0690 O.3   377  NAD377     -0.4371
     27  O5D       93.5830   31.2450   24.8380 O.3   377  NAD377     -0.3112
     28  C5D       93.2870   30.8870   26.1730 C.3   377  NAD377      0.1813
     29  C4D       91.9200   30.3190   26.3600 C.3   377  NAD377      0.1799
     30  O4D       90.8440   31.2940   26.1560 O.3   377  NAD377     -0.3327
     31  C3D       91.5680   29.1270   25.4430 C.3   377  NAD377      0.2158
     32  O3D       91.0360   28.0840   26.2510 O.3   377  NAD377     -0.2175
     33  C2D       90.6010   29.7500   24.4190 C.3   377  NAD377      0.2309
     34  O2D       89.7470   28.8060   23.7950 O.3   377  NAD377     -0.2158
     35  C1D       89.8760   30.7950   25.2350 C.3   377  NAD377      0.2263
     36  N1N       89.2630   31.9390   24.5260 N.pl3 377  NAD377     -0.2787
     37  C2N       88.0700   32.3860   25.0530 C.3   377  NAD377      0.1244
     38  C3N       87.3940   33.4510   24.4830 C.2   377  NAD377      0.0544
     39  C7N       86.0370   34.0390   25.0060 C.2   377  NAD377      0.2818
     40  O7N       85.3770   34.8500   24.3510 O.2   377  NAD377     -0.2670
     41  N7N       85.6370   33.6040   26.2270 N.am  377  NAD377     -0.0839
     42  C4N       87.9030   34.1410   23.3220 C.2   377  NAD377      0.0033
     43  C5N       89.1370   33.6280   22.8320 C.2   377  NAD377      0.0157
     44  C6N       89.8610   32.5640   23.3580 C.2   377  NAD377      0.0633
@<TRIPOS>BOND
     1    43    42    1
     2    43    44    2
     3    25    24    2
     4    42    38    2
     5    44    36    1
     6    34    33    1
     7     3     1    2
     8    24    23    1
     9    24    27    1
    10    24    26    1
    11    40    39    2
    12    33    35    1
    13    33    31    1
    14    38    39    1
    15    38    37    1
    16    23     1    1
    17    36    37    1
    18    36    35    1
    19     2     1    1
    20    27    28    1
    21     1     4    1
    22    39    41   am
    23    35    30    1
    24    31    32    1
    25    31    29    1
    26    30    29    1
    27    28    29    1
    28     4     5    1
    29     5     6    1
    30     8     9    1
    31     8     6    1
    32     8    10    1
    33     6     7    1
    34    10    11    1
    35    10    12    1
    36     7    12    1
    37    12    13    1
    38    14    13    1
    39    14    15    1
    40    13    22    1
    41    15    16    2
    42    22    16    1
    43    22    21    2
    44    16    17    1
    45    21    20    1
    46    17    18    1
    47    17    19    2
    48    20    19    1
