@<TRIPOS>MOLECULE
1e3k_R18_A_1.pdb
 21 24 0 0 0
SMALL
GASTEIGER

@<TRIPOS>ATOM
      1  C1        30.2050   -8.8910    6.1810 C.3   1000  R181000     0.0294
      2  C2        29.5480   -9.1350    4.8110 C.3   1000  R181000     0.0688
      3  C3        28.9710  -10.5340    4.7870 C.2   1000  R181000     0.1513
      4  C4        28.2280  -10.8560    6.0010 C.3   1000  R181000     0.0685
      5  C5        28.0190   -9.9530    6.9260 C.3   1000  R181000     0.0254
      6  C6        26.7020   -9.7440    7.6350 C.3   1000  R181000     0.0048
      7  C7        27.1720   -9.6340    9.1230 C.3   1000  R181000     0.0047
      8  C8        27.8090   -8.2340    9.1730 C.3   1000  R181000     0.0221
      9  C9        29.0100   -8.0730    8.2480 C.2   1000  R181000    -0.0307
     10  C10       29.0960   -9.0050    7.2430 C.2   1000  R181000    -0.0476
     11  C11       30.0190   -6.9690    8.6520 C.2   1000  R181000    -0.0094
     12  C12       29.6960   -6.1970    9.6640 C.2   1000  R181000    -0.0247
     13  C13       28.5970   -6.4450   10.6570 C.3   1000  R181000     0.0447
     14  C14       28.2390   -7.9530   10.6410 C.3   1000  R181000     0.0101
     15  C15       27.1280   -8.0540   11.6940 C.3   1000  R181000     0.0032
     16  C16       27.3260   -6.8140   12.6460 C.3   1000  R181000     0.0308
     17  C17       28.6770   -6.1700   12.2670 C.3   1000  R181000     0.1300
     18  C18       27.4850   -5.5810    9.9590 C.3   1000  R181000     0.0068
     19  C27       29.9990   -6.8290   12.8010 C.3   1000  R181000     0.0333
     20  O83       29.0520  -11.3400    3.8400 O.2   1000  R181000    -0.2960
     21  O97       28.7650   -4.8420   12.7290 O.3   1000  R181000    -0.2254
@<TRIPOS>BOND
     1    20     3    2
     2     3     2    1
     3     3     4    1
     4     2     1    1
     5     4     5    1
     6     1    10    1
     7     5    10    1
     8     5     6    1
     9    10     9    2
    10     6     7    1
    11     9    11    1
    12     9     8    1
    13    11    12    2
    14     7     8    1
    15     8    14    1
    16    12    13    1
    17    18    13    1
    18    14    13    1
    19    14    15    1
    20    13    17    1
    21    15    16    1
    22    17    16    1
    23    17    21    1
    24    17    19    1
