@<TRIPOS>MOLECULE
1e3l_NAD_A_1.pdb
 44 48 0 0 0
SMALL
GASTEIGER

@<TRIPOS>ATOM
      1  PA        96.9070   28.7870   24.8120 P.3   377  NAD377      0.2189
      2  O1A       96.8400   27.3550   24.5860 O.3   377  NAD377     -0.4371
      3  O2A       97.9960   29.4490   24.0400 O.2   377  NAD377     -0.5170
      4  O5B       97.0980   29.1220   26.3730 O.3   377  NAD377     -0.3112
      5  C5B       97.1870   28.1960   27.4870 C.3   377  NAD377      0.1813
      6  C4B       98.0950   28.7600   28.5570 C.3   377  NAD377      0.1821
      7  O4B       97.5680   28.3520   29.8690 O.3   377  NAD377     -0.3135
      8  C3B       99.5600   28.2720   28.5340 C.3   377  NAD377      0.2184
      9  O3B      100.5030   29.2890   28.7780 O.3   377  NAD377     -0.2174
     10  C2B       99.5810   27.1780   29.5730 C.3   377  NAD377      0.2570
     11  O2B      100.8500   26.8540   30.1300 O.3   377  NAD377     -0.2130
     12  C1B       98.5850   27.7110   30.6100 C.3   377  NAD377      0.3186
     13  N9A       98.0890   26.6480   31.4950 N.pl3 377  NAD377     -0.1439
     14  C8A       97.6140   25.3820   31.2220 C.3   377  NAD377      0.3377
     15  N7A       97.2660   24.6980   32.3340 N.2   377  NAD377     -0.2095
     16  C5A       97.5310   25.5740   33.3610 C.2   377  NAD377      0.2526
     17  C6A       97.3910   25.4640   34.7710 C.2   377  NAD377      0.4393
     18  N6A       96.9320   24.3720   35.3870 N.pl3 377  NAD377      0.2180
     19  N1A       97.7540   26.5490   35.5370 N.2   377  NAD377      0.0021
     20  C2A       98.2350   27.6950   34.9180 C.3   377  NAD377      0.5254
     21  N3A       98.4000   27.8810   33.6280 N.2   377  NAD377     -0.0055
     22  C4A       98.0330   26.7840   32.8790 C.2   377  NAD377      0.3518
     23  O3        95.5140   29.5500   24.5740 O.3   377  NAD377     -0.2703
     24  PN        95.0770   31.0610   24.3250 P.3   377  NAD377      0.2189
     25  O1N       95.0270   31.3670   22.8870 O.2   377  NAD377     -0.5170
     26  O2N       95.9880   31.9990   24.9990 O.3   377  NAD377     -0.4371
     27  O5D       93.5570   31.0360   24.9050 O.3   377  NAD377     -0.3112
     28  C5D       93.2540   30.7730   26.2750 C.3   377  NAD377      0.1813
     29  C4D       91.8840   30.2000   26.5070 C.3   377  NAD377      0.1799
     30  O4D       90.7940   31.1500   26.2050 O.3   377  NAD377     -0.3327
     31  C3D       91.5460   28.9350   25.6780 C.3   377  NAD377      0.2158
     32  O3D       90.9060   27.9750   26.5330 O.3   377  NAD377     -0.2175
     33  C2D       90.6970   29.5310   24.5370 C.3   377  NAD377      0.2309
     34  O2D       89.9680   28.5660   23.7920 O.3   377  NAD377     -0.2158
     35  C1D       89.8570   30.5580   25.2900 C.3   377  NAD377      0.2263
     36  N1N       89.2000   31.6620   24.5390 N.pl3 377  NAD377     -0.2787
     37  C2N       88.0280   32.1390   25.0930 C.3   377  NAD377      0.1244
     38  C3N       87.3140   33.1790   24.4910 C.2   377  NAD377      0.0544
     39  C7N       85.9740   33.7870   25.0530 C.2   377  NAD377      0.2818
     40  O7N       85.2350   34.5000   24.3680 O.2   377  NAD377     -0.2670
     41  N7N       85.6820   33.4720   26.3370 N.am  377  NAD377     -0.0839
     42  C4N       87.7650   33.8050   23.2600 C.2   377  NAD377      0.0033
     43  C5N       88.9770   33.2600   22.7530 C.2   377  NAD377      0.0157
     44  C6N       89.7340   32.2240   23.3080 C.2   377  NAD377      0.0633
@<TRIPOS>BOND
     1    43    42    1
     2    43    44    2
     3    25    24    2
     4    42    38    2
     5    44    36    1
     6    34    33    1
     7     3     1    2
     8    24    23    1
     9    24    27    1
    10    24    26    1
    11    40    39    2
    12    38    39    1
    13    38    37    1
    14    33    35    1
    15    33    31    1
    16    36    37    1
    17    36    35    1
    18    23     1    1
    19     2     1    1
    20     1     4    1
    21    27    28    1
    22    39    41   am
    23    35    30    1
    24    31    29    1
    25    31    32    1
    26    30    29    1
    27    28    29    1
    28     4     5    1
    29     5     6    1
    30     8     6    1
    31     8     9    1
    32     8    10    1
    33     6     7    1
    34    10    11    1
    35    10    12    1
    36     7    12    1
    37    12    13    1
    38    14    13    1
    39    14    15    1
    40    13    22    1
    41    15    16    2
    42    22    16    1
    43    22    21    2
    44    16    17    1
    45    21    20    1
    46    17    18    1
    47    17    19    2
    48    20    19    1
