@<TRIPOS>MOLECULE
1e3m_ADP_A_1.pdb
 27 29 0 0 0
SMALL
GASTEIGER

@<TRIPOS>ATOM
      1  PB       134.9610   46.7400    7.8980 P.3   1801  ADP1801     0.5373
      2  O1B      133.6950   46.0050    7.4590 O.3   1801  ADP1801    -0.1143
      3  O2B      134.7610   48.2510    7.6660 O.3   1801  ADP1801    -0.1143
      4  O3B      136.0690   46.2350    7.0370 O.2   1801  ADP1801    -0.2221
      5  PA       135.0120   47.3010   10.7050 P.3   1801  ADP1801     0.2231
      6  O1A      133.5680   47.6060   10.7650 O.3   1801  ADP1801    -0.4370
      7  O2A      135.8850   48.5670   10.7380 O.2   1801  ADP1801    -0.5169
      8  O3A      135.3400   46.4020    9.4120 O.3   1801  ADP1801    -0.2261
      9  O5'      135.4440   46.4080   11.9580 O.3   1801  ADP1801    -0.3111
     10  C5'      134.6990   45.2360   12.2540 C.3   1801  ADP1801     0.1813
     11  C4'      134.8710   44.8050   13.7040 C.3   1801  ADP1801     0.1821
     12  O4'      136.1590   44.2490   13.9060 O.3   1801  ADP1801    -0.3135
     13  C3'      134.7580   45.9660   14.6660 C.3   1801  ADP1801     0.2184
     14  O3'      133.4560   46.0640   15.1820 O.3   1801  ADP1801    -0.2174
     15  C2'      135.7050   45.6090   15.7710 C.3   1801  ADP1801     0.2570
     16  O2'      134.9500   44.9610   16.7580 O.3   1801  ADP1801    -0.2130
     17  C1'      136.7070   44.6530   15.1480 C.3   1801  ADP1801     0.3186
     18  N9       137.9470   45.4150   14.8940 N.pl3 1801  ADP1801    -0.1439
     19  C8       138.1350   46.3560   13.9020 C.3   1801  ADP1801     0.3377
     20  N7       139.3900   46.8500   14.0060 N.2   1801  ADP1801    -0.2095
     21  C5       140.0140   46.2350   15.0410 C.2   1801  ADP1801     0.2526
     22  C6       141.2900   46.3530   15.5760 C.2   1801  ADP1801     0.4393
     23  N6       142.2400   46.9910   14.9130 N.pl3 1801  ADP1801     0.2180
     24  N1       141.6470   45.5760   16.6550 N.2   1801  ADP1801     0.0021
     25  C2       140.7440   44.6880   17.2000 C.3   1801  ADP1801     0.5254
     26  N3       139.4810   44.5820   16.6620 N.2   1801  ADP1801    -0.0055
     27  C4       139.1160   45.3370   15.6080 C.2   1801  ADP1801     0.3518
@<TRIPOS>BOND
     1     4     1    2
     2     2     1    1
     3     3     1    1
     4     1     8    1
     5     8     5    1
     6     5     7    2
     7     5     6    1
     8     5     9    1
     9     9    10    1
    10    10    11    1
    11    11    12    1
    12    11    13    1
    13    19    20    1
    14    19    18    1
    15    12    17    1
    16    20    21    2
    17    13    14    1
    18    13    15    1
    19    18    17    1
    20    18    27    1
    21    23    22    1
    22    21    22    1
    23    21    27    1
    24    17    15    1
    25    22    24    2
    26    27    26    2
    27    15    16    1
    28    24    25    1
    29    26    25    1
