@<TRIPOS>MOLECULE
1e3q_EBW_A_1.pdb
 30 31 0 0 0
SMALL
GASTEIGER

@<TRIPOS>ATOM
      1  C1         3.6460   63.7210   68.7100 C.2   550  EBW550      0.1513
      2  C2         4.5510   63.5640   69.8950 C.3   550  EBW550      0.0692
      3  C5         3.8190   64.9660   67.8670 C.3   550  EBW550      0.0692
      4  C6         4.0300   64.2920   71.1190 C.3   550  EBW550      0.0341
      5  C7         2.8190   63.6440   71.7850 C.ar  550  EBW550     -0.0217
      6  C8         3.0150   62.5600   72.6410 C.ar  550  EBW550     -0.0030
      7  C9         1.9710   62.0380   73.3980 C.ar  550  EBW550      0.0129
      8  C10        0.6830   62.5890   73.3370 C.ar  550  EBW550      0.0345
      9  C11        0.4710   63.6750   72.4500 C.ar  550  EBW550      0.0129
     10  N1         4.2660   69.6330   63.3380 N.pl3 550  EBW550     -0.3491
     11  N2        -0.4370   62.0550   74.2310 N.pl3 550  EBW550     -0.3491
     12  C12        1.5310   64.1990   71.6880 C.ar  550  EBW550     -0.0030
     13  C13        3.3380   64.7800   66.4460 C.3   550  EBW550      0.0341
     14  C14        3.5460   66.0270   65.6320 C.ar  550  EBW550     -0.0217
     15  C15        2.7410   67.1540   65.8180 C.ar  550  EBW550     -0.0030
     16  C16        2.9640   68.3120   65.0790 C.ar  550  EBW550      0.0129
     17  C17        4.0010   68.3710   64.1320 C.ar  550  EBW550      0.0345
     18  C18        4.7940   67.2350   63.9590 C.ar  550  EBW550      0.0129
     19  C19        4.5660   66.0830   64.6980 C.ar  550  EBW550     -0.0030
     20  C20        5.2510   69.3820   62.2410 C.3   550  EBW550      0.0962
     21  C21        2.9980   70.1100   62.7150 C.3   550  EBW550      0.0962
     22  C22        4.7930   70.6960   64.2540 C.3   550  EBW550      0.1026
     23  C23        6.0710   70.3480   64.9570 C.2   550  EBW550     -0.0062
     24  C24       -0.7490   63.0280   75.3360 C.3   550  EBW550      0.1026
     25  C25       -0.0560   60.7380   74.8390 C.3   550  EBW550      0.0962
     26  C26       -1.6620   61.8640   73.4260 C.3   550  EBW550      0.0962
     27  C27        0.4080   63.3020   76.2610 C.2   550  EBW550     -0.0062
     28  C28        0.7150   64.5360   76.6720 C.2   550  EBW550     -0.0032
     29  C29        6.1360   70.3330   66.2820 C.2   550  EBW550     -0.0032
     30  O1         2.8960   62.8110   68.3700 O.2   550  EBW550     -0.2960
@<TRIPOS>BOND
     1    20    10    1
     2    21    10    1
     3    10    17    1
     4    10    22    1
     5    18    17   ar
     6    18    19   ar
     7    17    16   ar
     8    22    23    1
     9    19    14   ar
    10    23    29    2
    11    16    15   ar
    12    14    15   ar
    13    14    13    1
    14    13     3    1
    15     3     1    1
    16    30     1    2
    17     1     2    1
    18     2     4    1
    19     4     5    1
    20    12     5   ar
    21    12     9   ar
    22     5     6   ar
    23     9     8   ar
    24     6     7   ar
    25     8     7   ar
    26     8    11    1
    27    26    11    1
    28    11    25    1
    29    11    24    1
    30    24    27    1
    31    27    28    2
