@<TRIPOS>MOLECULE
1e3r_AND_A_1.pdb
 21 24 0 0 0
SMALL
GASTEIGER

@<TRIPOS>ATOM
      1  C1        24.7520  -33.0360  -37.9390 C.3   801  AND801      0.0026
      2  C2        23.9180  -34.3190  -38.0930 C.3   801  AND801      0.0329
      3  C3        22.8210  -34.2740  -36.9990 C.3   801  AND801      0.1520
      4  O3        21.9840  -35.4060  -37.0190 O.3   801  AND801     -0.2232
      5  C4        21.9080  -33.0420  -37.1780 C.3   801  AND801      0.0329
      6  C5        22.6980  -31.7190  -37.2180 C.3   801  AND801      0.0025
      7  C6        22.4780  -30.7190  -36.3140 C.3   801  AND801      0.0001
      8  C7        23.1790  -29.3510  -36.3760 C.3   801  AND801      0.0000
      9  C8        24.1430  -29.1670  -37.6000 C.3   801  AND801      0.0004
     10  C9        24.8950  -30.5010  -37.9050 C.3   801  AND801      0.0000
     11  C10       23.9310  -31.7240  -38.1910 C.3   801  AND801      0.0002
     12  C11       26.0850  -30.3400  -38.9680 C.3   801  AND801      0.0004
     13  C12       26.9890  -29.1310  -38.5870 C.3   801  AND801      0.0069
     14  C13       26.1580  -27.8220  -38.4860 C.3   801  AND801      0.0515
     15  C14       25.1730  -28.0160  -37.3310 C.3   801  AND801      0.0070
     16  C15       24.7070  -26.5780  -37.0340 C.3   801  AND801      0.0082
     17  C16       26.0350  -25.7680  -37.0690 C.3   801  AND801      0.0645
     18  C17       26.9340  -26.6030  -38.0090 C.2   801  AND801      0.1498
     19  O17       28.0590  -26.3300  -38.3130 O.2   801  AND801     -0.2961
     20  C18       25.5390  -27.3990  -39.8650 C.3   801  AND801      0.0073
     21  C19       23.4030  -31.6990  -39.6580 C.3   801  AND801      0.0000
@<TRIPOS>BOND
     1    20    14    1
     2    21    11    1
     3    12    13    1
     4    12    10    1
     5    13    14    1
     6    14    18    1
     7    14    15    1
     8    19    18    2
     9    11     1    1
    10    11    10    1
    11    11     6    1
    12     2     1    1
    13     2     3    1
    14    18    17    1
    15    10     9    1
    16     9    15    1
    17     9     8    1
    18    15    16    1
    19     6     5    1
    20     6     7    1
    21     5     3    1
    22    17    16    1
    23     4     3    1
    24     8     7    1
