@<TRIPOS>MOLECULE
1e3s_NAD_A_1.pdb
 44 48 0 0 0
SMALL
GASTEIGER

@<TRIPOS>ATOM
      1  PA        22.8640    8.3790   29.7750 P.3   301  NAD301      0.2189
      2  O1A       21.8570    7.5520   30.4740 O.3   301  NAD301     -0.4371
      3  O2A       22.7060    8.3060   28.3040 O.2   301  NAD301     -0.5170
      4  O5B       24.3420    7.9790   30.1640 O.3   301  NAD301     -0.3112
      5  C5B       24.8350    7.8740   31.5380 C.3   301  NAD301      0.1813
      6  C4B       25.7430    6.6390   31.6150 C.3   301  NAD301      0.1821
      7  O4B       26.1780    6.4930   33.0090 O.3   301  NAD301     -0.3135
      8  C3B       25.0340    5.3280   31.2170 C.3   301  NAD301      0.2184
      9  O3B       25.7980    4.6490   30.2220 O.3   301  NAD301     -0.2174
     10  C2B       24.9910    4.5100   32.5090 C.3   301  NAD301      0.2570
     11  O2B       25.1370    3.0940   32.2910 O.3   301  NAD301     -0.2130
     12  C1B       26.1580    5.0980   33.3220 C.3   301  NAD301      0.3186
     13  N9A       26.0150    4.8760   34.7670 N.pl3 301  NAD301     -0.1439
     14  C8A       24.8700    4.9940   35.5310 C.3   301  NAD301      0.3377
     15  N7A       25.0530    4.6190   36.7940 N.2   301  NAD301     -0.2095
     16  C5A       26.3780    4.2310   36.8560 C.2   301  NAD301      0.2526
     17  C6A       27.1760    3.7220   37.9070 C.2   301  NAD301      0.4393
     18  N6A       26.7960    3.5410   39.1800 N.pl3 301  NAD301      0.2180
     19  N1A       28.4520    3.3620   37.5800 N.2   301  NAD301      0.0021
     20  C2A       28.9050    3.5750   36.3090 C.3   301  NAD301      0.5254
     21  N3A       28.2400    4.0290   35.2790 N.2   301  NAD301     -0.0055
     22  C4A       26.9650    4.3280   35.6050 C.2   301  NAD301      0.3518
     23  O3        22.7210    9.8820   30.3050 O.3   301  NAD301     -0.2703
     24  PN        23.3910   11.2650   29.8530 P.3   301  NAD301      0.2189
     25  O1N       22.3130   12.1220   29.3510 O.3   301  NAD301     -0.4371
     26  O2N       24.5010   11.0230   28.8960 O.2   301  NAD301     -0.5170
     27  O5D       23.9620   11.7850   31.2560 O.3   301  NAD301     -0.3112
     28  C5D       25.3850   11.9610   31.4520 C.3   301  NAD301      0.1813
     29  C4D       25.5220   12.9290   32.6150 C.3   301  NAD301      0.1799
     30  O4D       24.9110   14.1760   32.1340 O.3   301  NAD301     -0.3327
     31  C3D       24.7500   12.5760   33.8940 C.3   301  NAD301      0.2158
     32  O3D       25.5350   12.9400   35.0170 O.3   301  NAD301     -0.2175
     33  C2D       23.5060   13.4820   33.8170 C.3   301  NAD301      0.2309
     34  O2D       23.0080   13.8140   35.1200 O.3   301  NAD301     -0.2158
     35  C1D       24.1080   14.7230   33.1480 C.3   301  NAD301      0.2263
     36  N1N       23.1370   15.6100   32.5010 N.pl3 301  NAD301     -0.2787
     37  C2N       22.4410   15.1410   31.4220 C.3   301  NAD301      0.1244
     38  C3N       21.5320   15.9900   30.8200 C.2   301  NAD301      0.0544
     39  C7N       20.6330   15.6620   29.5950 C.2   301  NAD301      0.2818
     40  O7N       19.6900   16.4100   29.3390 O.2   301  NAD301     -0.2670
     41  N7N       20.9230   14.5700   28.8630 N.am  301  NAD301     -0.0839
     42  C4N       21.2760   17.3150   31.2630 C.2   301  NAD301      0.0033
     43  C5N       22.0560   17.6860   32.3710 C.2   301  NAD301      0.0157
     44  C6N       22.9950   16.9180   33.0170 C.2   301  NAD301      0.0633
@<TRIPOS>BOND
     1     3     1    2
     2    41    39   am
     3    26    24    2
     4    40    39    2
     5    25    24    1
     6    39    38    1
     7     1     4    1
     8     1    23    1
     9     1     2    1
    10    24    23    1
    11    24    27    1
    12     4     5    1
    13     9     8    1
    14    38    42    2
    15    38    37    1
    16     8     6    1
    17     8    10    1
    18    27    28    1
    19    42    43    1
    20    37    36    1
    21    28    29    1
    22     5     6    1
    23     6     7    1
    24    30    29    1
    25    30    35    1
    26    11    10    1
    27    43    44    2
    28    36    44    1
    29    36    35    1
    30    10    12    1
    31    29    31    1
    32     7    12    1
    33    35    33    1
    34    12    13    1
    35    33    31    1
    36    33    34    1
    37    31    32    1
    38    13    14    1
    39    13    22    1
    40    21    22    2
    41    21    20    1
    42    14    15    1
    43    22    16    1
    44    20    19    1
    45    15    16    2
    46    16    17    1
    47    19    17    2
    48    17    18    1
