@<TRIPOS>MOLECULE
1e3w_NAD_A_1.pdb
 44 48 0 0 0
SMALL
GASTEIGER

@<TRIPOS>ATOM
      1  PA        22.3930    8.4330   28.9810 P.3   301  NAD301      0.2189
      2  O1A       21.4240    7.6690   29.8140 O.3   301  NAD301     -0.4371
      3  O2A       22.3230    8.3490   27.5060 O.2   301  NAD301     -0.5170
      4  O5B       23.9050    8.1390   29.4320 O.3   301  NAD301     -0.3112
      5  C5B       24.2390    8.0000   30.8380 C.3   301  NAD301      0.1813
      6  C4B       25.1260    6.7740   30.8440 C.3   301  NAD301      0.1821
      7  O4B       25.5510    6.6520   32.2190 O.3   301  NAD301     -0.3135
      8  C3B       24.4600    5.4320   30.4080 C.3   301  NAD301      0.2184
      9  O3B       25.2690    4.7660   29.4380 O.3   301  NAD301     -0.2174
     10  C2B       24.4260    4.6670   31.7440 C.3   301  NAD301      0.2570
     11  O2B       24.5670    3.2420   31.6460 O.3   301  NAD301     -0.2130
     12  C1B       25.5920    5.2440   32.5320 C.3   301  NAD301      0.3186
     13  N9A       25.4460    5.0580   33.9840 N.pl3 301  NAD301     -0.1439
     14  C8A       24.3060    5.2100   34.7580 C.3   301  NAD301      0.3377
     15  N7A       24.5210    4.8280   35.9930 N.2   301  NAD301     -0.2095
     16  C5A       25.8380    4.3640   36.0550 C.2   301  NAD301      0.2526
     17  C6A       26.6080    3.7730   37.0710 C.2   301  NAD301      0.4393
     18  N6A       26.2600    3.6370   38.3710 N.pl3 301  NAD301      0.2180
     19  N1A       27.8960    3.5030   36.7760 N.2   301  NAD301      0.0021
     20  C2A       28.3550    3.6520   35.4790 C.3   301  NAD301      0.5254
     21  N3A       27.6960    4.1730   34.4650 N.2   301  NAD301     -0.0055
     22  C4A       26.4350    4.4910   34.7890 C.2   301  NAD301      0.3518
     23  O3        22.1970    9.9680   29.4100 O.3   301  NAD301     -0.2703
     24  PN        22.9920   11.2930   29.1440 P.3   301  NAD301      0.2189
     25  O1N       21.9250   12.2660   28.7530 O.3   301  NAD301     -0.4371
     26  O2N       24.1530   11.1080   28.2240 O.2   301  NAD301     -0.5170
     27  O5D       23.6270   11.6730   30.5640 O.3   301  NAD301     -0.3112
     28  C5D       25.0190   12.0770   30.7250 C.3   301  NAD301      0.1813
     29  C4D       25.0910   13.0400   31.8980 C.3   301  NAD301      0.1799
     30  O4D       24.4200   14.2580   31.4050 O.3   301  NAD301     -0.3327
     31  C3D       24.2710   12.5290   33.1180 C.3   301  NAD301      0.2158
     32  O3D       25.0540   12.9400   34.2500 O.3   301  NAD301     -0.2175
     33  C2D       23.0220   13.3780   33.0220 C.3   301  NAD301      0.2309
     34  O2D       22.5180   13.5730   34.3790 O.3   301  NAD301     -0.2158
     35  C1D       23.5940   14.6750   32.4530 C.3   301  NAD301      0.2263
     36  N1N       22.6050   15.5580   31.7870 N.pl3 301  NAD301     -0.2787
     37  C2N       21.8620   15.1520   30.7680 C.3   301  NAD301      0.1244
     38  C3N       20.9560   16.0220   30.1970 C.2   301  NAD301      0.0544
     39  C7N       20.0560   15.7010   29.0100 C.2   301  NAD301      0.2818
     40  O7N       19.1420   16.3530   28.6240 O.2   301  NAD301     -0.2670
     41  N7N       20.4080   14.5620   28.2870 N.am  301  NAD301     -0.0839
     42  C4N       20.7570   17.3580   30.7130 C.2   301  NAD301      0.0033
     43  C5N       21.5780   17.6620   31.7910 C.2   301  NAD301      0.0157
     44  C6N       22.5590   16.8680   32.4020 C.2   301  NAD301      0.0633
@<TRIPOS>BOND
     1     3     1    2
     2    26    24    2
     3    41    39   am
     4    40    39    2
     5    25    24    1
     6     1    23    1
     7     1     4    1
     8     1     2    1
     9    39    38    1
    10    24    23    1
    11    24    27    1
    12     4     5    1
    13     9     8    1
    14    38    42    2
    15    38    37    1
    16     8     6    1
    17     8    10    1
    18    27    28    1
    19    42    43    1
    20    28    29    1
    21    37    36    1
    22     5     6    1
    23     6     7    1
    24    30    29    1
    25    30    35    1
    26    11    10    1
    27    10    12    1
    28    36    44    1
    29    36    35    1
    30    43    44    2
    31    29    31    1
    32     7    12    1
    33    35    33    1
    34    12    13    1
    35    33    31    1
    36    33    34    1
    37    31    32    1
    38    13    14    1
    39    13    22    1
    40    21    22    2
    41    21    20    1
    42    14    15    1
    43    22    16    1
    44    20    19    1
    45    15    16    2
    46    16    17    1
    47    19    17    2
    48    17    18    1
