@<TRIPOS>MOLECULE
1e3z_GLC_A_1.pdb
 11 11 0 0 0
SMALL
GASTEIGER

@<TRIPOS>ATOM
      1  C1        39.1920   38.4680   40.2250 C.3   803  GLC803      0.1777
      2  C2        38.1910   38.9650   41.2930 C.3   803  GLC803      0.2141
      3  C3        37.6700   40.3640   40.8410 C.3   803  GLC803      0.2173
      4  C4        38.8860   41.2750   40.5940 C.3   803  GLC803      0.2142
      5  C5        39.8650   40.6690   39.5670 C.3   803  GLC803      0.1810
      6  C6        41.1940   41.4550   39.6520 C.3   803  GLC803      0.2141
      7  O2        37.0500   38.1380   41.4530 O.3   803  GLC803     -0.2176
      8  O3        36.8650   40.9720   41.8540 O.3   803  GLC803     -0.2175
      9  O4        38.5080   42.6040   40.1900 O.3   803  GLC803     -0.2176
     10  O5        40.2340   39.3790   40.0250 O.3   803  GLC803     -0.3481
     11  O6        41.9980   41.1880   38.5120 O.3   803  GLC803     -0.2176
@<TRIPOS>BOND
     1    11     6    1
     2     5     6    1
     3     5    10    1
     4     5     4    1
     5    10     1    1
     6     9     4    1
     7     1     2    1
     8     4     3    1
     9     3     2    1
    10     3     8    1
    11     2     7    1
