@<TRIPOS>MOLECULE
1e3z_ACI_A_1.pdb
 12 12 0 0 0
SMALL
GASTEIGER

@<TRIPOS>ATOM
      1  C1        38.5890   35.2770   35.9610 C.3   804  ACI804      0.1462
      2  C2        38.6790   34.8450   37.4340 C.3   804  ACI804      0.2065
      3  C3        38.2410   35.9440   38.3920 C.3   804  ACI804      0.2179
      4  C4        39.1410   37.1980   38.1970 C.3   804  ACI804      0.2053
      5  C5        39.2690   37.5780   36.7520 C.2   804  ACI804      0.0180
      6  C6        39.5850   39.0380   36.4980 C.3   804  ACI804      0.2066
      7  C7        39.0880   36.6910   35.7710 C.2   804  ACI804     -0.0084
      8  N1        37.1890   35.1790   35.4680 N.3   804  ACI804     -0.1254
      9  O2        37.9840   33.6560   37.7360 O.3   804  ACI804     -0.2184
     10  O3        38.2840   35.5100   39.7470 O.3   804  ACI804     -0.2172
     11  O4        38.6180   38.3210   38.9220 O.3   804  ACI804     -0.2157
     12  O6        39.3830   39.4170   35.1590 O.3   804  ACI804     -0.2155
@<TRIPOS>BOND
     1    12     6    1
     2     8     1    1
     3     7     1    1
     4     7     5    2
     5     1     2    1
     6     6     5    1
     7     5     4    1
     8     2     9    1
     9     2     3    1
    10     4     3    1
    11     4    11    1
    12     3    10    1
