@<TRIPOS>MOLECULE
1e40_GLC_A_1.pdb
 11 11 0 0 0
SMALL
GASTEIGER

@<TRIPOS>ATOM
      1  C1         1.2840   29.2180   30.5680 C.3   801  GLC801      0.1777
      2  C2        -0.2390   29.0450   30.7310 C.3   801  GLC801      0.2141
      3  C3        -0.9460   28.9990   29.3670 C.3   801  GLC801      0.2173
      4  C4        -0.5810   30.2400   28.5480 C.3   801  GLC801      0.2142
      5  C5         0.9510   30.1670   28.3520 C.3   801  GLC801      0.1810
      6  C6         1.5160   31.3610   27.5680 C.3   801  GLC801      0.2141
      7  O2        -0.5290   27.8160   31.3870 O.3   801  GLC801     -0.2176
      8  O3        -2.3460   28.9320   29.5500 O.3   801  GLC801     -0.2175
      9  O4        -1.2690   30.3900   27.3280 O.3   801  GLC801     -0.2176
     10  O5         1.5540   30.2190   29.6340 O.3   801  GLC801     -0.3481
     11  O6         1.6280   32.5480   28.3380 O.3   801  GLC801     -0.2176
@<TRIPOS>BOND
     1     9     4    1
     2     6    11    1
     3     6     5    1
     4     5     4    1
     5     5    10    1
     6     4     3    1
     7     3     8    1
     8     3     2    1
     9    10     1    1
    10     1     2    1
    11     2     7    1
