@<TRIPOS>MOLECULE
1e4e_PHY_A_1.pdb
 14 11 0 0 0
SMALL
GASTEIGER

@<TRIPOS>ATOM
      1  C2        30.9880   43.0320   14.0740 C.3   355  PHY355      0.0000
      2  C1'       30.5920   42.8590   10.8880 C.3   355  PHY355      0.0924
      3  C2'       29.6780   42.6580    9.7020 C.3   355  PHY355      0.1124
      4  C3'       29.7930   43.3070    8.3070 C.3   355  PHY355      0.0123
      5  C         28.1080   42.3640   10.0610 C.2   355  PHY355      0.3648
      6  O1        27.7350   41.4260    9.5700 O.co2 355  PHY355     -0.2457
      7  O2        27.6380   43.3070   10.8680 O.co2 355  PHY355     -0.2457
      8  N1        32.8120   41.7610   13.7540 N.3   355  PHY355      0.0000
      9  P1        31.1090   41.7590   11.8970 P.3   355  PHY355      0.2268
     10  O1P       30.0610   40.8120   12.1820 O.3   355  PHY355     -0.1770
     11  O2P       32.0800   40.8700   11.1260 O.3   355  PHY355     -0.2546
     12  P2        33.5010   41.2880   10.5220 P.3   355  PHY355      0.3987
     13  O3P       33.3610   42.6690   10.1910 O.3   355  PHY355     -0.1423
     14  O4P       33.8660   40.4190    9.4440 O.3   355  PHY355     -0.1423
@<TRIPOS>BOND
     1     4     3    1
     2    14    12    1
     3     6     5   ar
     4     3     5    1
     5     3     2    1
     6     5     7   ar
     7    13    12    1
     8    12    11    1
     9     2     9    1
    10    11     9    1
    11     9    10    1
