@<TRIPOS>MOLECULE
1e4e_ADP_A_1.pdb
 27 29 0 0 0
SMALL
GASTEIGER

@<TRIPOS>ATOM
      1  PB        37.6400   41.6230   10.0730 P.3   350  ADP350      0.5373
      2  O1B       37.5060   40.8390   11.3800 O.3   350  ADP350     -0.1143
      3  O2B       36.4600   41.4210    9.1740 O.2   350  ADP350     -0.2221
      4  O3B       37.9520   42.9940   10.4040 O.3   350  ADP350     -0.1143
      5  PA        38.6710   40.1570    7.8110 P.3   350  ADP350      0.2231
      6  O1A       39.8060   39.2450    7.7560 O.3   350  ADP350     -0.4370
      7  O2A       37.3570   39.5380    7.4380 O.2   350  ADP350     -0.5169
      8  O3A       38.7800   40.8300    9.2460 O.3   350  ADP350     -0.2261
      9  O5'       39.0650   41.3560    6.7850 O.3   350  ADP350     -0.3111
     10  C5'       38.1590   42.2440    6.1890 C.3   350  ADP350      0.1813
     11  C4'       38.0230   42.1310    4.6630 C.3   350  ADP350      0.1821
     12  O4'       39.2390   42.2300    3.9620 O.3   350  ADP350     -0.3135
     13  C3'       37.4110   40.8370    4.1290 C.3   350  ADP350      0.2184
     14  O3'       36.0550   40.9480    4.2810 O.3   350  ADP350     -0.2174
     15  C2'       37.8370   40.7260    2.6750 C.3   350  ADP350      0.2570
     16  O2'       37.0990   41.5950    1.8390 O.3   350  ADP350     -0.2130
     17  C1'       39.2570   41.2930    2.8380 C.3   350  ADP350      0.3186
     18  N9        40.3290   40.2820    3.0680 N.pl3 350  ADP350     -0.1439
     19  C8        40.9840   40.1010    4.2910 C.3   350  ADP350      0.3377
     20  N7        41.9100   39.1350    4.1690 N.2   350  ADP350     -0.2095
     21  C5        41.8430   38.6820    2.8800 C.2   350  ADP350      0.2526
     22  C6        42.5970   37.7390    2.2020 C.2   350  ADP350      0.4393
     23  N6        43.6470   37.1500    2.7500 N.pl3 350  ADP350      0.2180
     24  N1        42.3290   37.5140    0.8750 N.2   350  ADP350      0.0021
     25  C2        41.3160   38.2300    0.2470 C.3   350  ADP350      0.5254
     26  N3        40.6190   39.1970    0.8810 N.2   350  ADP350     -0.0055
     27  C4        40.8870   39.4100    2.1850 C.2   350  ADP350      0.3518
@<TRIPOS>BOND
     1    25    24    1
     2    25    26    1
     3    24    22    2
     4    26    27    2
     5    16    15    1
     6    27    21    1
     7    27    18    1
     8    22    23    1
     9    22    21    1
    10    15    17    1
    11    15    13    1
    12    17    18    1
    13    17    12    1
    14    21    20    2
    15    18    19    1
    16    12    11    1
    17    13    14    1
    18    13    11    1
    19    20    19    1
    20    11    10    1
    21    10     9    1
    22     9     5    1
    23     7     5    2
    24     6     5    1
    25     5     8    1
    26     3     1    2
    27     8     1    1
    28     1     4    1
    29     1     2    1
