@<TRIPOS>MOLECULE
1e4h_PBR_A_1.pdb
 12 12 0 0 0
SMALL
GASTEIGER

@<TRIPOS>ATOM
      1 BR1        45.4350    1.4780    4.0820 Br    998  PBR998     -0.0451
      2 BR2        45.4760    1.4980    7.4080 Br    998  PBR998     -0.0479
      3 BR3        43.0000    0.0000    9.0860 Br    998  PBR998     -0.0479
      4 BR4        40.5240   -1.4980    7.4080 Br    998  PBR998     -0.0479
      5 BR5        40.5650   -1.4780    4.0820 Br    998  PBR998     -0.0451
      6  O1        43.0000    0.0000    3.0340 O.3   998  PBR998     -0.2855
      7  C1        44.0570    0.6320    5.0620 C.ar  998  PBR998      0.0806
      8  C2        44.0700    0.6370    6.4750 C.ar  998  PBR998      0.0506
      9  C3        43.0000    0.0000    7.1900 C.ar  998  PBR998      0.0481
     10  C4        41.9300   -0.6370    6.4750 C.ar  998  PBR998      0.0506
     11  C5        41.9400   -0.6320    5.0620 C.ar  998  PBR998      0.0806
     12  C6        43.0000    0.0000    4.3690 C.ar  998  PBR998      0.2089
@<TRIPOS>BOND
     1     6    12    1
     2     1     7    1
     3     5    11    1
     4    12     7   ar
     5    12    11   ar
     6     7     8   ar
     7    11    10   ar
     8     8     9   ar
     9     8     2    1
    10    10     9   ar
    11    10     4    1
    12     9     3    1
