@<TRIPOS>MOLECULE
1e4i_G2F_A_1.pdb
 11 11 0 0 0
SMALL
GASTEIGER

@<TRIPOS>ATOM
      1  C1        34.9120   56.8750   18.0400 C.3   2000  G2F2000     0.1801
      2  C2        35.2670   55.7770   19.0920 C.3   2000  G2F2000     0.2230
      3  C3        36.7590   55.8170   19.4520 C.3   2000  G2F2000     0.2194
      4  C4        37.5710   55.6300   18.1850 C.3   2000  G2F2000     0.2144
      5  C5        37.2440   56.7830   17.2590 C.3   2000  G2F2000     0.1810
      6  C6        38.0130   56.6860   15.9580 C.3   2000  G2F2000     0.2141
      7  O3        37.0790   54.8220   20.4180 O.3   2000  G2F2000    -0.2173
      8  O4        38.9550   55.6460   18.4940 O.3   2000  G2F2000    -0.2176
      9  O5        35.8280   56.7900   16.9330 O.3   2000  G2F2000    -0.3479
     10  O6        37.7260   55.4800   15.2650 O.3   2000  G2F2000    -0.2176
     11  F2        34.5020   55.8990   20.2920 F     2000  G2F2000    -0.2317
@<TRIPOS>BOND
     1    10     6    1
     2     6     5    1
     3     9     5    1
     4     9     1    1
     5     5     4    1
     6     1     2    1
     7     4     8    1
     8     4     3    1
     9     2     3    1
    10     2    11    1
    11     3     7    1
