@<TRIPOS>MOLECULE
1e4i_NFG_A_1.pdb
 24 25 0 0 0
SMALL
GASTEIGER

@<TRIPOS>ATOM
      1  C1        17.5300   42.4260   36.3630 C.3   3000  NFG3000     0.3242
      2  O1        18.0640   43.4290   37.1830 O.3   3000  NFG3000    -0.4486
      3  C2        16.9000   43.1330   35.2030 C.3   3000  NFG3000     0.2631
      4  F         15.8790   44.0080   35.6650 F     3000  NFG3000    -0.2276
      5  C3        16.3520   42.1240   34.2250 C.3   3000  NFG3000     0.2233
      6  O3        15.9230   42.8190   33.0460 O.3   3000  NFG3000    -0.2171
      7  C4        17.4100   41.1000   33.8630 C.3   3000  NFG3000     0.2147
      8  O4        16.7930   40.0760   33.0810 O.3   3000  NFG3000    -0.2176
      9  C5        18.0240   40.4810   35.1060 C.3   3000  NFG3000     0.1846
     10  C6        19.1750   39.5980   34.7520 C.3   3000  NFG3000     0.2142
     11  O6        19.7700   38.9900   35.8940 O.3   3000  NFG3000    -0.2176
     12  O5        18.5510   41.5320   35.9480 O.3   3000  NFG3000    -0.3155
     13  C11       18.4250   43.1500   38.4600 C.ar  3000  NFG3000     0.1638
     14  C12       19.0000   44.1850   39.2060 C.ar  3000  NFG3000     0.1783
     15  N1        19.2070   45.5110   38.6360 N.pl3 3000  NFG3000     0.0607
     16  O11       19.3190   45.6390   37.4280 O.2   3000  NFG3000    -0.1260
     17  O12       19.2730   46.4910   39.3740 O.2   3000  NFG3000    -0.1260
     18  C13       19.3940   43.9850   40.5110 C.ar  3000  NFG3000     0.0513
     19  C14       19.2250   42.7720   41.0910 C.ar  3000  NFG3000     0.1447
     20  N2        19.5860   42.4200   42.4370 N.pl3 3000  NFG3000     0.0577
     21  O21       19.0820   41.4400   42.9740 O.2   3000  NFG3000    -0.1261
     22  O22       20.4160   43.1010   43.0250 O.2   3000  NFG3000    -0.1261
     23  C15       18.6560   41.7370   40.3730 C.ar  3000  NFG3000     0.0273
     24  C16       18.2580   41.9250   39.0660 C.ar  3000  NFG3000     0.0404
@<TRIPOS>BOND
     1     6     5    1
     2     8     7    1
     3     7     5    1
     4     7     9    1
     5     5     3    1
     6    10     9    1
     7    10    11    1
     8     9    12    1
     9     3     4    1
    10     3     1    1
    11    12     1    1
    12     1     2    1
    13     2    13    1
    14    16    15    2
    15    13    24   ar
    16    13    14   ar
    17    15    14    1
    18    15    17    2
    19    24    23   ar
    20    14    18   ar
    21    23    19   ar
    22    18    19   ar
    23    19    20    1
    24    20    21    2
    25    20    22    2
