@<TRIPOS>MOLECULE
1e4k_GLA_A_1.pdb
 11 11 0 0 0
SMALL
GASTEIGER

@<TRIPOS>ATOM
      1  C1        58.9260   17.7800   -2.3390 C.3   807  GLA807      0.1777
      2  C2        58.6400   16.2850   -2.7120 C.3   807  GLA807      0.2141
      3  C3        59.4480   15.3470   -1.8220 C.3   807  GLA807      0.2173
      4  C4        60.9220   15.7160   -1.9830 C.3   807  GLA807      0.2142
      5  C5        61.0840   17.1390   -1.4460 C.3   807  GLA807      0.1810
      6  C6        62.5230   17.6210   -1.3700 C.3   807  GLA807      0.2141
      7  O2        57.2540   15.9650   -2.6150 O.3   807  GLA807     -0.2176
      8  O3        59.2190   13.9960   -2.1960 O.3   807  GLA807     -0.2175
      9  O4        61.2580   15.6870   -3.3680 O.3   807  GLA807     -0.2176
     10  O5        60.3500   18.0590   -2.2930 O.3   807  GLA807     -0.3481
     11  O6        63.1080   17.3270   -0.1040 O.3   807  GLA807     -0.2176
@<TRIPOS>BOND
     1     9     4    1
     2     2     7    1
     3     2     1    1
     4     2     3    1
     5     1    10    1
     6    10     5    1
     7     8     3    1
     8     4     3    1
     9     4     5    1
    10     5     6    1
    11     6    11    1
