@<TRIPOS>MOLECULE
1e4k_GAL_B_1.pdb
 11 11 0 0 0
SMALL
GASTEIGER

@<TRIPOS>ATOM
      1  C1        41.5450   41.1930   18.0060 C.3   807  GAL807      0.1777
      2  C2        41.8110   42.3840   18.9600 C.3   807  GAL807      0.2141
      3  C3        41.2390   42.1020   20.3350 C.3   807  GAL807      0.2173
      4  C4        39.7660   41.8200   20.1600 C.3   807  GAL807      0.2142
      5  C5        39.6350   40.5620   19.3270 C.3   807  GAL807      0.1810
      6  C6        38.1890   40.1120   19.1900 C.3   807  GAL807      0.2141
      7  O2        43.2090   42.6300   19.0700 O.3   807  GAL807     -0.2176
      8  O3        41.4240   43.2300   21.1760 O.3   807  GAL807     -0.2175
      9  O4        39.1760   42.9090   19.4600 O.3   807  GAL807     -0.2176
     10  O5        40.1520   40.8210   17.9960 O.3   807  GAL807     -0.3481
     11  O6        37.6030   39.6810   20.4230 O.3   807  GAL807     -0.2176
@<TRIPOS>BOND
     1    10     1    1
     2    10     5    1
     3     1     2    1
     4     2     7    1
     5     2     3    1
     6     6     5    1
     7     6    11    1
     8     5     4    1
     9     9     4    1
    10     4     3    1
    11     3     8    1
