@<TRIPOS>MOLECULE
1e4k_BMA_A_1.pdb
 11 11 0 0 0
SMALL
GASTEIGER

@<TRIPOS>ATOM
      1  C1        53.6880   29.5710   -0.8580 C.3   804  BMA804      0.1777
      2  C2        53.7290   30.5450    0.3350 C.3   804  BMA804      0.2141
      3  C3        54.9440   30.2590    1.2430 C.3   804  BMA804      0.2173
      4  C4        55.1030   28.7610    1.5450 C.3   804  BMA804      0.2142
      5  C5        54.8160   27.8370    0.3270 C.3   804  BMA804      0.1810
      6  C6        54.5730   26.4490    0.8350 C.3   804  BMA804      0.2141
      7  O2        52.5450   30.3980    1.0920 O.3   804  BMA804     -0.2176
      8  O3        54.8290   30.9700    2.5060 O.3   804  BMA804     -0.2175
      9  O4        56.4270   28.5250    2.0350 O.3   804  BMA804     -0.2176
     10  O5        53.6020   28.2330   -0.3480 O.3   804  BMA804     -0.3481
     11  O6        54.9630   25.4420   -0.1180 O.3   804  BMA804     -0.2176
@<TRIPOS>BOND
     1     1    10    1
     2     1     2    1
     3    10     5    1
     4    11     6    1
     5     5     6    1
     6     5     4    1
     7     2     7    1
     8     2     3    1
     9     3     4    1
    10     3     8    1
    11     4     9    1
