@<TRIPOS>MOLECULE
1e4m_MAN_M_1.pdb
 11 11 0 0 0
SMALL
GASTEIGER

@<TRIPOS>ATOM
      1  C1        40.9770   88.8870   33.5440 C.3   956  MAN956      0.1777
      2  C2        42.4560   88.5150   33.4420 C.3   956  MAN956      0.2141
      3  C3        43.3140   88.9390   34.6340 C.3   956  MAN956      0.2173
      4  C4        43.1660   90.5000   34.7110 C.3   956  MAN956      0.2142
      5  C5        41.6350   90.7470   35.0030 C.3   956  MAN956      0.1810
      6  C6        41.3760   92.2640   34.9380 C.3   956  MAN956      0.2141
      7  O2        43.1300   89.0780   32.3090 O.3   956  MAN956     -0.2176
      8  O3        44.6970   88.6450   34.3290 O.3   956  MAN956     -0.2175
      9  O4        43.9130   90.9980   35.8330 O.3   956  MAN956     -0.2176
     10  O5        40.7880   90.2560   33.8700 O.3   956  MAN956     -0.3481
     11  O6        40.0480   92.4660   35.3920 O.3   956  MAN956     -0.2176
@<TRIPOS>BOND
     1     7     2    1
     2     2     1    1
     3     2     3    1
     4     1    10    1
     5    10     5    1
     6     8     3    1
     7     3     4    1
     8     4     5    1
     9     4     9    1
    10     6     5    1
    11     6    11    1
