@<TRIPOS>MOLECULE
1e4m_NAG_M_1.pdb
 14 14 0 0 0
SMALL
GASTEIGER

@<TRIPOS>ATOM
      1  C1        21.8210  132.1420   62.3670 C.3   901  NAG901      0.1665
      2  C2        21.2380  133.4080   62.9460 C.3   901  NAG901      0.1576
      3  C3        19.7730  133.0740   62.8330 C.3   901  NAG901      0.2069
      4  C4        19.4830  132.7650   61.3500 C.3   901  NAG901      0.2134
      5  C5        20.2730  131.5440   60.8430 C.3   901  NAG901      0.1809
      6  C6        20.1080  131.2200   59.3830 C.3   901  NAG901      0.2141
      7  C7        22.1100  134.7640   64.8330 C.2   901  NAG901      0.2420
      8  C8        22.3400  134.7950   66.3010 C.3   901  NAG901      0.0964
      9  N2        21.6240  133.6100   64.3480 N.am  901  NAG901     -0.2019
     10  O3        19.0330  134.1820   63.3100 O.3   901  NAG901     -0.2184
     11  O4        18.0690  132.4950   61.1810 O.3   901  NAG901     -0.2176
     12  O5        21.6680  131.9310   60.9770 O.3   901  NAG901     -0.3489
     13  O6        20.7260  129.9590   59.1000 O.3   901  NAG901     -0.2176
     14  O7        22.3400  135.6750   64.1650 O.2   901  NAG901     -0.2733
@<TRIPOS>BOND
     1    13     6    1
     2     6     5    1
     3     5    12    1
     4     5     4    1
     5    12     1    1
     6    11     4    1
     7     4     3    1
     8     1     2    1
     9     3     2    1
    10     3    10    1
    11     2     9    1
    12    14     7    2
    13     9     7   am
    14     7     8    1
