@<TRIPOS>MOLECULE
1e4n_HBO_A_1.pdb
 15 16 0 0 0
SMALL
GASTEIGER

@<TRIPOS>ATOM
      1  O1A       28.8260    4.6120   29.4620 O.3   514  HBO514     -0.1671
      2  C3B       31.0800    5.2810   29.8900 C.2   514  HBO514      0.1460
      3  N3B       32.4910    5.4450   29.5080 N.am  514  HBO514     -0.2544
      4  C4B       32.9000    4.5090   28.4510 C.ar  514  HBO514      0.0919
      5  C1B       31.9610    3.7170   27.7490 C.ar  514  HBO514      0.1587
      6  O1B       30.5330    3.7750   28.0690 O.3   514  HBO514     -0.4449
      7  C2B       30.1010    4.9150   28.8690 C.3   514  HBO514      0.3632
      8  C5B       34.2490    4.3940   28.1260 C.ar  514  HBO514      0.0215
      9  C6B       34.6440    3.5120   27.1240 C.ar  514  HBO514      0.0384
     10  C8B       32.3330    2.8470   26.7480 C.ar  514  HBO514      0.0752
     11  O3B       30.6700    5.6860   30.9910 O.2   514  HBO514     -0.5358
     12  OHB       33.3970    5.3480   30.6930 O.3   514  HBO514     -0.4156
     13  C7B       33.6910    2.7430   26.4280 C.ar  514  HBO514      0.1418
     14  O7B       34.1310    1.8230   25.3510 O.3   514  HBO514     -0.4713
     15  C9B       35.4860    1.2800   25.6270 C.3   514  HBO514      0.2525
@<TRIPOS>BOND
     1    14    15    1
     2    14    13    1
     3    13    10   ar
     4    13     9   ar
     5    10     5   ar
     6     9     8   ar
     7     5     6    1
     8     5     4   ar
     9     6     7    1
    10     8     4   ar
    11     4     3    1
    12     7     1    1
    13     7     2    1
    14     3     2   am
    15     3    12    1
    16     2    11    2
