@<TRIPOS>MOLECULE
1e55_DHR_A_1.pdb
 10 10 0 0 0
SMALL
GASTEIGER

@<TRIPOS>ATOM
      1  N2        30.7560    5.7550   30.2570 N.1   514  DHR514     -0.1955
      2  C2        31.0770    4.9880   29.4290 C.1   514  DHR514      0.0780
      3  C3        32.8530    4.1350   27.8930 C.ar  514  DHR514     -0.0069
      4  C4        33.3070    3.3310   26.8350 C.ar  514  DHR514      0.0001
      5  C8        33.7270    4.9990   28.5930 C.ar  514  DHR514      0.0001
      6  C7        35.0780    5.0510   28.2180 C.ar  514  DHR514      0.0417
      7  C5        34.6720    3.3930   26.4630 C.ar  514  DHR514      0.0417
      8  C6        35.5590    4.2530   27.1580 C.ar  514  DHR514      0.1957
      9  O6        36.8870    4.3210   26.8030 O.3   514  DHR514     -0.2866
     10  C1        31.3380    4.0250   28.2930 C.3   514  DHR514      0.1317
@<TRIPOS>BOND
     1     7     4   ar
     2     7     8   ar
     3     9     8    1
     4     4     3   ar
     5     8     6   ar
     6     3    10    1
     7     3     5   ar
     8     6     5   ar
     9    10     2    1
    10     2     1    3
