@<TRIPOS>MOLECULE
1e55_GLC_A_1.pdb
 12 11 0 0 0
SMALL
GASTEIGER

@<TRIPOS>ATOM
      1  C1        28.6480    2.5650   28.3710 C.3   513  GLC513      0.1777
      2  C2        27.2640    2.6920   27.6890 C.3   513  GLC513      0.2141
      3  C3        26.6360    1.3540   27.2770 C.3   513  GLC513      0.2173
      4  C4        27.6620    0.4020   26.6740 C.3   513  GLC513      0.2142
      5  C5        28.8360    0.2800   27.6270 C.3   513  GLC513      0.1810
      6  C6        29.8860   -0.6930   27.1320 C.3   513  GLC513      0.2141
      7  O2        26.3670    3.3300   28.5890 O.3   513  GLC513     -0.2176
      8  O3        25.5920    1.5870   26.3390 O.3   513  GLC513     -0.2175
      9  O4        27.0690   -0.8630   26.4820 O.3   513  GLC513     -0.2176
     10  O5        29.4760    1.5600   27.7490 O.3   513  GLC513     -0.3481
     11  O6        29.3720   -1.5230   26.1010 O.3   513  GLC513     -0.2176
     12  O1        29.8680    4.2880   27.6670 O.3   513  GLC513      0.0000
@<TRIPOS>BOND
     1    11     6    1
     2     8     3    1
     3     9     4    1
     4     4     3    1
     5     4     5    1
     6     6     5    1
     7     3     2    1
     8     5    10    1
     9     2     1    1
    10     2     7    1
    11    10     1    1
