@<TRIPOS>MOLECULE
1e56_HBO_A_1.pdb
 14 15 0 0 0
SMALL
GASTEIGER

@<TRIPOS>ATOM
      1  C3B       31.4480    4.6450   30.3110 C.2   514  HBO514      0.1163
      2  N3B       32.9010    4.7670   30.0910 N.am  514  HBO514     -0.2564
      3  C4B       33.3790    3.9560   28.9660 C.ar  514  HBO514      0.0917
      4  C1B       32.4990    3.6680   27.9240 C.ar  514  HBO514      0.1561
      5  O1B       31.1500    4.1790   27.9870 O.3   514  HBO514     -0.4672
      6  C2B       30.5760    4.0400   29.3110 C.3   514  HBO514      0.2548
      7  C5B       34.6950    3.4770   28.9330 C.ar  514  HBO514      0.0215
      8  C6B       35.1230    2.6990   27.8470 C.ar  514  HBO514      0.0384
      9  C8B       32.9180    2.8930   26.8360 C.ar  514  HBO514      0.0751
     10  O3B       30.8640    5.1090   31.5410 O.2   514  HBO514     -0.5375
     11  OHB       33.6310    4.4240   31.3280 O.3   514  HBO514     -0.4157
     12  C7B       34.2350    2.4060   26.8000 C.ar  514  HBO514      0.1418
     13  O7B       34.6800    1.5760   25.6680 O.3   514  HBO514     -0.4713
     14  C9B       35.0780    0.2270   26.1330 C.3   514  HBO514      0.2525
@<TRIPOS>BOND
     1    13    14    1
     2    13    12    1
     3    12     9   ar
     4    12     8   ar
     5     9     4   ar
     6     8     7   ar
     7     4     5    1
     8     4     3   ar
     9     5     6    1
    10     7     3   ar
    11     3     2    1
    12     6     1    1
    13     2     1   am
    14     2    11    1
    15     1    10    2
