@<TRIPOS>MOLECULE
1e56_GLC_A_1.pdb
 12 12 0 0 0
SMALL
GASTEIGER

@<TRIPOS>ATOM
      1  C1        28.3630    2.1130   28.8560 C.3   513  GLC513      0.3024
      2  C2        27.3290    2.9460   28.0570 C.3   513  GLC513      0.2434
      3  C3        26.5140    1.9380   27.2210 C.3   513  GLC513      0.2199
      4  C4        27.5000    1.1910   26.3220 C.3   513  GLC513      0.2144
      5  C5        28.5390    0.4910   27.1650 C.3   513  GLC513      0.1836
      6  C6        29.5630   -0.4660   26.4160 C.3   513  GLC513      0.2142
      7  O1        29.2090    3.0410   29.4930 O.3   513  GLC513     -0.1869
      8  O2        26.4570    3.6740   28.9780 O.3   513  GLC513     -0.2148
      9  O3        25.6710    2.7240   26.3440 O.3   513  GLC513     -0.2174
     10  O4        26.7540    0.3430   25.5830 O.3   513  GLC513     -0.2176
     11  O5        29.1820    1.4810   27.9020 O.3   513  GLC513     -0.3236
     12  O6        28.8900   -1.4120   25.7830 O.3   513  GLC513     -0.2176
@<TRIPOS>BOND
     1    10     4    1
     2    12     6    1
     3     4     5    1
     4     4     3    1
     5     9     3    1
     6     6     5    1
     7     5    11    1
     8     3     2    1
     9    11     1    1
    10     2     1    1
    11     2     8    1
    12     1     7    1
