@<TRIPOS>MOLECULE
1e59_VO3_A_1.pdb
 17 16 0 0 0
SMALL
GASTEIGER

@<TRIPOS>ATOM
      1  V1        33.4750   20.7010   20.3010 V     1001  VO31001     0.0000
      2  O0        35.2400   20.8800   20.6400 O.3   1001  VO31001     0.0000
      3  O1        32.9420   19.1520   20.1020 O.3   1001  VO31001     0.0000
      4  O30       33.0300   21.7570   18.9390 O.3   1001  VO31001     0.0000
      5  V2        31.8500   22.6940   22.4200 V     1001  VO31001     0.0000
      6  O2        30.9130   23.5650   21.3360 O.3   1001  VO31001     0.0000
      7  O3        32.5200   21.1970   21.7740 O.3   1001  VO31001     0.0000
      8  O4        30.8190   22.3080   23.7000 O.3   1001  VO31001     0.0000
      9  V3        34.1770   25.2100   23.0250 V     1001  VO31001     0.0000
     10  O5        33.4310   26.4850   22.1310 O.3   1001  VO31001     0.0000
     11  O6        33.1520   23.7840   23.0630 O.3   1001  VO31001     0.0000
     12  O7        34.2760   25.7700   24.6150 O.3   1001  VO31001     0.0000
     13  V4        36.7360   24.0390   21.1710 V     1001  VO31001     0.0000
     14  O8        35.8180   24.9480   22.4830 O.3   1001  VO31001     0.0000
     15  O10       37.6300   25.1400   20.3600 O.3   1001  VO31001     0.0000
     16  O11       37.7100   23.0500   22.1400 O.3   1001  VO31001     0.0000
     17  O00       35.8050   23.0690   19.9640 O.3   1001  VO31001     0.0000
@<TRIPOS>BOND
     1     4     1    1
     2    17    13    1
     3     3     1    1
     4     1     2    1
     5     1     7    1
     6    15    13    1
     7    13    16    1
     8    13    14    1
     9     6     5    1
    10     7     5    1
    11    10     9    1
    12     5    11    1
    13     5     8    1
    14    14     9    1
    15     9    11    1
    16     9    12    1
