@<TRIPOS>MOLECULE
1e5a_TBP_A_1.pdb
 10 10 0 0 0
SMALL
GASTEIGER

@<TRIPOS>ATOM
      1  O1        42.7820    0.0060   29.9180 O.3   999  TBP999     -0.2855
      2  C1        42.5740    0.0900   28.6050 C.ar  999  TBP999      0.2079
      3  C2        43.5750   -0.5490   27.7490 C.ar  999  TBP999      0.0744
      4  C3        43.2630   -0.5080   26.3370 C.ar  999  TBP999      0.0166
      5  C4        42.2080    0.2540   25.8220 C.ar  999  TBP999      0.0357
      6  C5        41.4730    0.9330   26.7150 C.ar  999  TBP999      0.0166
      7  C6        41.6080    0.9560   27.9860 C.ar  999  TBP999      0.0744
      8 BR2        44.9170   -1.5730   28.5020 Br    999  TBP999     -0.0456
      9 BR4        41.9870    0.2930   23.9810 Br    999  TBP999     -0.0490
     10 BR6        40.4580    1.7580   29.2500 Br    999  TBP999     -0.0456
@<TRIPOS>BOND
     1     9     5    1
     2     5     4   ar
     3     5     6   ar
     4     4     3   ar
     5     6     7   ar
     6     3     8    1
     7     3     2   ar
     8     7     2   ar
     9     7    10    1
    10     2     1    1
