@<TRIPOS>MOLECULE
1e5d_FMN_A_1.pdb
 31 33 0 0 0
SMALL
GASTEIGER

@<TRIPOS>ATOM
      1  N1        30.0090   38.2970   61.7760 N.2   403  FMN403     -0.2890
      2  C2        29.0850   37.3870   61.5010 C.1   403  FMN403      0.3669
      3  O2        28.8250   36.4820   62.2480 O.2   403  FMN403     -0.1744
      4  N3        28.3450   37.4200   60.2890 N.2   403  FMN403     -0.2300
      5  C4        28.2840   38.5830   59.5430 C.1   403  FMN403      0.2513
      6  O4        27.6600   38.5500   58.4990 O.2   403  FMN403     -0.2057
      7  C4A       29.2630   39.6100   59.8680 C.2   403  FMN403      0.2700
      8  N5        29.5330   40.6010   58.9880 N.2   403  FMN403     -0.3882
      9  C5A       30.2140   41.6840   59.4910 C.2   403  FMN403      0.1274
     10  C6        30.3990   42.7970   58.6310 C.2   403  FMN403      0.0208
     11  C7        31.2750   43.8060   58.9520 C.2   403  FMN403     -0.0419
     12  C7M       31.6710   44.8090   57.9020 C.3   403  FMN403      0.0264
     13  C8        32.0570   43.7190   60.1700 C.3   403  FMN403      0.0205
     14  C8M       32.8490   44.9150   60.6460 C.3   403  FMN403      0.0044
     15  C9        31.7290   42.7300   61.1100 C.3   403  FMN403      0.0311
     16  C9A       30.9830   41.6280   60.6860 C.3   403  FMN403      0.1278
     17  N10       30.9190   40.4010   61.4160 N.pl3 403  FMN403     -0.2727
     18  C10       30.0510   39.4530   61.0810 C.2   403  FMN403      0.2414
     19  C1'       31.6690   40.3400   62.6930 C.3   403  FMN403      0.1291
     20  C2'       33.1480   39.9460   62.4480 C.3   403  FMN403      0.2044
     21  O2'       33.2180   38.6600   61.8440 O.3   403  FMN403     -0.2185
     22  C3'       33.7900   39.9180   63.8260 C.3   403  FMN403      0.2164
     23  O3'       34.0420   41.2770   64.1740 O.3   403  FMN403     -0.2175
     24  C4'       35.1190   39.1580   63.8030 C.3   403  FMN403      0.2147
     25  O4'       35.7130   39.1780   65.1110 O.3   403  FMN403     -0.2176
     26  C5'       36.0080   39.8400   62.7860 C.3   403  FMN403      0.1892
     27  O5'       37.3950   39.1040   62.7470 O.3   403  FMN403     -0.2674
     28  P         38.6630   39.8370   62.3260 P.3   403  FMN403      0.5327
     29  O1P       39.6520   38.7520   61.8950 O.3   403  FMN403     -0.1145
     30  O2P       38.4130   40.8300   61.3810 O.2   403  FMN403     -0.2224
     31  O3P       39.2240   40.5310   63.4810 O.3   403  FMN403     -0.1145
@<TRIPOS>BOND
     1    12    11    1
     2     6     5    2
     3    10    11    2
     4    10     9    1
     5    11    13    1
     6     8     9    2
     7     8     7    2
     8     9    16    1
     9     5     7    1
    10     5     4    2
    11     7    18    1
    12    13    14    1
    13    13    15    1
    14     4     2    2
    15    16    15    1
    16    16    17    1
    17    18    17    1
    18    18     1    2
    19    30    28    2
    20    17    19    1
    21     2     1    2
    22     2     3    2
    23    21    20    1
    24    29    28    1
    25    28    27    1
    26    28    31    1
    27    20    19    1
    28    20    22    1
    29    27    26    1
    30    26    24    1
    31    24    22    1
    32    24    25    1
    33    22    23    1
