@<TRIPOS>MOLECULE
1e5e_PPJ_A_1.pdb
 23 23 0 0 0
SMALL
GASTEIGER

@<TRIPOS>ATOM
      1  N1        39.7290   48.8590   11.0940 N.ar  405  PPJ405     -0.2452
      2  C2        38.6890   49.7120   11.2000 C.ar  405  PPJ405      0.0981
      3  C6        40.9140   49.1210   11.7140 C.ar  405  PPJ405      0.0968
      4  C2A       37.6080   49.7910   10.3060 C.3   405  PPJ405      0.0555
      5  C3        38.8490   50.7650   12.1240 C.ar  405  PPJ405      0.2103
      6  O3        37.8920   51.6540   12.1090 O.3   405  PPJ405     -0.2853
      7  C4        39.9870   50.9180   12.9220 C.ar  405  PPJ405      0.0587
      8  C4A       40.0430   52.0280   13.8170 C.2   405  PPJ405      0.0967
      9  C5        41.1040   50.1170   12.6850 C.ar  405  PPJ405      0.0316
     10  N         39.3540   53.1700   13.6340 N.2   405  PPJ405     -0.2593
     11  C5A       42.2550   50.0590   13.5360 C.3   405  PPJ405      0.1819
     12  OP4       41.9440   49.4440   14.6290 O.3   405  PPJ405     -0.2653
     13  P         42.8200   49.9130   15.8740 P.3   405  PPJ405      0.5329
     14  OP1       42.3540   48.9690   17.0710 O.3   405  PPJ405     -0.1145
     15  OP2       42.5290   51.4170   16.1640 O.3   405  PPJ405     -0.1145
     16  OP3       44.3770   49.7160   15.6090 O.2   405  PPJ405     -0.2224
     17  CA        39.3180   54.2070   14.5180 C.3   405  PPJ405      0.2056
     18  CB        40.5340   54.7190   15.1670 C.3   405  PPJ405      0.0360
     19  C         38.4600   55.2720   14.1070 C.2   405  PPJ405      0.3866
     20  CG        41.6010   55.4280   14.4150 C.3   405  PPJ405      0.0026
     21  CD        41.4630   56.8580   14.6450 C.3   405  PPJ405      0.0001
     22  O         37.8970   55.1720   12.9570 O.co2 405  PPJ405     -0.2435
     23  OXT       37.8760   56.0490   14.9800 O.co2 405  PPJ405     -0.2435
@<TRIPOS>BOND
     1     4     2    1
     2     1     2   ar
     3     1     3   ar
     4     2     5   ar
     5     3     9   ar
     6     6     5    1
     7     5     7   ar
     8     9     7   ar
     9     9    11    1
    10     7     8    1
    11    22    19   ar
    12    11    12    1
    13    10     8    2
    14    10    17    1
    15    19    17    1
    16    19    23   ar
    17    20    21    1
    18    20    18    1
    19    17    18    1
    20    12    13    1
    21    16    13    2
    22    13    15    1
    23    13    14    1
