@<TRIPOS>MOLECULE
1e5f_PLP_A_1.pdb
 15 15 0 0 0
SMALL
GASTEIGER

@<TRIPOS>ATOM
      1  N1        39.5160   48.6270   11.1270 N.ar  405  PLP405     -0.2452
      2  C2        38.5790   49.5990   11.0010 C.ar  405  PLP405      0.0978
      3  C2A       37.2750   49.5900   10.2740 C.3   405  PLP405      0.0555
      4  C3        38.6970   50.5200   12.0760 C.ar  405  PLP405      0.2049
      5  O3        37.7230   51.4660   12.1230 O.3   405  PLP405     -0.2857
      6  C4        39.8220   50.6550   12.8660 C.ar  405  PLP405      0.0182
      7  C4A       39.7910   52.0130   13.6840 C.3   405  PLP405      0.0342
      8  C5        40.9020   49.9150   12.5430 C.ar  405  PLP405      0.0261
      9  C6        40.7590   48.8930   11.6040 C.ar  405  PLP405      0.0965
     10  C5A       42.1690   49.9360   13.3350 C.3   405  PLP405      0.1815
     11  O4P       41.9290   49.3060   14.6790 O.3   405  PLP405     -0.2653
     12  P         42.8490   49.7690   15.8870 P.3   405  PLP405      0.5329
     13  O1P       42.4550   51.1850   16.0710 O.3   405  PLP405     -0.1145
     14  O2P       42.3770   48.8780   16.9520 O.3   405  PLP405     -0.1145
     15  O3P       44.3410   49.6350   15.5330 O.2   405  PLP405     -0.2224
@<TRIPOS>BOND
     1     3     2    1
     2     2     1   ar
     3     2     4   ar
     4     1     9   ar
     5     9     8   ar
     6     4     5    1
     7     4     6   ar
     8     8     6   ar
     9     8    10    1
    10     6     7    1
    11    10    11    1
    12    11    12    1
    13    15    12    2
    14    12    13    1
    15    12    14    1
