@<TRIPOS>MOLECULE
1e5i_AKG_A_1.pdb
 10 9 0 0 0
SMALL
GASTEIGER

@<TRIPOS>ATOM
      1  C1         9.8570  -12.3640    1.8800 C.2   902  AKG902      0.4219
      2  O1        10.9070  -11.6650    1.8400 O.co2 902  AKG902     -0.2373
      3  O2         8.8440  -12.4330    1.1600 O.co2 902  AKG902     -0.2373
      4  C2         9.7630  -13.3710    3.0720 C.2   902  AKG902      0.2526
      5  O5         8.7160  -14.0290    3.0620 O.2   902  AKG902     -0.2843
      6  C3        10.9150  -13.4090    4.0410 C.3   902  AKG902      0.0881
      7  C4        10.8970  -14.5970    4.9590 C.3   902  AKG902      0.1224
      8  C5        11.9820  -14.7860    5.9770 C.2   902  AKG902      0.3653
      9  O3        12.2200  -15.8950    6.4350 O.co2 902  AKG902     -0.2456
     10  O4        12.6630  -13.7250    6.3490 O.co2 902  AKG902     -0.2456
@<TRIPOS>BOND
     1     3     1   ar
     2     2     1   ar
     3     1     4    1
     4     5     4    2
     5     4     6    1
     6     6     7    1
     7     7     8    1
     8     8    10   ar
     9     8     9   ar
