@<TRIPOS>MOLECULE
1e5j_MGL_A_1.pdb
 13 13 0 0 0
SMALL
GASTEIGER

@<TRIPOS>ATOM
      1  C1         6.2800   37.7230    4.7570 C.3   503  MGL503      0.2695
      2  C2         4.9060   37.5280    5.3620 C.3   503  MGL503      0.2406
      3  C3         4.3370   38.8920    5.7570 C.3   503  MGL503      0.2198
      4  C4         5.3040   39.6830    6.6110 C.3   503  MGL503      0.2144
      5  C5         6.6880   39.7830    5.9750 C.3   503  MGL503      0.1835
      6  C6         7.6520   40.2690    7.0820 C.3   503  MGL503      0.2142
      7  C7         7.9700   36.6670    3.3870 C.3   503  MGL503      0.1769
      8  O1         6.7860   36.5330    4.1800 O.3   503  MGL503     -0.3259
      9  O2         3.9580   36.9810    4.4430 O.3   503  MGL503     -0.2149
     10  O3         3.1580   38.6180    6.4860 O.3   503  MGL503     -0.2174
     11  O4         4.8000   40.9830    6.8720 O.3   503  MGL503     -0.2176
     12  O5         7.1370   38.5070    5.5470 O.3   503  MGL503     -0.3256
     13  O6         8.9190   40.5520    6.3470 O.3   503  MGL503     -0.2176
@<TRIPOS>BOND
     1     7     8    1
     2     8     1    1
     3     9     2    1
     4     1     2    1
     5     1    12    1
     6     2     3    1
     7    12     5    1
     8     3    10    1
     9     3     4    1
    10     5     4    1
    11     5     6    1
    12    13     6    1
    13     4    11    1
