@<TRIPOS>MOLECULE
1e5j_GLC_A_1.pdb
 11 11 0 0 0
SMALL
GASTEIGER

@<TRIPOS>ATOM
      1  C1        -4.3970   42.7460   12.1070 C.3   500  GLC500      0.1777
      2  C2        -5.6310   41.8700   11.7410 C.3   500  GLC500      0.2141
      3  C3        -6.8920   42.7020   11.7810 C.3   500  GLC500      0.2173
      4  C4        -7.0630   43.4260   13.1010 C.3   500  GLC500      0.2142
      5  C5        -5.7690   44.2330   13.3560 C.3   500  GLC500      0.1810
      6  C6        -5.8860   44.9020   14.7230 C.3   500  GLC500      0.2141
      7  O2        -5.4420   41.5210   10.3790 O.3   500  GLC500     -0.2176
      8  O3        -7.9760   41.7910   11.6160 O.3   500  GLC500     -0.2175
      9  O4        -8.2030   44.3080   13.1040 O.3   500  GLC500     -0.2176
     10  O5        -4.6740   43.3550   13.3280 O.3   500  GLC500     -0.3481
     11  O6        -5.8610   43.9760   15.7510 O.3   500  GLC500     -0.2176
@<TRIPOS>BOND
     1     7     2    1
     2     8     3    1
     3     2     3    1
     4     2     1    1
     5     3     4    1
     6     1    10    1
     7     4     9    1
     8     4     5    1
     9    10     5    1
    10     5     6    1
    11     6    11    1
