@<TRIPOS>MOLECULE
1e5j_SGC_A_1.pdb
 11 11 0 0 0
SMALL
GASTEIGER

@<TRIPOS>ATOM
      1  C1         1.1760   43.5660   12.0220 C.3   501  SGC501      0.1776
      2  C2         0.5050   43.6790   13.3910 C.3   501  SGC501      0.2124
      3  O2         1.5000   43.3790   14.3780 O.3   501  SGC501     -0.2177
      4  C3        -0.7020   42.7160   13.4170 C.3   501  SGC501      0.1977
      5  O3        -1.4380   42.8890   14.6180 O.3   501  SGC501     -0.2193
      6  C4        -1.5900   43.0010   12.2230 C.3   501  SGC501      0.1206
      7  C5        -0.8360   42.9720   10.8910 C.3   501  SGC501      0.1614
      8  O5         0.2740   43.9040   10.9880 O.3   501  SGC501     -0.3498
      9  C6        -1.6690   43.4320    9.6550 C.3   501  SGC501      0.2124
     10  O6        -2.2280   44.7130    9.8860 O.3   501  SGC501     -0.2177
     11  S4        -2.9160   41.7240   12.1240 S.3   501  SGC501     -0.0777
@<TRIPOS>BOND
     1     9    10    1
     2     9     7    1
     3     7     8    1
     4     7     6    1
     5     8     1    1
     6     1     2    1
     7    11     6    1
     8     6     4    1
     9     2     4    1
    10     2     3    1
    11     4     5    1
