@<TRIPOS>MOLECULE
1e5n_XYP_A_5.pdb
 10 10 0 0 0
SMALL
GASTEIGER

@<TRIPOS>ATOM
      1  O4A       59.7770   28.4810   75.7160 O.3   405  XYP405     -0.1869
      2  C1B       60.8680   27.6160   75.7390 C.3   405  XYP405      0.3024
      3  C2B       60.8470   26.8730   74.4330 C.3   405  XYP405      0.2434
      4  C3B       62.1050   26.1000   74.2580 C.3   405  XYP405      0.2199
      5  C4B       63.2550   27.0680   74.3230 C.3   405  XYP405      0.2143
      6  C5B       63.2480   27.6560   75.7060 C.3   405  XYP405      0.1804
      7  O2B       59.7440   25.9660   74.4600 O.3   405  XYP405     -0.2148
      8  O3B       62.0620   25.4650   72.9830 O.3   405  XYP405     -0.2174
      9  O4B       64.4800   26.3920   74.0480 O.3   405  XYP405     -0.2176
     10  O5B       62.0290   28.4040   75.9080 O.3   405  XYP405     -0.3237
@<TRIPOS>BOND
     1     8     4    1
     2     9     5    1
     3     4     5    1
     4     4     3    1
     5     5     6    1
     6     3     7    1
     7     3     2    1
     8     6    10    1
     9     1     2    1
    10     2    10    1
