@<TRIPOS>MOLECULE
1e5o_3AI_E_1.pdb
 32 32 0 0 0
SMALL
GASTEIGER

@<TRIPOS>ATOM
      1  O         37.7080  -12.1100    4.4980 O.2   327  3AI327     -0.2718
      2  C1        37.0640  -11.5530    5.3900 C.2   327  3AI327      0.2576
      3  N1        35.4700   -9.7010    5.6740 N.3   327  3AI327     -0.2087
      4  SD        34.5370  -14.5530    4.5710 S.3   327  3AI327     -0.1393
      5  CE        35.1020  -14.8870    6.2180 C.3   327  3AI327      0.0692
      6  CA1       35.6530  -11.0410    5.1220 C.3   327  3AI327      0.1513
      7  CB1       34.6320  -12.0100    5.7220 C.3   327  3AI327      0.0384
      8  CG1       33.9100  -12.8700    4.7040 C.3   327  3AI327      0.0595
      9  C         34.9280   -8.8000    4.6760 C.3   327  3AI327      0.1085
     10  N         35.5850   -8.5580    2.3050 N.3   327  3AI327     -0.1310
     11  CA        36.0130   -8.3930    3.6830 C.3   327  3AI327      0.1135
     12  CB        37.0840   -7.3340    3.8330 C.3   327  3AI327      0.0468
     13  CG        37.4540   -6.6140    2.5700 C.ar  327  3AI327     -0.0207
     14  CZ        38.1710   -5.2500    0.2500 C.ar  327  3AI327     -0.0000
     15  CD1       37.0190   -5.3180    2.3470 C.ar  327  3AI327     -0.0042
     16  CD2       38.2600   -7.2120    1.6170 C.ar  327  3AI327     -0.0042
     17  CE1       37.3670   -4.6390    1.1960 C.ar  327  3AI327     -0.0003
     18  CE2       38.6150   -6.5430    0.4610 C.ar  327  3AI327     -0.0003
     19  N2        37.5400  -11.3720    6.6170 N.am  327  3AI327     -0.1966
     20  CA2       38.8980  -11.8600    6.9570 C.3   327  3AI327      0.1728
     21  C2        38.9430  -13.3710    6.7290 C.2   327  3AI327      0.2617
     22  O1        37.9870  -14.0770    7.0540 O.2   327  3AI327     -0.2715
     23  CB2       39.1730  -11.5500    8.4260 C.3   327  3AI327      0.0334
     24  N3        40.0420  -13.8630    6.1640 N.am  327  3AI327     -0.1942
     25  CA3       40.1660  -15.2940    5.8990 C.3   327  3AI327      0.1977
     26  C3        41.3090  -15.9130    6.7190 C.2   327  3AI327      0.3842
     27  O2        41.5640  -17.1150    6.5640 O.co2 327  3AI327     -0.2437
     28  CB3       40.3750  -15.5990    4.4170 C.3   327  3AI327      0.0311
     29  CG2       39.3750  -16.6550    3.9350 C.3   327  3AI327      0.0023
     30  CG3       41.8010  -16.0400    4.1300 C.3   327  3AI327      0.0023
     31  CD3       38.1430  -16.0730    3.2780 C.3   327  3AI327      0.0001
     32  OXT       41.9510  -15.1920    7.5220 O.co2 327  3AI327     -0.2437
@<TRIPOS>BOND
     1    14    18   ar
     2    14    17   ar
     3    18    16   ar
     4    17    15   ar
     5    16    13   ar
     6    10    11    1
     7    15    13   ar
     8    13    12    1
     9    31    29    1
    10    11    12    1
    11    11     9    1
    12    29    28    1
    13    30    28    1
    14    28    25    1
    15     1     2    2
    16     4     8    1
    17     4     5    1
    18     9     3    1
    19     8     7    1
    20     6     2    1
    21     6     3    1
    22     6     7    1
    23     2    19   am
    24    25    24    1
    25    25    26    1
    26    24    21   am
    27    27    26   ar
    28    19    20    1
    29    26    32   ar
    30    21    20    1
    31    21    22    2
    32    20    23    1
