@<TRIPOS>MOLECULE
1e5q_SHR_A_1.pdb
 19 18 0 0 0
SMALL
GASTEIGER

@<TRIPOS>ATOM
      1  N1        26.3370   43.8090   57.8680 N.3   501  SHR501     -0.1208
      2  C10       25.7390   42.9930   58.9420 C.3   501  SHR501      0.1943
      3  C9        26.7000   41.8500   59.3670 C.3   501  SHR501      0.0307
      4  C8        27.7310   42.3030   60.4210 C.3   501  SHR501      0.0035
      5  C7        29.1440   42.1540   59.8960 C.3   501  SHR501      0.0189
      6  C6        30.0800   42.9670   60.7890 C.3   501  SHR501      0.0893
      7  N         31.3800   43.1210   60.1000 N.3   501  SHR501     -0.2084
      8  C11       25.3230   43.8480   60.1060 C.2   501  SHR501      0.3819
      9  O5        25.8100   45.0070   60.2510 O.co2 501  SHR501     -0.2441
     10  O6        24.4950   43.3960   60.9380 O.co2 501  SHR501     -0.2441
     11  C4        32.0210   44.4370   60.3630 C.3   501  SHR501      0.1763
     12  C3        33.4420   44.3790   59.7740 C.3   501  SHR501      0.0407
     13  C2        34.2730   45.6110   60.1470 C.3   501  SHR501      0.1161
     14  C1        35.7190   45.3120   59.8950 C.2   501  SHR501      0.3649
     15  O1        36.3970   44.7200   60.7680 O.co2 501  SHR501     -0.2457
     16  O2        36.2510   45.6370   58.8080 O.co2 501  SHR501     -0.2457
     17  C5        31.2380   45.5450   59.6980 C.2   501  SHR501      0.3803
     18  O3        31.2520   46.7070   60.1980 O.co2 501  SHR501     -0.2441
     19  O4        30.5730   45.3060   58.6530 O.co2 501  SHR501     -0.2441
@<TRIPOS>BOND
     1     1     2    1
     2    19    17   ar
     3    16    14   ar
     4     2     3    1
     5     2     8    1
     6     3     4    1
     7    17    18   ar
     8    17    11    1
     9    12    13    1
    10    12    11    1
    11    14    13    1
    12    14    15   ar
    13     5     4    1
    14     5     6    1
    15     7    11    1
    16     7     6    1
    17     8     9   ar
    18     8    10   ar
