@<TRIPOS>MOLECULE
1e5q_NDP_A_1.pdb
 48 52 0 0 0
SMALL
GASTEIGER

@<TRIPOS>ATOM
      1  PA        35.2000   43.5060   70.6150 P.3   500  NDP500      0.2189
      2  O1A       34.3070   42.6360   71.3390 O.3   500  NDP500     -0.4371
      3  O2A       34.9570   44.9820   70.5140 O.2   500  NDP500     -0.5170
      4  O5B       36.7010   43.2350   71.2490 O.3   500  NDP500     -0.3112
      5  C5B       37.8190   43.9580   70.7330 C.3   500  NDP500      0.1813
      6  C4B       39.0140   43.4210   71.5190 C.3   500  NDP500      0.1820
      7  O4B       40.1930   44.0950   70.9560 O.3   500  NDP500     -0.3136
      8  C3B       39.1000   43.5970   73.0540 C.3   500  NDP500      0.2157
      9  O3B       39.5300   42.3550   73.6660 O.3   500  NDP500     -0.2175
     10  C2B       40.1350   44.7000   73.2060 C.3   500  NDP500      0.2314
     11  O2B       41.0370   44.9760   74.2940 O.3   500  NDP500     -0.2630
     12  C1B       40.9460   44.5200   72.0470 C.3   500  NDP500      0.3158
     13  N9A       41.7290   45.7700   71.9010 N.pl3 500  NDP500     -0.1439
     14  C8A       41.2660   47.0900   71.6680 C.3   500  NDP500      0.3377
     15  N7A       42.2720   47.9350   71.6210 N.2   500  NDP500     -0.2095
     16  C5A       43.4080   47.2070   71.8210 C.2   500  NDP500      0.2526
     17  C6A       44.7760   47.5310   71.8890 C.2   500  NDP500      0.4393
     18  N6A       45.1720   48.8070   71.7380 N.pl3 500  NDP500      0.2180
     19  N1A       45.6760   46.5480   72.1080 N.2   500  NDP500      0.0021
     20  C2A       45.2600   45.2600   72.2640 C.3   500  NDP500      0.5254
     21  N3A       43.9880   44.8470   72.2210 N.2   500  NDP500     -0.0055
     22  C4A       43.0980   45.8830   71.9930 C.2   500  NDP500      0.3518
     23  O3        35.3830   43.0140   69.1200 O.3   500  NDP500     -0.2703
     24  PN        34.8490   41.8010   68.2110 P.3   500  NDP500      0.2189
     25  O1N       33.3840   41.9060   68.2100 O.2   500  NDP500     -0.5170
     26  O2N       35.4940   40.5690   68.7910 O.3   500  NDP500     -0.4371
     27  O5D       35.5610   42.0940   66.7950 O.3   500  NDP500     -0.3112
     28  C5D       37.0180   42.0410   66.5850 C.3   500  NDP500      0.1813
     29  C4D       37.3000   42.3680   65.0720 C.3   500  NDP500      0.1799
     30  O4D       36.4650   41.5050   64.3080 O.3   500  NDP500     -0.3327
     31  C3D       36.8830   43.8020   64.6610 C.3   500  NDP500      0.2158
     32  O3D       37.8550   44.3430   63.7500 O.3   500  NDP500     -0.2175
     33  C2D       35.5330   43.6370   64.0450 C.3   500  NDP500      0.2309
     34  O2D       35.2350   44.7230   63.1800 O.3   500  NDP500     -0.2158
     35  C1D       35.7580   42.2460   63.3260 C.3   500  NDP500      0.2263
     36  N1N       34.4630   41.5780   63.0540 N.pl3 500  NDP500     -0.2787
     37  C2N       34.3150   41.0840   61.7420 C.3   500  NDP500      0.1244
     38  C3N       33.0620   40.4330   61.4360 C.2   500  NDP500      0.0544
     39  C7N       32.8360   39.8830   60.0910 C.2   500  NDP500      0.2818
     40  O7N       31.7460   39.3910   59.7280 O.2   500  NDP500     -0.2670
     41  N7N       33.8400   39.8730   59.1790 N.am  500  NDP500     -0.0839
     42  C4N       32.0860   40.3390   62.4450 C.2   500  NDP500      0.0033
     43  C5N       32.2550   40.8270   63.7140 C.2   500  NDP500      0.0157
     44  C6N       33.4460   41.4490   64.0280 C.2   500  NDP500      0.0633
     45  P2B       40.8900   45.3420   75.7400 P.3   500  NDP500      0.5328
     46  O1X       40.6160   44.0760   76.4150 O.3   500  NDP500     -0.1145
     47  O2X       39.8290   46.3820   75.8370 O.2   500  NDP500     -0.2224
     48  O3X       42.2150   45.9120   76.1640 O.3   500  NDP500     -0.1145
@<TRIPOS>BOND
     1    41    39   am
     2    40    39    2
     3    39    38    1
     4    38    37    1
     5    38    42    2
     6    37    36    1
     7    42    43    1
     8    36    35    1
     9    36    44    1
    10    34    33    1
    11    35    33    1
    12    35    30    1
    13    43    44    2
    14    32    31    1
    15    33    31    1
    16    30    29    1
    17    31    29    1
    18    29    28    1
    19    28    27    1
    20    27    24    1
    21    25    24    2
    22    24    26    1
    23    24    23    1
    24    23     1    1
    25     3     1    2
    26     1     4    1
    27     1     2    1
    28     5     4    1
    29     5     6    1
    30     7     6    1
    31     7    12    1
    32     6     8    1
    33    15    14    1
    34    15    16    2
    35    14    13    1
    36    18    17    1
    37    16    17    1
    38    16    22    1
    39    17    19    2
    40    13    22    1
    41    13    12    1
    42    22    21    2
    43    12    10    1
    44    19    20    1
    45    21    20    1
    46     8    10    1
    47     8     9    1
    48    10    11    1
    49    11    45    1
    50    45    47    2
    51    45    48    1
    52    45    46    1
