@<TRIPOS>MOLECULE
1e5v_PGD_A_1.pdb
 47 52 0 0 0
SMALL
GASTEIGER

@<TRIPOS>ATOM
      1  PB        37.9110   52.3870   35.6870 P.3   801  PGD801      0.2189
      2  O1B       39.2010   51.8310   36.6370 O.3   801  PGD801     -0.4371
      3  O2B       36.6760   53.2340   36.4030 O.2   801  PGD801     -0.5170
      4  O3B       37.3080   51.0270   35.0380 O.3   801  PGD801     -0.2703
      5  O3A       36.0690   48.7750   34.4390 O.3   801  PGD801     -0.3112
      6  PA        36.3730   50.3740   33.8740 P.3   801  PGD801      0.2189
      7  O1A       37.4400   50.3540   32.5530 O.2   801  PGD801     -0.5170
      8  O2A       35.0160   51.3190   33.6550 O.3   801  PGD801     -0.4371
      9  O5'       38.5820   53.1290   34.2420 O.3   801  PGD801     -0.3112
     10  C5'       37.9810   54.3070   33.8500 C.3   801  PGD801      0.1813
     11  C4'       39.1420   55.1770   33.2660 C.3   801  PGD801      0.1799
     12  O4'       38.6000   56.4120   32.8330 O.3   801  PGD801     -0.3326
     13  C3'       40.0860   55.4800   34.4120 C.3   801  PGD801      0.2158
     14  O3'       41.3430   55.0070   34.0310 O.3   801  PGD801     -0.2175
     15  C2'       39.9850   56.9860   34.5620 C.3   801  PGD801      0.2310
     16  O2'       41.2040   57.5750   34.8680 O.3   801  PGD801     -0.2158
     17  C1'       39.5860   57.3770   33.1390 C.3   801  PGD801      0.2293
     18  N9        38.8400   58.6170   33.0960 N.pl3 801  PGD801     -0.2354
     19  C8        38.0680   59.1670   34.0800 C.3   801  PGD801      0.2246
     20  N7        37.5490   60.3500   33.6950 N.2   801  PGD801     -0.2322
     21  C5        37.9920   60.5310   32.4130 C.2   801  PGD801      0.2182
     22  C6        37.8020   61.5280   31.4740 C.1   801  PGD801      0.2372
     23  O6        37.1120   62.5440   31.5880 O.2   801  PGD801     -0.2069
     24  N1        38.4080   61.4250   30.2750 N.2   801  PGD801     -0.2485
     25  C2        39.2070   60.3800   29.9560 C.1   801  PGD801      0.2531
     26  N2        39.8060   60.3220   28.6870 N.pl3 801  PGD801     -0.0226
     27  N3        39.3780   59.3760   30.8650 N.2   801  PGD801     -0.3074
     28  C4        38.7660   59.4810   32.0690 C.2   801  PGD801      0.2300
     29  C10       34.9210   48.6600   35.2280 C.3   801  PGD801      0.1795
     30  C11       34.4680   47.2060   34.9120 C.3   801  PGD801      0.1589
     31  O11       35.3460   46.3160   35.5660 O.3   801  PGD801     -0.3315
     32  C12       33.0470   47.0030   35.4300 C.3   801  PGD801      0.1004
     33  S12       31.9900   48.4560   35.4770 S.3   801  PGD801     -0.0794
     34  C13       32.7770   45.9810   36.2960 C.3   801  PGD801      0.0980
     35  S13       31.1520   45.7770   37.0080 S.3   801  PGD801     -0.0799
     36  C14       33.6600   44.7790   36.2230 C.3   801  PGD801      0.1678
     37  N15       33.9520   44.2440   37.5280 N.2   801  PGD801     -0.2452
     38  C16       34.8530   43.1500   37.5860 C.2   801  PGD801      0.2464
     39  C17       34.7890   42.1620   38.5880 C.1   801  PGD801      0.2441
     40  O17       33.9230   42.2410   39.4680 O.2   801  PGD801     -0.2063
     41  N18       35.6940   41.1520   38.5860 N.2   801  PGD801     -0.2474
     42  C19       36.6260   41.0940   37.6350 C.1   801  PGD801      0.2608
     43  N19       37.5730   40.0530   37.5910 N.pl3 801  PGD801     -0.0220
     44  N20       36.6920   42.0320   36.6410 N.2   801  PGD801     -0.2682
     45  C21       35.8240   43.0810   36.5990 C.1   801  PGD801      0.1292
     46  N22       35.9200   44.0510   35.5540 N.2   801  PGD801     -0.1767
     47  C23       34.8710   45.0230   35.3100 C.3   801  PGD801      0.2531
@<TRIPOS>BOND
     1    26    25    1
     2    25    24    2
     3    25    27    2
     4    24    22    2
     5    27    28    2
     6    22    23    2
     7    22    21    1
     8    28    21    1
     9    28    18    1
    10    21    20    2
    11     7     6    2
    12    12    17    1
    13    12    11    1
    14    18    17    1
    15    18    19    1
    16    17    15    1
    17    11    10    1
    18    11    13    1
    19     8     6    1
    20    20    19    1
    21    10     9    1
    22     6     5    1
    23     6     4    1
    24    14    13    1
    25     9     1    1
    26    13    15    1
    27     5    29    1
    28    15    16    1
    29    30    29    1
    30    30    32    1
    31    30    31    1
    32     4     1    1
    33    47    46    1
    34    47    31    1
    35    47    36    1
    36    32    33    1
    37    32    34    1
    38    46    45    2
    39     1     3    2
    40     1     2    1
    41    36    34    1
    42    36    37    1
    43    34    35    1
    44    45    44    2
    45    45    38    1
    46    44    42    2
    47    37    38    2
    48    38    39    1
    49    43    42    1
    50    42    41    2
    51    41    39    2
    52    39    40    2
