@<TRIPOS>MOLECULE
1e60_PGD_A_1.pdb
 47 52 0 0 0
SMALL
GASTEIGER

@<TRIPOS>ATOM
      1  PB        37.3120   51.6640   35.2070 P.3   801  PGD801      0.2189
      2  O1B       38.6060   51.3170   36.2200 O.3   801  PGD801     -0.4371
      3  O2B       35.9610   52.5100   35.7640 O.2   801  PGD801     -0.5170
      4  O3B       36.8280   50.1820   34.6440 O.3   801  PGD801     -0.2703
      5  O3A       35.6730   48.0260   33.6910 O.3   801  PGD801     -0.3112
      6  PA        35.9370   49.7010   33.3680 P.3   801  PGD801      0.2189
      7  O1A       36.9320   49.7370   31.9550 O.2   801  PGD801     -0.5170
      8  O2A       34.5170   50.5730   33.2920 O.3   801  PGD801     -0.4371
      9  O5'       37.9940   52.3750   33.7710 O.3   801  PGD801     -0.3112
     10  C5'       37.4510   53.6270   33.4880 C.3   801  PGD801      0.1813
     11  C4'       38.5910   54.4640   32.9330 C.3   801  PGD801      0.1799
     12  O4'       38.0360   55.6830   32.4120 O.3   801  PGD801     -0.3326
     13  C3'       39.6120   54.8060   34.0140 C.3   801  PGD801      0.2158
     14  O3'       40.8760   54.4990   33.4840 O.3   801  PGD801     -0.2175
     15  C2'       39.4400   56.3140   34.1380 C.3   801  PGD801      0.2310
     16  O2'       40.6050   57.0140   34.5090 O.3   801  PGD801     -0.2158
     17  C1'       39.0280   56.6750   32.7270 C.3   801  PGD801      0.2293
     18  N9        38.2630   57.9310   32.6600 N.pl3 801  PGD801     -0.2354
     19  C8        37.3750   58.4150   33.5830 C.3   801  PGD801      0.2246
     20  N7        36.7760   59.5420   33.1280 N.2   801  PGD801     -0.2322
     21  C5        37.3260   59.7690   31.9080 C.2   801  PGD801      0.2182
     22  C6        37.0890   60.7700   30.9770 C.1   801  PGD801      0.2372
     23  O6        36.3290   61.7300   31.1020 O.2   801  PGD801     -0.2069
     24  N1        37.7530   60.6830   29.7870 N.2   801  PGD801     -0.2485
     25  C2        38.6230   59.6610   29.5230 C.1   801  PGD801      0.2531
     26  N2        39.2270   59.6760   28.2530 N.pl3 801  PGD801     -0.0226
     27  N3        38.8480   58.6480   30.4390 N.2   801  PGD801     -0.3074
     28  C4        38.1770   58.7570   31.6130 C.2   801  PGD801      0.2300
     29  C10       34.8870   47.8100   34.7980 C.3   801  PGD801      0.1795
     30  C11       34.3160   46.3950   34.5430 C.3   801  PGD801      0.1589
     31  O11       35.1590   45.4060   35.0910 O.3   801  PGD801     -0.3315
     32  C12       32.8980   46.3270   35.0550 C.3   801  PGD801      0.1004
     33  S12       31.8170   47.7130   34.6640 S.3   801  PGD801     -0.0794
     34  C13       32.3930   45.1450   35.4950 C.3   801  PGD801      0.0980
     35  S13       30.7460   44.9700   36.1580 S.3   801  PGD801     -0.0799
     36  C14       33.3060   43.9560   35.5400 C.3   801  PGD801      0.1678
     37  N15       33.5150   43.5660   36.9400 N.2   801  PGD801     -0.2452
     38  C16       34.3750   42.4210   37.0930 C.2   801  PGD801      0.2464
     39  C17       34.2410   41.4490   38.0740 C.1   801  PGD801      0.2441
     40  O17       33.3910   41.3950   38.9570 O.2   801  PGD801     -0.2063
     41  N18       35.1410   40.4290   38.0270 N.2   801  PGD801     -0.2474
     42  C19       36.1140   40.3020   37.1160 C.1   801  PGD801      0.2608
     43  N19       37.0480   39.2440   37.1600 N.pl3 801  PGD801     -0.0220
     44  N20       36.2310   41.2200   36.1380 N.2   801  PGD801     -0.2682
     45  C21       35.3720   42.2560   36.1210 C.1   801  PGD801      0.1292
     46  N22       35.5740   43.1610   35.0310 N.2   801  PGD801     -0.1767
     47  C23       34.5850   44.1800   34.7210 C.3   801  PGD801      0.2531
@<TRIPOS>BOND
     1    26    25    1
     2    25    24    2
     3    25    27    2
     4    24    22    2
     5    27    28    2
     6    22    23    2
     7    22    21    1
     8    28    21    1
     9    28    18    1
    10    21    20    2
    11     7     6    2
    12    12    17    1
    13    12    11    1
    14    18    17    1
    15    18    19    1
    16    17    15    1
    17    11    10    1
    18    11    13    1
    19    20    19    1
    20     8     6    1
    21     6     5    1
    22     6     4    1
    23    14    13    1
    24    10     9    1
    25     5    29    1
    26     9     1    1
    27    13    15    1
    28    15    16    1
    29    30    29    1
    30    30    32    1
    31    30    31    1
    32     4     1    1
    33    33    32    1
    34    47    46    1
    35    47    31    1
    36    47    36    1
    37    46    45    2
    38    32    34    1
    39     1     3    2
    40     1     2    1
    41    34    36    1
    42    34    35    1
    43    36    37    1
    44    45    44    2
    45    45    38    1
    46    44    42    2
    47    37    38    2
    48    38    39    1
    49    42    43    1
    50    42    41    2
    51    41    39    2
    52    39    40    2
