@<TRIPOS>MOLECULE
1e61_PGD_A_1.pdb
 47 52 0 0 0
SMALL
GASTEIGER

@<TRIPOS>ATOM
      1  PB        38.4600   52.6840   35.9360 P.3   801  PGD801      0.2189
      2  O1B       39.7520   52.3100   36.9000 O.3   801  PGD801     -0.4371
      3  O2B       37.1670   53.5970   36.5680 O.2   801  PGD801     -0.5170
      4  O3B       37.7480   51.3210   35.3750 O.3   801  PGD801     -0.2703
      5  O3A       36.5690   49.1390   34.5170 O.3   801  PGD801     -0.3109
      6  PA        36.8370   50.8030   34.1280 P.3   801  PGD801      0.2189
      7  O1A       37.8040   50.8760   32.7120 O.2   801  PGD801     -0.5170
      8  O2A       35.4150   51.6930   34.0410 O.3   801  PGD801     -0.4371
      9  O5'       39.0380   53.4170   34.4680 O.3   801  PGD801     -0.3112
     10  C5'       38.5020   54.6880   34.2530 C.3   801  PGD801      0.1813
     11  C4'       39.5860   55.5660   33.5910 C.3   801  PGD801      0.1799
     12  O4'       38.9930   56.7760   33.1010 O.3   801  PGD801     -0.3326
     13  C3'       40.6240   55.9330   34.6430 C.3   801  PGD801      0.2158
     14  O3'       41.9170   55.5320   34.2330 O.3   801  PGD801     -0.2175
     15  C2'       40.4400   57.4220   34.7920 C.3   801  PGD801      0.2310
     16  O2'       41.6370   58.0920   35.1190 O.3   801  PGD801     -0.2158
     17  C1'       39.9470   57.8040   33.4110 C.3   801  PGD801      0.2293
     18  N9        39.2210   59.0640   33.3460 N.pl3 801  PGD801     -0.2354
     19  C8        38.4460   59.6130   34.3140 C.3   801  PGD801      0.2246
     20  N7        37.8850   60.7570   33.9290 N.2   801  PGD801     -0.2322
     21  C5        38.3440   60.9630   32.6580 C.2   801  PGD801      0.2182
     22  C6        38.1410   61.9880   31.7390 C.1   801  PGD801      0.2372
     23  O6        37.4360   62.9810   31.8780 O.2   801  PGD801     -0.2069
     24  N1        38.7730   61.9440   30.5150 N.2   801  PGD801     -0.2485
     25  C2        39.5730   60.8640   30.1980 C.1   801  PGD801      0.2531
     26  N2        40.1580   60.8540   28.8970 N.pl3 801  PGD801     -0.0226
     27  N3        39.7740   59.8620   31.1080 N.2   801  PGD801     -0.3074
     28  C4        39.1530   59.9320   32.3200 C.2   801  PGD801      0.2300
     29  C10       35.6460   48.9060   35.5250 C.3   801  PGD801      0.1837
     30  C11       35.0500   47.4860   35.2360 C.3   801  PGD801      0.1762
     31  O11       35.8830   46.5210   35.8330 O.3   801  PGD801     -0.3271
     32  C12       33.6280   47.3680   35.7480 C.2   801  PGD801      0.0473
     33  S12       32.4570   48.7740   35.7600 S.3   801  PGD801     -0.0526
     34  C13       33.2430   46.2410   36.4250 C.2   801  PGD801      0.0449
     35  S13       31.5700   46.1110   37.0860 S.3   801  PGD801     -0.0530
     36  C14       34.1060   44.9960   36.4520 C.3   801  PGD801      0.1850
     37  N15       34.4070   44.5570   37.8390 N.2   801  PGD801     -0.2411
     38  C16       35.2950   43.4120   37.8970 C.2   801  PGD801      0.2467
     39  C17       35.2010   42.4250   38.8850 C.1   801  PGD801      0.2441
     40  O17       34.3770   42.4630   39.7960 O.2   801  PGD801     -0.2063
     41  N18       36.0850   41.4030   38.8840 N.2   801  PGD801     -0.2474
     42  C19       37.0240   41.3020   37.9080 C.1   801  PGD801      0.2608
     43  N19       37.9240   40.2540   37.9250 N.pl3 801  PGD801     -0.0220
     44  N20       37.1430   42.2280   36.8950 N.2   801  PGD801     -0.2682
     45  C21       36.2700   43.2890   36.9070 C.1   801  PGD801      0.1293
     46  N22       36.4180   44.2470   35.8480 N.2   801  PGD801     -0.1763
     47  C23       35.3570   45.2280   35.5800 C.3   801  PGD801      0.2573
@<TRIPOS>BOND
     1    26    25    1
     2    25    24    2
     3    25    27    2
     4    24    22    2
     5    27    28    2
     6    22    23    2
     7    22    21    1
     8    28    21    1
     9    28    18    1
    10    21    20    2
    11     7     6    2
    12    12    17    1
    13    12    11    1
    14    18    17    1
    15    18    19    1
    16    17    15    1
    17    11    10    1
    18    11    13    1
    19    20    19    1
    20     8     6    1
    21     6     5    1
    22     6     4    1
    23    14    13    1
    24    10     9    1
    25     9     1    1
    26     5    29    1
    27    13    15    1
    28    15    16    1
    29    30    29    1
    30    30    32    1
    31    30    31    1
    32     4     1    1
    33    47    31    1
    34    47    46    1
    35    47    36    1
    36    32    33    1
    37    32    34    2
    38    46    45    2
    39     1     3    2
    40     1     2    1
    41    34    36    1
    42    34    35    1
    43    36    37    1
    44    44    45    2
    45    44    42    2
    46    45    38    1
    47    37    38    2
    48    38    39    1
    49    42    43    1
    50    42    41    2
    51    41    39    2
    52    39    40    2
