@<TRIPOS>MOLECULE
1e66_HUX_A_1.pdb
 21 24 0 0 0
SMALL
GASTEIGER

@<TRIPOS>ATOM
      1 CL1         7.5600   70.9960   69.9590 Cl    803  HUX803     -0.0822
      2  C1         6.3780   70.6350   68.8450 C.ar  803  HUX803      0.0602
      3  N1         5.9600   69.5810   65.3090 N.2   803  HUX803     -0.4101
      4  C3         5.5690   69.9500   66.6660 C.ar  803  HUX803      0.1324
      5  C4         4.9750   69.1980   64.4700 C.2   803  HUX803      0.0920
      6  N2         1.8860   69.4300   66.4690 N.pl3 803  HUX803     -0.1322
      7  C14        3.2280   69.5120   66.1460 C.2   803  HUX803      0.0751
      8  C2         6.6700   70.2770   67.4340 C.ar  803  HUX803      0.0434
      9  C17        4.9340   70.6300   69.2740 C.ar  803  HUX803      0.0116
     10  C15        4.2480   69.9120   67.0430 C.ar  803  HUX803      0.0426
     11  C5         5.5190   68.7840   62.9970 C.3   803  HUX803      0.0591
     12  C13        3.6230   69.1100   64.7520 C.3   803  HUX803      0.0877
     13  C6         4.5270   67.8800   62.2460 C.3   803  HUX803      0.0281
     14  C7         4.2820   66.4050   62.9960 C.2   803  HUX803     -0.0345
     15  C12        3.1710   68.5550   62.2170 C.3   803  HUX803      0.0058
     16  C8         3.3050   66.0890   63.8490 C.2   803  HUX803     -0.0485
     17  C9         2.3030   67.1800   64.1500 C.3   803  HUX803      0.0225
     18  C18        3.2790   64.6360   64.4660 C.3   803  HUX803      0.0217
     19  C11        2.6210   68.6020   63.7090 C.3   803  HUX803      0.0161
     20  C10        4.3940   63.6190   64.1310 C.3   803  HUX803      0.0047
     21  C16        3.9130   70.3030   68.4610 C.ar  803  HUX803      0.0044
@<TRIPOS>BOND
     1    15    13    1
     2    15    19    1
     3    13    14    1
     4    13    11    1
     5    14    16    2
     6    11     5    1
     7    19    17    1
     8    19    12    1
     9    16    17    1
    10    16    18    1
    11    20    18    1
    12     5    12    1
    13     5     3    2
    14    12     7    1
    15     3     4    2
    16     7     6    1
    17     7    10    2
    18     4    10   ar
    19     4     8   ar
    20    10    21   ar
    21     8     2   ar
    22    21     9   ar
    23     2     9   ar
    24     2     1    1
