@<TRIPOS>MOLECULE
1e6d_U10_L_1.pdb
 48 48 0 0 0
SMALL
GASTEIGER

@<TRIPOS>ATOM
      1  C1        12.5110  115.5110   29.6910 C.2   1502  U101502     0.0198
      2  C2        11.7400  116.4170   30.5190 C.2   1502  U101502     0.2282
      3  C3        11.6670  116.2470   31.9430 C.2   1502  U101502     0.2140
      4  C4        12.3390  115.2160   32.5400 C.2   1502  U101502     0.2140
      5  C5        13.1090  114.3050   31.7140 C.2   1502  U101502     0.2285
      6  C6        13.1840  114.4620   30.2580 C.2   1502  U101502     0.0235
      7  C1M       12.5490  115.7570   28.1800 C.3   1502  U101502     0.0343
      8  C3M       10.4550  117.0600   34.0200 C.3   1502  U101502     0.2528
      9  C4M       12.9020  114.2270   34.9010 C.3   1502  U101502     0.2528
     10  C7        14.0430  113.4940   29.4560 C.3   1502  U101502     0.0548
     11  C8        13.4930  112.7420   28.3930 C.2   1502  U101502    -0.0298
     12  C9        13.9710  112.3340   27.1370 C.2   1502  U101502    -0.0475
     13  C10       15.3530  112.7240   26.5550 C.3   1502  U101502     0.0260
     14  C11       13.1140  111.4760   26.2150 C.3   1502  U101502     0.0264
     15  C12       13.3040  111.7090   24.7190 C.3   1502  U101502     0.0297
     16  C13       12.3610  110.8890   23.9690 C.2   1502  U101502    -0.0342
     17  C14       11.8520  110.8730   22.6860 C.2   1502  U101502    -0.0478
     18  C15       12.1690  111.8640   21.5300 C.3   1502  U101502     0.0260
     19  C16       10.8120  109.8090   22.2440 C.3   1502  U101502     0.0263
     20  C17       11.4270  108.4260   22.0750 C.3   1502  U101502     0.0297
     21  C18       12.8510  108.5170   21.7190 C.2   1502  U101502    -0.0342
     22  C19       13.6520  107.5540   21.0930 C.2   1502  U101502    -0.0478
     23  C20       15.1440  107.7100   20.7380 C.3   1502  U101502     0.0260
     24  C21       13.0870  106.1990   20.6690 C.3   1502  U101502     0.0263
     25  C22       14.0240  105.3730   19.8320 C.3   1502  U101502     0.0297
     26  C23       14.0940  105.6850   18.4250 C.2   1502  U101502    -0.0342
     27  C24       13.2090  105.6580   17.3720 C.2   1502  U101502    -0.0478
     28  C25       13.5390  106.0310   15.8950 C.3   1502  U101502     0.0260
     29  C26       11.7250  105.2830   17.5140 C.3   1502  U101502     0.0263
     30  C27       11.1410  104.8480   16.1740 C.3   1502  U101502     0.0297
     31  C28        9.6880  104.7580   16.2530 C.2   1502  U101502    -0.0342
     32  C29        8.8260  104.0710   15.3900 C.2   1502  U101502    -0.0478
     33  C30        7.2890  104.0320   15.5300 C.3   1502  U101502     0.0260
     34  C31        9.3620  103.2750   14.1810 C.3   1502  U101502     0.0263
     35  C32        8.2760  102.8670   13.1840 C.3   1502  U101502     0.0297
     36  C33        8.3460  101.4770   12.7860 C.2   1502  U101502    -0.0342
     37  C34        7.6140  100.3240   13.0520 C.2   1502  U101502    -0.0478
     38  C35        6.3820  100.1900   13.9720 C.3   1502  U101502     0.0260
     39  C36        7.9750   98.9500   12.4220 C.3   1502  U101502     0.0263
     40  C37        9.3320   98.4260   12.9390 C.3   1502  U101502     0.0297
     41  C38        9.6870   97.1750   12.2580 C.2   1502  U101502    -0.0342
     42  C39       10.8470   96.8770   11.5340 C.2   1502  U101502    -0.0478
     43  C40       11.9970   97.8770   11.3280 C.3   1502  U101502     0.0260
     44  C41       11.0530   95.5170   10.8560 C.3   1502  U101502     0.0260
     45  O2        11.1450  117.3410   29.9320 O.2   1502  U101502    -0.2836
     46  O3        10.8600  117.1930   32.7010 O.2   1502  U101502    -0.4652
     47  O4        12.2760  115.0060   33.9770 O.2   1502  U101502    -0.4652
     48  O5        13.7250  113.3620   32.2470 O.2   1502  U101502    -0.2835
@<TRIPOS>BOND
     1    44    42    1
     2    43    42    1
     3    42    41    2
     4    41    40    1
     5    39    40    1
     6    39    37    1
     7    36    37    2
     8    36    35    1
     9    37    38    1
    10    35    34    1
    11    34    32    1
    12    32    33    1
    13    32    31    2
    14    28    27    1
    15    30    31    1
    16    30    29    1
    17    27    29    1
    18    27    26    2
    19    26    25    1
    20    25    24    1
    21    24    22    1
    22    23    22    1
    23    22    21    2
    24    18    17    1
    25    21    20    1
    26    20    19    1
    27    19    17    1
    28    17    16    2
    29    16    15    1
    30    15    14    1
    31    14    12    1
    32    13    12    1
    33    12    11    2
    34     7     1    1
    35    11    10    1
    36    10     6    1
    37     1     6    2
    38     1     2    1
    39    45     2    2
    40     6     5    1
    41     2     3    1
    42     5    48    2
    43     5     4    1
    44     3     4    2
    45     3    46    1
    46     4    47    1
    47    46     8    1
    48    47     9    1
