@<TRIPOS>MOLECULE
1e6d_SPN_M_1.pdb
 43 42 0 0 0
SMALL
GASTEIGER

@<TRIPOS>ATOM
      1  CMA       23.9950  117.3020    6.6310 C.3   1600  SPN1600     0.1745
      2  O1        25.5170  117.4500    6.4650 O.3   1600  SPN1600    -0.3489
      3  CM1       27.6070  118.7380    6.9840 C.3   1600  SPN1600     0.0372
      4  CM2       25.3580  119.7100    7.5370 C.3   1600  SPN1600     0.0372
      5  C1        26.1740  118.4220    7.4220 C.3   1600  SPN1600     0.1437
      6  C2        26.1770  117.7120    8.7720 C.2   1600  SPN1600     0.1747
      7  O2        26.4070  118.3220    9.8270 O.2   1600  SPN1600    -0.2936
      8  C3        25.9710  116.1310    8.9530 C.3   1600  SPN1600     0.0673
      9  C4        26.7350  115.5570    9.9930 C.3   1600  SPN1600     0.0122
     10  C5        26.6020  114.0470   10.2640 C.3   1600  SPN1600     0.0221
     11  CM3       26.3650  113.0300    9.1330 C.3   1600  SPN1600     0.0047
     12  C6        27.2520  113.6790   11.4440 C.2   1600  SPN1600    -0.0310
     13  C7        27.2410  112.2410   11.9270 C.2   1600  SPN1600    -0.0307
     14  C8        27.7810  111.9970   13.1990 C.3   1600  SPN1600     0.0257
     15  C9        27.7540  110.5120   13.6650 C.3   1600  SPN1600     0.0047
     16  CM4       26.8010  109.5310   12.9390 C.3   1600  SPN1600     0.0004
     17  C10       28.0120  110.4280   15.0180 C.3   1600  SPN1600     0.0050
     18  C11       28.0460  109.0870   15.7610 C.3   1600  SPN1600     0.0254
     19  C12       28.9190  109.0390   16.8580 C.2   1600  SPN1600    -0.0343
     20  C13       29.0370  107.7610   17.6870 C.2   1600  SPN1600    -0.0438
     21  CM5       28.0440  106.5900   17.4560 C.3   1600  SPN1600     0.0264
     22  C14       29.7900  107.9050   18.8500 C.3   1600  SPN1600     0.0477
     23  C15       29.9860  106.7160   19.7580 C.2   1600  SPN1600    -0.0218
     24  C16       30.9720  106.6540   20.7250 C.2   1600  SPN1600    -0.0049
     25  C17       31.9180  107.8400   20.8700 C.2   1600  SPN1600    -0.0088
     26  C18       32.6460  107.9430   22.0620 C.2   1600  SPN1600    -0.0436
     27  CM6       32.6980  106.7750   23.0650 C.3   1600  SPN1600     0.0264
     28  C19       33.5440  109.1660   22.1070 C.3   1600  SPN1600     0.0267
     29  C20       34.3120  109.4210   23.2520 C.3   1600  SPN1600     0.0297
     30  C21       35.1860  110.6900   23.1390 C.2   1600  SPN1600    -0.0343
     31  C22       35.9790  111.0280   24.2220 C.2   1600  SPN1600    -0.0482
     32  CM7       35.8530  110.4160   25.6140 C.3   1600  SPN1600     0.0260
     33  C23       36.7940  112.3460   24.1690 C.3   1600  SPN1600     0.0217
     34  C24       38.2600  112.0080   24.2130 C.3   1600  SPN1600     0.0043
     35  C25       39.1860  113.1760   23.8810 C.3   1600  SPN1600     0.0003
     36  C26       40.2310  113.1400   22.9300 C.3   1600  SPN1600     0.0003
     37  CM8       40.9340  111.8000   22.6150 C.3   1600  SPN1600     0.0000
     38  C27       41.1310  114.3830   22.7300 C.3   1600  SPN1600     0.0046
     39  C28       41.9140  114.7090   24.0090 C.3   1600  SPN1600     0.0254
     40  C29       42.7550  115.9880   23.8400 C.2   1600  SPN1600    -0.0346
     41  C30       42.9840  116.9880   24.8020 C.2   1600  SPN1600    -0.0478
     42  CM9       42.3640  116.9350   26.2180 C.3   1600  SPN1600     0.0260
     43  CMB       43.8420  118.2460   24.5610 C.3   1600  SPN1600     0.0260
@<TRIPOS>BOND
     1     2     1    1
     2     2     5    1
     3     3     5    1
     4     5     4    1
     5     5     6    1
     6     6     8    1
     7     6     7    2
     8     8     9    1
     9    11    10    1
    10     9    10    1
    11    10    12    1
    12    12    13    2
    13    13    14    1
    14    16    15    1
    15    14    15    1
    16    15    17    1
    17    17    18    1
    18    18    19    1
    19    19    20    2
    20    21    20    1
    21    20    22    1
    22    22    23    1
    23    23    24    2
    24    24    25    1
    25    25    26    2
    26    26    28    1
    27    26    27    1
    28    28    29    1
    29    37    36    1
    30    38    36    1
    31    38    39    1
    32    36    35    1
    33    30    29    1
    34    30    31    2
    35    40    39    1
    36    40    41    2
    37    35    34    1
    38    33    34    1
    39    33    31    1
    40    31    32    1
    41    43    41    1
    42    41    42    1
