@<TRIPOS>MOLECULE
1e6i_III_P_1.pdb
 49 49 0 0 0
SMALL
GASTEIGER

@<TRIPOS>ATOM
      1  N         17.5290   17.5490  -15.0110 N.3    15  ALA15      -0.1231
      2  CA        16.5120   18.5870  -15.0960 C.3    15  ALA15       0.1694
      3  C         15.2480   18.1220  -14.3850 C.2    15  ALA15       0.2592
      4  O         14.9860   16.9270  -14.2970 O.2    15  ALA15      -0.2718
      5  CB        16.1960   18.8930  -16.5350 C.3    15  ALA15       0.0304
      6  OH         9.9900   20.2900   -7.4230 O.2    16  LYS16      -0.2733
      7  CH        11.0310   21.0480   -7.1960 C.2    16  LYS16       0.2419
      8  CH3       11.0870   21.9810   -6.0140 C.3    16  LYS16       0.0964
      9  NZ        12.1650   21.0270   -8.0420 N.am   16  LYS16      -0.2054
     10  CE        11.9990   20.0680   -9.1640 C.3    16  LYS16       0.1151
     11  CD        11.4850   20.7680  -10.4230 C.3    16  LYS16       0.0235
     12  CG        11.5440   19.8480  -11.6370 C.3    16  LYS16       0.0041
     13  CB        12.9350   19.8850  -12.2490 C.3    16  LYS16       0.0312
     14  CA        13.1880   18.7960  -13.2850 C.3    16  LYS16       0.1728
     15  N         14.4730   19.0720  -13.8890 N.am   16  LYS16      -0.1966
     16  C         12.1240   18.8610  -14.3370 C.2    16  LYS16       0.2616
     17  O         12.1000   19.8910  -15.1400 O.2    16  LYS16      -0.2715
     18  N         11.2190   17.8990  -14.4130 N.am   17  ARG17      -0.1963
     19  CA        10.1660   17.9660  -15.4270 C.3    17  ARG17       0.1729
     20  C          8.9510   17.1920  -14.9250 C.2    17  ARG17       0.2616
     21  O          9.0920   16.2690  -14.1170 O.2    17  ARG17      -0.2715
     22  CB        10.6710   17.4020  -16.7680 C.3    17  ARG17       0.0348
     23  CG        10.9280   15.8940  -16.7420 C.3    17  ARG17       0.0492
     24  CD        11.3850   15.2920  -18.0850 C.3    17  ARG17       0.2205
     25  NE        11.4700   13.8300  -18.0240 N.pl3  17  ARG17      -0.0865
     26  CZ        11.9780   13.0560  -18.9850 C.cat  17  ARG17       0.5346
     27  NH1       12.4620   13.5910  -20.1000 N.pl3  17  ARG17       0.1354
     28  NH2       12.0060   11.7360  -18.8280 N.pl3  17  ARG17       0.1354
     29  N          7.7640   17.6170  -15.3470 N.am   18  HIS18      -0.1959
     30  CA         6.5110   16.9580  -14.9510 C.3    18  HIS18       0.1784
     31  C          6.5030   15.4470  -15.1980 C.2    18  HIS18       0.2620
     32  O          6.8670   14.9680  -16.2680 O.2    18  HIS18      -0.2715
     33  CB         5.3290   17.5780  -15.6820 C.3    18  HIS18       0.0745
     34  CG         4.0210   17.3690  -14.9890 C.2    18  HIS18       0.0653
     35  ND1        2.8720   16.9900  -15.6540 N.2    18  HIS18      -0.2310
     36  CD2        3.6850   17.4560  -13.6810 C.3    18  HIS18       0.1683
     37  CE1        1.8920   16.8350  -14.7790 C.2    18  HIS18       0.1939
     38  NE2        2.3440   17.1700  -13.5840 N.2    18  HIS18      -0.2440
     39  N          6.0700   14.7170  -14.1880 N.am   19  ARG19      -0.1977
     40  CA         5.9700   13.2690  -14.2190 C.3    19  ARG19       0.1597
     41  C          4.9400   12.8130  -15.2470 C.2    19  ARG19       0.2287
     42  O          4.0580   13.5680  -15.6260 O.2    19  ARG19      -0.2864
     43  CB         5.4870   12.7990  -12.8660 C.3    19  ARG19       0.0334
     44  CG         4.0630   13.2870  -12.5760 C.3    19  ARG19       0.0492
     45  CD         3.6640   13.1770  -11.1390 C.3    19  ARG19       0.2205
     46  NE         3.4890   11.7850  -10.7350 N.pl3  19  ARG19      -0.0865
     47  CZ         3.6930   11.3310   -9.5110 C.cat  19  ARG19       0.5346
     48  NH1        4.0740   12.1460   -8.5590 N.pl3  19  ARG19       0.1354
     49  NH2        3.5030   10.0480   -9.2350 N.pl3  19  ARG19       0.1354
@<TRIPOS>BOND
     1    27    26    1
     2    26    28    1
     3    26    25    2
     4    24    25    1
     5    24    23    1
     6    22    23    1
     7    22    19    1
     8     5     2    1
     9    32    31    2
    10    33    34    1
    11    33    30    1
    12    35    34    2
    13    35    37    1
    14    42    41    2
    15    19    20    1
    16    19    18    1
    17    29    30    1
    18    29    20   am
    19    41    40    1
    20    31    30    1
    21    31    39   am
    22    17    16    2
    23     2     1    1
    24     2     3    1
    25    34    36    1
    26    20    21    2
    27    37    38    2
    28    18    16   am
    29     3     4    2
    30     3    15   am
    31    16    14    1
    32    40    39    1
    33    40    43    1
    34    15    14    1
    35    36    38    1
    36    14    13    1
    37    43    44    1
    38    44    45    1
    39    13    12    1
    40    12    11    1
    41    45    46    1
    42    46    47    2
    43    11    10    1
    44    47    49    1
    45    47    48    1
    46    10     9    1
    47     9     7   am
    48     6     7    2
    49     7     8    1
