@<TRIPOS>MOLECULE
1e6n_NAG_A_1.pdb
 14 14 0 0 0
SMALL
GASTEIGER

@<TRIPOS>ATOM
      1  C1        16.4440   40.1000  103.9040 C.3   1499  NAG1499     0.1665
      2  C2        16.5920   38.9010  104.8320 C.3   1499  NAG1499     0.1576
      3  C3        15.4820   37.8840  104.5840 C.3   1499  NAG1499     0.2069
      4  C4        14.1240   38.5590  104.7160 C.3   1499  NAG1499     0.2134
      5  C5        14.0670   39.7560  103.7620 C.3   1499  NAG1499     0.1809
      6  C6        12.7640   40.5310  103.8770 C.3   1499  NAG1499     0.2141
      7  C7        18.7250   38.2550  105.6730 C.2   1499  NAG1499     0.2420
      8  C8        20.1500   37.8170  105.3940 C.3   1499  NAG1499     0.0964
      9  N2        17.8870   38.2880  104.6490 N.am  1499  NAG1499    -0.2019
     10  O3        15.5930   36.8520  105.5350 O.3   1499  NAG1499    -0.2184
     11  O4        13.0970   37.6350  104.3890 O.3   1499  NAG1499    -0.2176
     12  O5        15.1350   40.6790  104.0730 O.3   1499  NAG1499    -0.3489
     13  O6        12.6760   41.5240  102.8640 O.3   1499  NAG1499    -0.2176
     14  O7        18.3840   38.5630  106.8190 O.2   1499  NAG1499    -0.2733
@<TRIPOS>BOND
     1    13     6    1
     2     5     6    1
     3     5    12    1
     4     5     4    1
     5     1    12    1
     6     1     2    1
     7    11     4    1
     8     3     4    1
     9     3     2    1
    10     3    10    1
    11     9     2    1
    12     9     7   am
    13     8     7    1
    14     7    14    2
