@<TRIPOS>MOLECULE
1e6q_MAN_M_1.pdb
 11 11 0 0 0
SMALL
GASTEIGER

@<TRIPOS>ATOM
      1  C1        40.9670   88.8780   33.4180 C.3   956  MAN956      0.1777
      2  C2        42.4360   88.4940   33.3460 C.3   956  MAN956      0.2141
      3  C3        43.2700   88.8660   34.5680 C.3   956  MAN956      0.2173
      4  C4        43.1340   90.4280   34.6780 C.3   956  MAN956      0.2142
      5  C5        41.6010   90.6990   34.9090 C.3   956  MAN956      0.1810
      6  C6        41.3980   92.2410   34.8390 C.3   956  MAN956      0.2141
      7  O2        43.1680   88.9430   32.2260 O.3   956  MAN956     -0.2176
      8  O3        44.6590   88.5650   34.3220 O.3   956  MAN956     -0.2175
      9  O4        43.8770   90.9220   35.7990 O.3   956  MAN956     -0.2176
     10  O5        40.7770   90.2530   33.7640 O.3   956  MAN956     -0.3481
     11  O6        40.0800   92.4270   35.3120 O.3   956  MAN956     -0.2176
@<TRIPOS>BOND
     1     7     2    1
     2     2     1    1
     3     2     3    1
     4     1    10    1
     5    10     5    1
     6     8     3    1
     7     3     4    1
     8     4     5    1
     9     4     9    1
    10     6     5    1
    11     6    11    1
