@<TRIPOS>MOLECULE
1e6q_NTZ_M_1.pdb
 14 15 0 0 0
SMALL
GASTEIGER

@<TRIPOS>ATOM
      1  C1        47.2990  119.6880   52.4890 C.ar  999  NTZ999      0.1940
      2  C2        47.9890  119.0190   53.7220 C.3   999  NTZ999      0.2439
      3  C3        48.3800  120.1170   54.6950 C.3   999  NTZ999      0.2217
      4  C4        48.7990  121.3860   53.8640 C.3   999  NTZ999      0.2100
      5  C5        47.4990  122.0130   53.2580 C.3   999  NTZ999      0.1739
      6  C6        47.5630  123.3470   52.5210 C.3   999  NTZ999      0.2091
      7  N1        47.0410  121.0280   52.3800 N.ar  999  NTZ999     -0.2113
      8  N17       46.4490  121.2260   51.1460 N.ar  999  NTZ999     -0.0430
      9  N18       46.3030  119.9280   50.5630 N.ar  999  NTZ999     -0.0229
     10  N21       46.8560  119.1080   51.3610 N.ar  999  NTZ999     -0.1100
     11  O2        47.2650  117.9570   54.4010 O.3   999  NTZ999     -0.2120
     12  O3        49.4810  119.5720   55.4220 O.3   999  NTZ999     -0.2171
     13  O4        49.3720  122.3640   54.7470 O.3   999  NTZ999     -0.2181
     14  O6        48.4570  123.1810   51.3730 O.3   999  NTZ999     -0.2182
@<TRIPOS>BOND
     1     9     8   ar
     2     9    10   ar
     3     8     7   ar
     4    10     1   ar
     5    14     6    1
     6     7     1   ar
     7     7     5    1
     8     1     2    1
     9     6     5    1
    10     5     4    1
    11     2    11    1
    12     2     3    1
    13     4     3    1
    14     4    13    1
    15     3    12    1
