@<TRIPOS>MOLECULE
1e6q_NAG_M_1.pdb
 14 14 0 0 0
SMALL
GASTEIGER

@<TRIPOS>ATOM
      1  C1        21.9360  132.1570   62.2380 C.3   901  NAG901      0.1665
      2  C2        21.3240  133.3810   62.8710 C.3   901  NAG901      0.1576
      3  C3        19.8630  133.0140   62.7570 C.3   901  NAG901      0.2069
      4  C4        19.5750  132.6910   61.2860 C.3   901  NAG901      0.2134
      5  C5        20.4100  131.5220   60.7230 C.3   901  NAG901      0.1809
      6  C6        20.2460  131.2030   59.2690 C.3   901  NAG901      0.2141
      7  C7        22.1530  134.6840   64.7810 C.2   901  NAG901      0.2420
      8  C8        22.3610  134.8020   66.2340 C.3   901  NAG901      0.0964
      9  N2        21.6810  133.5330   64.2900 N.am  901  NAG901     -0.2019
     10  O3        19.1940  134.1890   63.1750 O.3   901  NAG901     -0.2184
     11  O4        18.2130  132.2340   61.2150 O.3   901  NAG901     -0.2176
     12  O5        21.7840  131.9720   60.8610 O.3   901  NAG901     -0.3489
     13  O6        20.9180  129.9830   58.9420 O.3   901  NAG901     -0.2176
     14  O7        22.3810  135.5970   64.0860 O.2   901  NAG901     -0.2733
@<TRIPOS>BOND
     1    13     6    1
     2     6     5    1
     3     5    12    1
     4     5     4    1
     5    12     1    1
     6    11     4    1
     7     4     3    1
     8     1     2    1
     9     3     2    1
    10     3    10    1
    11     2     9    1
    12    14     7    2
    13     9     7   am
    14     7     8    1
