@<TRIPOS>MOLECULE
1e6r_AMI_A_1.pdb
 15 16 0 0 0
SMALL
GASTEIGER

@<TRIPOS>ATOM
      1  C1        19.0940   43.6900  101.1220 C.3   1501  AMI1501     0.1987
      2  C2        17.6250   43.9940  100.7530 C.3   1501  AMI1501     0.1803
      3  C3        16.8260   42.8640  101.4160 C.3   1501  AMI1501     0.2082
      4  C4        17.7970   41.6880  101.4700 C.3   1501  AMI1501     0.1902
      5  C5        19.0600   42.3770  101.9250 C.3   1501  AMI1501     0.1081
      6  C6        20.2310   41.4380  101.5850 C.3   1501  AMI1501     0.1883
      7  C7        18.4170   45.6570  102.0370 C.2   1501  AMI1501     0.2833
      8  C8        17.4480   47.6750  102.8470 C.3   1501  AMI1501     0.1166
      9  C9        19.7520   47.1950  103.4610 C.3   1501  AMI1501     0.1166
     10  N2        17.3340   45.2240  101.3620 N.2   1501  AMI1501    -0.2198
     11  N7        18.5690   46.7950  102.7670 N.pl3 1501  AMI1501    -0.2607
     12  O3        15.7150   42.5620  100.6170 O.3   1501  AMI1501    -0.2182
     13  O4        17.4160   40.7660  102.4610 O.3   1501  AMI1501    -0.2201
     14  O6        21.4100   42.0650  102.0010 O.3   1501  AMI1501    -0.2202
     15  O7        19.4750   44.8060  101.9420 O.2   1501  AMI1501    -0.4514
@<TRIPOS>BOND
     1    12     3    1
     2     2     1    1
     3     2    10    1
     4     2     3    1
     5     1     5    1
     6     1    15    1
     7    10     7    2
     8     3     4    1
     9     4     5    1
    10     4    13    1
    11     6     5    1
    12     6    14    1
    13    15     7    1
    14     7    11    1
    15    11     8    1
    16    11     9    1
