@<TRIPOS>MOLECULE
1e6s_GOX_M_1.pdb
 13 13 0 0 0
SMALL
GASTEIGER

@<TRIPOS>ATOM
      1  C1        46.8710  119.8910   52.8440 C.2   999  GOX999      0.4163
      2  N1        46.1800  119.1010   52.0130 N.4   999  GOX999      0.1455
      3  C2        47.7520  119.2200   53.9100 C.3   999  GOX999      0.2978
      4  N5        46.7140  121.2240   52.6400 N.2   999  GOX999     -0.0582
      5  O7        45.5120  119.5680   50.9830 O.3   999  GOX999      0.0696
      6  O2        47.1990  118.0540   54.5300 O.3   999  GOX999     -0.2066
      7  C3        48.2490  120.2590   54.8890 C.3   999  GOX999      0.2291
      8  O3        49.3470  119.6490   55.5640 O.3   999  GOX999     -0.2168
      9  C4        48.6480  121.5070   54.0620 C.3   999  GOX999      0.2365
     10  O4        49.2900  122.4630   54.9070 O.3   999  GOX999     -0.2155
     11  C5        47.3120  122.1730   53.5720 C.3   999  GOX999      0.2803
     12  C6        47.4060  123.4560   52.7730 C.3   999  GOX999      0.2377
     13  O6        48.1870  123.2780   51.5780 O.3   999  GOX999     -0.2155
@<TRIPOS>BOND
     1     5     2    1
     2    13    12    1
     3     2     1    1
     4     4     1    2
     5     4    11    1
     6    12    11    1
     7     1     3    1
     8    11     9    1
     9     3     6    1
    10     3     7    1
    11     9     7    1
    12     9    10    1
    13     7     8    1
