@<TRIPOS>MOLECULE
1e6s_NAG_M_1.pdb
 14 14 0 0 0
SMALL
GASTEIGER

@<TRIPOS>ATOM
      1  C1        21.8470  132.1620   62.2710 C.3   901  NAG901      0.1665
      2  C2        21.2270  133.3780   62.9080 C.3   901  NAG901      0.1576
      3  C3        19.7760  133.0280   62.7540 C.3   901  NAG901      0.2069
      4  C4        19.5000  132.7820   61.2690 C.3   901  NAG901      0.2134
      5  C5        20.2750  131.5440   60.7510 C.3   901  NAG901      0.1809
      6  C6        20.0560  131.2310   59.3030 C.3   901  NAG901      0.2141
      7  C7        22.0680  134.6890   64.7920 C.2   901  NAG901      0.2420
      8  C8        22.2670  134.8120   66.2480 C.3   901  NAG901      0.0964
      9  N2        21.5940  133.5190   64.3380 N.am  901  NAG901     -0.2019
     10  O3        19.1110  134.2190   63.1450 O.3   901  NAG901     -0.2184
     11  O4        18.1320  132.4130   60.9830 O.3   901  NAG901     -0.2176
     12  O5        21.6650  131.9700   60.8980 O.3   901  NAG901     -0.3489
     13  O6        20.7540  129.9860   59.0560 O.3   901  NAG901     -0.2176
     14  O7        22.3170  135.5840   64.0770 O.2   901  NAG901     -0.2733
@<TRIPOS>BOND
     1    13     6    1
     2     6     5    1
     3     5    12    1
     4     5     4    1
     5    12     1    1
     6    11     4    1
     7     4     3    1
     8     1     2    1
     9     3     2    1
    10     3    10    1
    11     2     9    1
    12    14     7    2
    13     9     7   am
    14     7     8    1
