@<TRIPOS>MOLECULE
1e6s_MAN_M_1.pdb
 11 11 0 0 0
SMALL
GASTEIGER

@<TRIPOS>ATOM
      1  C1        40.9200   88.9170   33.4060 C.3   956  MAN956      0.1777
      2  C2        42.4000   88.5220   33.3390 C.3   956  MAN956      0.2141
      3  C3        43.2500   88.8880   34.5650 C.3   956  MAN956      0.2173
      4  C4        43.1360   90.4570   34.6240 C.3   956  MAN956      0.2142
      5  C5        41.6100   90.7210   34.9160 C.3   956  MAN956      0.1810
      6  C6        41.3710   92.2550   34.9140 C.3   956  MAN956      0.2141
      7  O2        43.0360   89.1300   32.2290 O.3   956  MAN956     -0.2176
      8  O3        44.6840   88.6650   34.3220 O.3   956  MAN956     -0.2175
      9  O4        43.9200   90.9130   35.7280 O.3   956  MAN956     -0.2176
     10  O5        40.7700   90.2960   33.7560 O.3   956  MAN956     -0.3481
     11  O6        40.0540   92.4660   35.3580 O.3   956  MAN956     -0.2176
@<TRIPOS>BOND
     1     7     2    1
     2     2     1    1
     3     2     3    1
     4     1    10    1
     5    10     5    1
     6     8     3    1
     7     3     4    1
     8     4     5    1
     9     4     9    1
    10     6     5    1
    11     6    11    1
