@<TRIPOS>MOLECULE
1e6u_NAP_A_1.pdb
 48 52 0 0 0
SMALL
GASTEIGER

@<TRIPOS>ATOM
      1  PA        65.7350   14.1670   25.8720 P.3   1317  NAP1317     0.2189
      2  O1A       65.7550   14.8720   24.6720 O.2   1317  NAP1317    -0.5170
      3  O2A       65.5180   14.9490   27.1550 O.3   1317  NAP1317    -0.4371
      4  O5B       66.8290   13.1380   26.1240 O.3   1317  NAP1317    -0.3112
      5  C5B       67.2900   12.1030   25.2680 C.3   1317  NAP1317     0.1813
      6  C4B       68.8200   11.9430   25.5690 C.3   1317  NAP1317     0.1820
      7  O4B       69.3910   11.0110   24.6020 O.3   1317  NAP1317    -0.3136
      8  C3B       69.6610   13.2220   25.4450 C.3   1317  NAP1317     0.2157
      9  O3B       70.5050   13.3820   26.5610 O.3   1317  NAP1317    -0.2175
     10  C2B       70.8310   12.8070   24.4880 C.3   1317  NAP1317     0.2314
     11  O2B       71.8030   13.6780   24.1200 O.3   1317  NAP1317    -0.2630
     12  C1B       70.6870   11.3870   24.2580 C.3   1317  NAP1317     0.3158
     13  N9A       70.9960   10.9300   22.9300 N.pl3 1317  NAP1317    -0.1439
     14  C8A       70.3340   11.1190   21.7310 C.3   1317  NAP1317     0.3377
     15  N7A       71.0290   10.6530   20.6960 N.2   1317  NAP1317    -0.2095
     16  C5A       72.1740   10.0820   21.2500 C.2   1317  NAP1317     0.2526
     17  C6A       73.3090    9.4800   20.6490 C.2   1317  NAP1317     0.4393
     18  N6A       73.4370    9.2980   19.3250 N.pl3 1317  NAP1317     0.2180
     19  N1A       74.2740    9.0280   21.4860 N.2   1317  NAP1317     0.0021
     20  C2A       74.1550    9.2500   22.8110 C.3   1317  NAP1317     0.5254
     21  N3A       73.1850    9.9110   23.4450 N.2   1317  NAP1317    -0.0055
     22  C4A       72.1950   10.2990   22.6060 C.2   1317  NAP1317     0.3518
     23  O3        64.5060   13.2860   25.6400 O.3   1317  NAP1317    -0.2703
     24  PN        63.4030   12.8480   26.7810 P.3   1317  NAP1317     0.2189
     25  O1N       62.3210   13.8850   26.8980 O.2   1317  NAP1317    -0.5170
     26  O2N       64.1220   12.4260   28.0650 O.3   1317  NAP1317    -0.4371
     27  O5D       62.7280   11.6200   26.1340 O.3   1317  NAP1317    -0.3112
     28  C5D       63.3010   10.3170   26.1010 C.3   1317  NAP1317     0.1813
     29  C4D       62.2740    9.2730   25.7730 C.3   1317  NAP1317     0.1799
     30  O4D       61.3150    9.3370   26.8580 O.3   1317  NAP1317    -0.3327
     31  C3D       61.3650    9.6000   24.5870 C.3   1317  NAP1317     0.2158
     32  O3D       61.9820    9.0730   23.4320 O.3   1317  NAP1317    -0.2175
     33  C2D       60.0540    8.8280   24.8580 C.3   1317  NAP1317     0.2309
     34  O2D       60.2880    7.3990   24.6670 O.3   1317  NAP1317    -0.2158
     35  C1D       60.0560    9.0540   26.3400 C.3   1317  NAP1317     0.2263
     36  N1N       59.1520   10.1410   26.5390 N.pl3 1317  NAP1317    -0.2787
     37  C2N       57.7980   10.0000   26.2510 C.3   1317  NAP1317     0.1244
     38  C3N       56.8730   11.0840   26.4580 C.2   1317  NAP1317     0.0544
     39  C7N       55.4400   10.9970   26.4960 C.2   1317  NAP1317     0.2818
     40  O7N       54.8410   10.0800   25.9040 O.2   1317  NAP1317    -0.2670
     41  N7N       54.6760   11.9350   27.0860 N.am  1317  NAP1317    -0.0839
     42  C4N       57.4700   12.3360   26.6350 C.2   1317  NAP1317     0.0033
     43  C5N       58.8790   12.4650   26.7770 C.2   1317  NAP1317     0.0157
     44  C6N       59.6950   11.3320   26.6660 C.2   1317  NAP1317     0.0633
     45  P2B       71.8950   15.0420   23.3730 P.3   1317  NAP1317     0.5328
     46  O1X       73.2640   15.5240   23.5920 O.3   1317  NAP1317    -0.1145
     47  O2X       71.4930   14.7660   21.9340 O.2   1317  NAP1317    -0.2224
     48  O3X       70.8500   15.9840   23.7990 O.3   1317  NAP1317    -0.1145
@<TRIPOS>BOND
     1    18    17    1
     2    17    16    1
     3    17    19    2
     4    15    16    2
     5    15    14    1
     6    16    22    1
     7    19    20    1
     8    14    13    1
     9    47    45    2
    10    22    13    1
    11    22    21    2
    12    20    21    1
    13    13    12    1
    14    45    46    1
    15    45    48    1
    16    45    11    1
    17    32    31    1
    18    11    10    1
    19    12    10    1
    20    12     7    1
    21    10     8    1
    22    31    33    1
    23    31    29    1
    24     7     6    1
    25    34    33    1
    26     2     1    2
    27    33    35    1
    28     5     6    1
    29     5     4    1
    30     8     6    1
    31     8     9    1
    32    23     1    1
    33    23    24    1
    34    29    28    1
    35    29    30    1
    36     1     4    1
    37     1     3    1
    38    40    39    2
    39    28    27    1
    40    27    24    1
    41    37    38    1
    42    37    36    1
    43    35    36    1
    44    35    30    1
    45    38    39    1
    46    38    42    2
    47    39    41   am
    48    36    44    1
    49    42    43    1
    50    44    43    2
    51    24    25    2
    52    24    26    1
