@<TRIPOS>MOLECULE
1e6v_TP7_A_1.pdb
 21 20 0 0 0
SMALL
GASTEIGER

@<TRIPOS>ATOM
      1  N         63.4210   -2.2270  103.7970 N.am  1554  TP71554    -0.1893
      2  P         66.9730   -3.8200  101.5620 P.3   1554  TP71554     0.5326
      3  O1P       66.4230   -5.0050  100.8450 O.3   1554  TP71554    -0.1145
      4  O2P       67.5860   -2.8390  100.6230 O.2   1554  TP71554    -0.2224
      5  O3P       67.9880   -4.2370  102.6160 O.3   1554  TP71554    -0.1145
      6  O4P       65.7050   -3.0670  102.2970 O.3   1554  TP71554    -0.2704
      7  CB        64.4820   -2.8340  101.6950 C.3   1554  TP71554     0.1572
      8  C         63.4550   -4.5690  103.1350 C.2   1554  TP71554     0.3867
      9  O         62.9390   -5.4810  102.3990 O.co2 1554  TP71554    -0.2437
     10  OXT       64.0120   -4.8190  104.2320 O.co2 1554  TP71554    -0.2437
     11  CA        63.3820   -3.0770  102.6820 C.3   1554  TP71554     0.2254
     12  CG        64.4520   -1.4170  101.1950 C.3   1554  TP71554     0.0351
     13  O1        61.6250   -0.9980  103.1560 O.2   1554  TP71554    -0.2684
     14  C1        62.3930   -1.3090  104.0890 C.2   1554  TP71554     0.2651
     15  C2        62.2470   -0.8390  105.4090 C.2   1554  TP71554     0.0549
     16  C3        61.0860    0.1300  105.7220 C.2   1554  TP71554    -0.0214
     17  C4        60.7220    0.5350  107.1490 C.3   1554  TP71554     0.0262
     18  C5        61.8540    1.3860  107.7590 C.3   1554  TP71554     0.0056
     19  C6        61.9940    2.7600  107.0410 C.3   1554  TP71554     0.0129
     20  C7        60.7370    3.5330  107.2440 C.3   1554  TP71554     0.0687
     21  S7        60.6430    5.1620  106.5070 S.3   1554  TP71554    -0.0821
@<TRIPOS>BOND
     1     4     2    2
     2     3     2    1
     3    12     7    1
     4     2     6    1
     5     2     5    1
     6     7     6    1
     7     7    11    1
     8     9     8   ar
     9    11     8    1
    10    11     1    1
    11     8    10   ar
    12    13    14    2
    13     1    14   am
    14    14    15    1
    15    15    16    2
    16    16    17    1
    17    21    20    1
    18    19    20    1
    19    19    18    1
    20    17    18    1
