@<TRIPOS>MOLECULE
1e6w_NAD_A_1.pdb
 44 48 0 0 0
SMALL
GASTEIGER

@<TRIPOS>ATOM
      1  PA       -17.6800   20.7660    0.9480 P.3   301  NAD301      0.2189
      2  O1A      -17.8010   21.3760   -0.4140 O.2   301  NAD301     -0.5170
      3  O2A      -18.9770   20.5910    1.6570 O.3   301  NAD301     -0.4371
      4  O5B      -16.6980   21.5590    1.9000 O.3   301  NAD301     -0.3112
      5  C5B      -15.4470   22.0500    1.3890 C.3   301  NAD301      0.1813
      6  C4B      -15.2150   23.4580    2.0130 C.3   301  NAD301      0.1821
      7  O4B      -13.9690   23.7900    1.5200 O.3   301  NAD301     -0.3135
      8  C3B      -16.3020   24.3830    1.3110 C.3   301  NAD301      0.2184
      9  O3B      -16.8140   25.1610    2.4630 O.3   301  NAD301     -0.2174
     10  C2B      -15.4220   25.2620    0.4810 C.3   301  NAD301      0.2570
     11  O2B      -15.8580   26.7140    0.4650 O.3   301  NAD301     -0.2130
     12  C1B      -14.0200   25.2190    1.1770 C.3   301  NAD301      0.3186
     13  N9A      -13.0120   25.4950    0.1300 N.pl3 301  NAD301     -0.1439
     14  C8A      -12.8430   25.1490   -1.1820 C.3   301  NAD301      0.3377
     15  N7A      -11.7830   25.7230   -1.7290 N.2   301  NAD301     -0.2095
     16  C5A      -11.2530   26.5710   -0.7660 C.2   301  NAD301      0.2526
     17  C6A      -10.1740   27.4450   -0.7620 C.2   301  NAD301      0.4393
     18  N6A       -9.2680   27.6960   -1.7690 N.pl3 301  NAD301      0.2180
     19  N1A       -9.8960   28.0990    0.4180 N.2   301  NAD301      0.0021
     20  C2A      -10.6490   27.8430    1.5670 C.3   301  NAD301      0.5254
     21  N3A      -11.7440   27.0550    1.6070 N.2   301  NAD301     -0.0055
     22  C4A      -11.9560   26.4340    0.3970 C.2   301  NAD301      0.3518
     23  O3       -16.9280   19.3520    0.7260 O.3   301  NAD301     -0.2703
     24  PN       -16.5060   18.2310    1.8260 P.3   301  NAD301      0.2189
     25  O1N      -17.1440   17.0020    1.2920 O.2   301  NAD301     -0.5170
     26  O2N      -16.8750   18.5710    3.2190 O.3   301  NAD301     -0.4371
     27  O5D      -14.9300   18.2010    1.5750 O.3   301  NAD301     -0.3112
     28  C5D      -14.0480   18.2680    2.7160 C.3   301  NAD301      0.1813
     29  C4D      -12.7680   17.5050    2.3480 C.3   301  NAD301      0.1799
     30  O4D      -13.1170   16.0850    2.1520 O.3   301  NAD301     -0.3327
     31  C3D      -12.2190   17.8910    0.9420 C.3   301  NAD301      0.2158
     32  O3D      -10.8330   17.9170    1.0160 O.3   301  NAD301     -0.2175
     33  C2D      -12.7430   16.7880    0.0170 C.3   301  NAD301      0.2309
     34  O2D      -11.7680   16.5230   -1.0830 O.3   301  NAD301     -0.2158
     35  C1D      -12.5940   15.5610    0.9740 C.3   301  NAD301      0.2263
     36  N1N      -13.4700   14.3430    0.6700 N.pl3 301  NAD301     -0.2787
     37  C2N      -14.7930   14.4290    0.5820 C.3   301  NAD301      0.1244
     38  C3N      -15.5020   13.2650    0.2730 C.2   301  NAD301      0.0544
     39  C7N      -17.0190   13.1270    0.0960 C.2   301  NAD301      0.2818
     40  O7N      -17.5280   12.1340   -0.3910 O.2   301  NAD301     -0.2670
     41  N7N      -17.6910   14.2110    0.5270 N.am  301  NAD301     -0.0839
     42  C4N      -14.8950   11.9620    0.0380 C.2   301  NAD301      0.0033
     43  C5N      -13.5030   12.0800    0.1700 C.2   301  NAD301      0.0157
     44  C6N      -12.6840   13.1790    0.4680 C.2   301  NAD301      0.0633
@<TRIPOS>BOND
     1    18    17    1
     2    15    14    1
     3    15    16    2
     4    14    13    1
     5    34    33    1
     6    16    17    1
     7    16    22    1
     8    17    19    2
     9     2     1    2
    10    40    39    2
    11    33    31    1
    12    33    35    1
    13    42    43    1
    14    42    38    2
    15    39    38    1
    16    39    41   am
    17    13    22    1
    18    13    12    1
    19    43    44    2
    20    38    37    1
    21    22    21    2
    22    19    20    1
    23    11    10    1
    24    44    36    1
    25    10    12    1
    26    10     8    1
    27    37    36    1
    28    36    35    1
    29    23     1    1
    30    23    24    1
    31    31    32    1
    32    31    29    1
    33     1     3    1
    34     1     4    1
    35    35    30    1
    36    12     7    1
    37    25    24    2
    38     8     6    1
    39     8     9    1
    40     5     4    1
    41     5     6    1
    42     7     6    1
    43    20    21    1
    44    27    24    1
    45    27    28    1
    46    24    26    1
    47    30    29    1
    48    29    28    1
