@<TRIPOS>MOLECULE
1e6x_MAN_M_1.pdb
 11 11 0 0 0
SMALL
GASTEIGER

@<TRIPOS>ATOM
      1  C1        40.9410   88.8300   33.5610 C.3   956  MAN956      0.1777
      2  C2        42.4220   88.4390   33.4730 C.3   956  MAN956      0.2141
      3  C3        43.3080   88.9490   34.6180 C.3   956  MAN956      0.2173
      4  C4        43.1700   90.5150   34.6050 C.3   956  MAN956      0.2142
      5  C5        41.6500   90.8160   34.7310 C.3   956  MAN956      0.1810
      6  C6        41.3550   92.3160   34.7850 C.3   956  MAN956      0.2141
      7  O2        42.9830   88.9970   32.3060 O.3   956  MAN956     -0.2176
      8  O3        44.6810   88.6890   34.2270 O.3   956  MAN956     -0.2175
      9  O4        43.8600   91.0350   35.7610 O.3   956  MAN956     -0.2176
     10  O5        40.8050   90.2350   33.6770 O.3   956  MAN956     -0.3481
     11  O6        40.0480   92.3950   35.3640 O.3   956  MAN956     -0.2176
@<TRIPOS>BOND
     1     7     2    1
     2     2     1    1
     3     2     3    1
     4     1    10    1
     5    10     5    1
     6     8     3    1
     7     4     3    1
     8     4     5    1
     9     4     9    1
    10     5     6    1
    11     6    11    1
