@<TRIPOS>MOLECULE
1e6x_NAG_M_1.pdb
 14 14 0 0 0
SMALL
GASTEIGER

@<TRIPOS>ATOM
      1  C1        21.8420  132.3210   62.2870 C.3   901  NAG901      0.1665
      2  C2        21.1500  133.4350   62.9830 C.3   901  NAG901      0.1576
      3  C3        19.6940  133.0910   62.7960 C.3   901  NAG901      0.2069
      4  C4        19.4350  132.8170   61.2980 C.3   901  NAG901      0.2134
      5  C5        20.2340  131.5900   60.8100 C.3   901  NAG901      0.1809
      6  C6        20.0360  131.2120   59.3630 C.3   901  NAG901      0.2141
      7  C7        21.9970  134.6590   64.9500 C.2   901  NAG901      0.2420
      8  C8        22.1940  134.6790   66.4160 C.3   901  NAG901      0.0964
      9  N2        21.5380  133.5110   64.4210 N.am  901  NAG901     -0.2019
     10  O3        19.0040  134.2360   63.2520 O.3   901  NAG901     -0.2184
     11  O4        18.0450  132.5090   61.0690 O.3   901  NAG901     -0.2176
     12  O5        21.6140  131.9660   60.9610 O.3   901  NAG901     -0.3489
     13  O6        20.6680  129.9850   59.0770 O.3   901  NAG901     -0.2176
     14  O7        22.2170  135.5970   64.3070 O.2   901  NAG901     -0.2733
@<TRIPOS>BOND
     1    13     6    1
     2     6     5    1
     3     5    12    1
     4     5     4    1
     5    12     1    1
     6    11     4    1
     7     4     3    1
     8     1     2    1
     9     3     2    1
    10     3    10    1
    11     2     9    1
    12    14     7    2
    13     9     7   am
    14     7     8    1
