@<TRIPOS>MOLECULE
1e6x_LGC_M_1.pdb
 12 12 0 0 0
SMALL
GASTEIGER

@<TRIPOS>ATOM
      1  C1        46.8450  119.6320   53.2420 C.2   999  LGC999      0.3505
      2  C2        47.7220  119.0440   54.1680 C.3   999  LGC999      0.2823
      3  O5        46.6620  120.9760   52.8900 O.3   999  LGC999     -0.4450
      4  O1        45.9180  118.9640   52.6890 O.2   999  LGC999     -0.2472
      5  O2        47.2030  117.9340   54.8570 O.3   999  LGC999     -0.2082
      6  C3        48.2300  120.1420   55.1270 C.3   999  LGC999      0.2270
      7  O3        49.4110  119.6120   55.7460 O.3   999  LGC999     -0.2169
      8  C4        48.5780  121.3400   54.2130 C.3   999  LGC999      0.2276
      9  O4        49.2110  122.3980   54.9600 O.3   999  LGC999     -0.2163
     10  C5        47.2150  121.9670   53.7810 C.3   999  LGC999      0.2344
     11  C6        47.1790  123.2290   52.8810 C.3   999  LGC999      0.2281
     12  O6        48.0140  123.0290   51.6750 O.3   999  LGC999     -0.2163
@<TRIPOS>BOND
     1    12    11    1
     2     4     1    2
     3    11    10    1
     4     3     1    1
     5     3    10    1
     6     1     2    1
     7    10     8    1
     8     2     5    1
     9     2     6    1
    10     8     9    1
    11     8     6    1
    12     6     7    1
