@<TRIPOS>MOLECULE
1e6y_TP7_A_1.pdb
 21 20 0 0 0
SMALL
GASTEIGER

@<TRIPOS>ATOM
      1  N         44.1440   84.2320   60.3770 N.am  2571  TP72571    -0.1893
      2  P         46.0730   87.1430   57.5330 P.3   2571  TP72571     0.5326
      3  O1P       47.1670   86.3980   56.8650 O.3   2571  TP72571    -0.1145
      4  O2P       45.1230   87.6820   56.5460 O.2   2571  TP72571    -0.2224
      5  O3P       46.6110   88.2500   58.3850 O.3   2571  TP72571    -0.1145
      6  O4P       45.2350   86.1150   58.5070 O.3   2571  TP72571    -0.2704
      7  CB        44.8490   84.8580   58.1250 C.3   2571  TP72571     0.1572
      8  C         46.5070   83.9190   59.6940 C.2   2571  TP72571     0.3867
      9  O         47.3290   83.2410   59.0250 O.co2 2571  TP72571    -0.2437
     10  OXT       46.8300   84.6200   60.6900 O.co2 2571  TP72571    -0.2437
     11  CA        45.0080   83.9030   59.2820 C.3   2571  TP72571     0.2254
     12  CG        43.3970   84.9270   57.6580 C.3   2571  TP72571     0.0351
     13  O1        42.6870   82.5250   59.9640 O.2   2571  TP72571    -0.2684
     14  C1        43.1490   83.3490   60.8120 C.2   2571  TP72571     0.2651
     15  C2        42.7240   83.4420   62.1340 C.2   2571  TP72571     0.0549
     16  C3        41.6340   82.4760   62.6090 C.2   2571  TP72571    -0.0214
     17  C4        41.2570   82.3490   64.1120 C.3   2571  TP72571     0.0262
     18  C5        40.5530   83.6580   64.5610 C.3   2571  TP72571     0.0056
     19  C6        39.1510   83.7950   63.8930 C.3   2571  TP72571     0.0129
     20  C7        38.3140   82.6050   64.2100 C.3   2571  TP72571     0.0687
     21  S7        36.6330   82.5710   63.5220 S.3   2571  TP72571    -0.0821
@<TRIPOS>BOND
     1     4     2    2
     2     3     2    1
     3     2     5    1
     4     2     6    1
     5    12     7    1
     6     7     6    1
     7     7    11    1
     8     9     8   ar
     9    11     8    1
    10    11     1    1
    11     8    10   ar
    12    13    14    2
    13     1    14   am
    14    14    15    1
    15    15    16    2
    16    16    17    1
    17    21    20    1
    18    19    20    1
    19    19    18    1
    20    17    18    1
