@<TRIPOS>MOLECULE
1e6z_NGO_A_1.pdb
 14 15 0 0 0
SMALL
GASTEIGER

@<TRIPOS>ATOM
      1  C1        19.1550   44.7050  102.0970 C.3   999  NGO999      0.3144
      2  C2        17.6770   44.5200  101.5080 C.3   999  NGO999      0.2085
      3  C3        16.9770   43.2110  101.9610 C.3   999  NGO999      0.2132
      4  C4        17.9610   42.0370  102.1460 C.3   999  NGO999      0.2139
      5  C5        19.2260   42.4230  102.9450 C.3   999  NGO999      0.1845
      6  C6        20.2620   41.3070  103.0500 C.3   999  NGO999      0.2142
      7  C7        17.7170   46.0290  103.0630 C.2   999  NGO999      0.1990
      8  C8        17.1640   47.1180  103.8800 C.3   999  NGO999      0.0942
      9  N2        16.9700   45.5370  102.0670 N.2   999  NGO999     -0.2343
     10  O1        19.0100   45.6220  103.1570 O.2   999  NGO999     -0.4383
     11  O3        15.9600   42.8720  101.0100 O.3   999  NGO999     -0.2180
     12  O4        17.2910   40.9790  102.8150 O.3   999  NGO999     -0.2176
     13  O5        19.9200   43.5060  102.3300 O.3   999  NGO999     -0.3161
     14  O6        20.4510   40.6180  101.8140 O.3   999  NGO999     -0.2176
@<TRIPOS>BOND
     1    11     3    1
     2     2     3    1
     3     2     9    1
     4     2     1    1
     5    14     6    1
     6     3     4    1
     7     9     7    2
     8     1    13    1
     9     1    10    1
    10     4    12    1
    11     4     5    1
    12    13     5    1
    13     5     6    1
    14     7    10    1
    15     7     8    1
