@<TRIPOS>MOLECULE
1e70_G2F_M_1.pdb
 11 11 0 0 0
SMALL
GASTEIGER

@<TRIPOS>ATOM
      1  C1        46.3440  119.8560   53.8210 C.3   999  G2F999      0.1801
      2  C2        47.6790  119.1570   54.1550 C.3   999  G2F999      0.2230
      3  C3        48.2680  120.2200   55.1430 C.3   999  G2F999      0.2194
      4  C4        48.6530  121.4110   54.2410 C.3   999  G2F999      0.2144
      5  C5        47.2860  121.9970   53.8240 C.3   999  G2F999      0.1810
      6  C6        47.2790  123.2550   52.8680 C.3   999  G2F999      0.2141
      7  O3        49.4110  119.6530   55.7530 O.3   999  G2F999     -0.2173
      8  O4        49.3650  122.4160   54.9810 O.3   999  G2F999     -0.2176
      9  O5        46.6580  121.0060   52.9470 O.3   999  G2F999     -0.3479
     10  O6        48.2130  122.9680   51.8330 O.3   999  G2F999     -0.2176
     11  F2        47.1860  118.0510   54.9130 F     999  G2F999     -0.2317
@<TRIPOS>BOND
     1    10     6    1
     2     6     5    1
     3     9     1    1
     4     9     5    1
     5     1     2    1
     6     5     4    1
     7     2    11    1
     8     2     3    1
     9     4     8    1
    10     4     3    1
    11     3     7    1
