@<TRIPOS>MOLECULE
1e70_NAG_M_1.pdb
 14 14 0 0 0
SMALL
GASTEIGER

@<TRIPOS>ATOM
      1  C1        21.7970  132.1550   62.3770 C.3   901  NAG901      0.1665
      2  C2        21.1280  133.3500   63.0050 C.3   901  NAG901      0.1576
      3  C3        19.6530  133.0180   62.8870 C.3   901  NAG901      0.2069
      4  C4        19.3580  132.7970   61.3940 C.3   901  NAG901      0.2134
      5  C5        20.1950  131.6250   60.8190 C.3   901  NAG901      0.1809
      6  C6        19.9400  131.4340   59.3390 C.3   901  NAG901      0.2141
      7  C7        21.9650  134.5990   64.9770 C.2   901  NAG901      0.2420
      8  C8        22.0350  134.5660   66.4590 C.3   901  NAG901      0.0964
      9  N2        21.5390  133.4650   64.4130 N.am  901  NAG901     -0.2019
     10  O3        18.9870  134.1080   63.4810 O.3   901  NAG901     -0.2184
     11  O4        17.9690  132.4470   61.2210 O.3   901  NAG901     -0.2176
     12  O5        21.5780  131.9680   60.9950 O.3   901  NAG901     -0.3489
     13  O6        19.9630  130.0610   59.0300 O.3   901  NAG901     -0.2176
     14  O7        22.2430  135.5430   64.3670 O.2   901  NAG901     -0.2733
@<TRIPOS>BOND
     1    13     6    1
     2     6     5    1
     3     5    12    1
     4     5     4    1
     5    12     1    1
     6    11     4    1
     7     4     3    1
     8     1     2    1
     9     3     2    1
    10     3    10    1
    11     2     9    1
    12    14     7    2
    13     9     7   am
    14     7     8    1
