@<TRIPOS>MOLECULE
1e70_MAN_M_1.pdb
 11 11 0 0 0
SMALL
GASTEIGER

@<TRIPOS>ATOM
      1  C1        40.9700   88.8040   33.6100 C.3   956  MAN956      0.1777
      2  C2        42.4630   88.4840   33.3830 C.3   956  MAN956      0.2141
      3  C3        43.3670   88.9640   34.5300 C.3   956  MAN956      0.2173
      4  C4        43.2170   90.5310   34.5710 C.3   956  MAN956      0.2142
      5  C5        41.7000   90.8250   34.7160 C.3   956  MAN956      0.1810
      6  C6        41.3670   92.3160   34.7800 C.3   956  MAN956      0.2141
      7  O2        42.8310   89.3320   32.3080 O.3   956  MAN956     -0.2176
      8  O3        44.7410   88.6870   34.1690 O.3   956  MAN956     -0.2175
      9  O4        43.9560   91.0310   35.7040 O.3   956  MAN956     -0.2176
     10  O5        40.8580   90.2230   33.6640 O.3   956  MAN956     -0.3481
     11  O6        40.0630   92.3850   35.3620 O.3   956  MAN956     -0.2176
@<TRIPOS>BOND
     1     7     2    1
     2     2     1    1
     3     2     3    1
     4     1    10    1
     5    10     5    1
     6     8     3    1
     7     3     4    1
     8     4     5    1
     9     4     9    1
    10     5     6    1
    11     6    11    1
