@<TRIPOS>MOLECULE
1e71_NAG_M_1.pdb
 14 14 0 0 0
SMALL
GASTEIGER

@<TRIPOS>ATOM
      1  C1        21.8570  132.1260   62.3730 C.3   901  NAG901      0.1665
      2  C2        21.2520  133.3520   62.9910 C.3   901  NAG901      0.1576
      3  C3        19.8030  132.9680   62.8610 C.3   901  NAG901      0.2069
      4  C4        19.5440  132.7680   61.3530 C.3   901  NAG901      0.2134
      5  C5        20.3100  131.5360   60.8300 C.3   901  NAG901      0.1809
      6  C6        20.1400  131.1880   59.3800 C.3   901  NAG901      0.2141
      7  C7        22.1170  134.7080   64.8540 C.2   901  NAG901      0.2420
      8  C8        22.3260  134.7450   66.3200 C.3   901  NAG901      0.0964
      9  N2        21.6400  133.5340   64.3960 N.am  901  NAG901     -0.2019
     10  O3        19.1370  134.1250   63.2990 O.3   901  NAG901     -0.2184
     11  O4        18.1580  132.5230   61.0930 O.3   901  NAG901     -0.2176
     12  O5        21.6850  131.9370   60.9820 O.3   901  NAG901     -0.3489
     13  O6        20.8280  129.9860   59.0870 O.3   901  NAG901     -0.2176
     14  O7        22.3660  135.6150   64.1860 O.2   901  NAG901     -0.2733
@<TRIPOS>BOND
     1    13     6    1
     2     6     5    1
     3     5    12    1
     4     5     4    1
     5    12     1    1
     6    11     4    1
     7     4     3    1
     8     1     2    1
     9     3     2    1
    10     3    10    1
    11     2     9    1
    12    14     7    2
    13     9     7   am
    14     7     8    1
