@<TRIPOS>MOLECULE
1e71_MAN_M_1.pdb
 11 11 0 0 0
SMALL
GASTEIGER

@<TRIPOS>ATOM
      1  C1        40.9430   88.8270   33.5220 C.3   956  MAN956      0.1777
      2  C2        42.4260   88.5020   33.4520 C.3   956  MAN956      0.2141
      3  C3        43.3240   88.9290   34.6300 C.3   956  MAN956      0.2173
      4  C4        43.1550   90.4750   34.7090 C.3   956  MAN956      0.2142
      5  C5        41.6110   90.7020   34.8830 C.3   956  MAN956      0.1810
      6  C6        41.3860   92.2240   34.9050 C.3   956  MAN956      0.2141
      7  O2        43.1230   88.9350   32.3060 O.3   956  MAN956     -0.2176
      8  O3        44.6830   88.6210   34.2360 O.3   956  MAN956     -0.2175
      9  O4        43.8770   91.1240   35.7550 O.3   956  MAN956     -0.2176
     10  O5        40.7710   90.2160   33.7670 O.3   956  MAN956     -0.3481
     11  O6        40.0420   92.4180   35.3130 O.3   956  MAN956     -0.2176
@<TRIPOS>BOND
     1     7     2    1
     2     2     1    1
     3     2     3    1
     4     1    10    1
     5    10     5    1
     6     8     3    1
     7     3     4    1
     8     4     5    1
     9     4     9    1
    10     5     6    1
    11     6    11    1
