@<TRIPOS>MOLECULE
1e71_ASC_M_1.pdb
 12 12 0 0 0
SMALL
GASTEIGER

@<TRIPOS>ATOM
      1  C1        44.4100  119.2850   46.9000 C.2   995  ASC995      0.3792
      2  C2        45.7460  118.3570   47.1990 C.2   995  ASC995      0.2817
      3  C3        46.4580  118.9510   48.2730 C.3   995  ASC995      0.2618
      4  C4        45.7240  120.2920   48.6260 C.3   995  ASC995      0.2398
      5  C5        46.5620  121.6110   48.6310 C.3   995  ASC995      0.2275
      6  C6        45.8240  122.8500   49.1180 C.3   995  ASC995      0.2186
      7  O1        43.6660  119.3470   46.1840 O.2   995  ASC995     -0.2416
      8  O2        46.2320  117.4070   46.5690 O.2   995  ASC995     -0.2816
      9  O3        47.5140  118.6230   49.2040 O.3   995  ASC995     -0.2105
     10  O4        44.5750  120.3300   47.8810 O.3   995  ASC995     -0.4412
     11  O5        47.1170  121.7820   47.3600 O.3   995  ASC995     -0.2163
     12  O6        46.7070  123.9400   49.2860 O.3   995  ASC995     -0.2174
@<TRIPOS>BOND
     1     7     1    2
     2     8     2    2
     3     1     2    1
     4     1    10    1
     5     2     3    1
     6    11     5    1
     7    10     4    1
     8     3     4    1
     9     3     9    1
    10     4     5    1
    11     5     6    1
    12     6    12    1
