@<TRIPOS>MOLECULE
1e72_MAN_M_1.pdb
 11 11 0 0 0
SMALL
GASTEIGER

@<TRIPOS>ATOM
      1  C1        40.9380   88.8840   33.4850 C.3   956  MAN956      0.1777
      2  C2        42.4070   88.4870   33.3250 C.3   956  MAN956      0.2141
      3  C3        43.3040   88.9070   34.4990 C.3   956  MAN956      0.2173
      4  C4        43.1320   90.4490   34.6490 C.3   956  MAN956      0.2142
      5  C5        41.6130   90.7330   34.8890 C.3   956  MAN956      0.1810
      6  C6        41.4090   92.2580   34.9530 C.3   956  MAN956      0.2141
      7  O2        42.9820   89.1190   32.2050 O.3   956  MAN956     -0.2176
      8  O3        44.6780   88.6930   34.0770 O.3   956  MAN956     -0.2175
      9  O4        43.8880   90.9450   35.7620 O.3   956  MAN956     -0.2176
     10  O5        40.7720   90.2680   33.7600 O.3   956  MAN956     -0.3481
     11  O6        40.0460   92.4280   35.3100 O.3   956  MAN956     -0.2176
@<TRIPOS>BOND
     1     7     2    1
     2     2     1    1
     3     2     3    1
     4     1    10    1
     5    10     5    1
     6     8     3    1
     7     3     4    1
     8     4     5    1
     9     4     9    1
    10     5     6    1
    11     6    11    1
