@<TRIPOS>MOLECULE
1e72_ASC_M_1.pdb
 12 12 0 0 0
SMALL
GASTEIGER

@<TRIPOS>ATOM
      1  C1        44.3900  119.3930   46.8450 C.2   995  ASC995      0.3792
      2  C2        45.7290  118.4360   47.1030 C.2   995  ASC995      0.2817
      3  C3        46.4640  118.9790   48.2100 C.3   995  ASC995      0.2618
      4  C4        45.6990  120.2950   48.5990 C.3   995  ASC995      0.2398
      5  C5        46.5030  121.6270   48.7070 C.3   995  ASC995      0.2275
      6  C6        45.7940  122.8860   49.2130 C.3   995  ASC995      0.2186
      7  O1        43.5790  119.4850   46.2200 O.2   995  ASC995     -0.2416
      8  O2        46.0950  117.3900   46.5500 O.2   995  ASC995     -0.2816
      9  O3        47.4850  118.5940   49.1650 O.3   995  ASC995     -0.2105
     10  O4        44.5150  120.3980   47.8600 O.3   995  ASC995     -0.4412
     11  O5        47.0560  121.9090   47.4240 O.3   995  ASC995     -0.2163
     12  O6        46.7380  123.9890   49.2760 O.3   995  ASC995     -0.2174
@<TRIPOS>BOND
     1     7     1    2
     2     8     2    2
     3     1     2    1
     4     1    10    1
     5     2     3    1
     6    11     5    1
     7    10     4    1
     8     3     4    1
     9     3     9    1
    10     4     5    1
    11     5     6    1
    12     6    12    1
