@<TRIPOS>MOLECULE
1e72_GOX_M_1.pdb
 13 13 0 0 0
SMALL
GASTEIGER

@<TRIPOS>ATOM
      1  C1        46.7020  119.7400   53.1760 C.2   999  GOX999      0.4163
      2  N1        46.2750  118.9950   52.1470 N.4   999  GOX999      0.1455
      3  C2        47.7740  119.0850   54.0360 C.3   999  GOX999      0.2978
      4  N5        46.6980  121.0720   52.8070 N.2   999  GOX999     -0.0582
      5  O7        45.6150  119.4710   51.1010 O.3   999  GOX999      0.0696
      6  O2        47.1030  117.9310   54.5760 O.3   999  GOX999     -0.2066
      7  C3        48.2040  120.2250   54.9390 C.3   999  GOX999      0.2291
      8  O3        49.3070  119.6210   55.6010 O.3   999  GOX999     -0.2168
      9  C4        48.6440  121.4580   54.0870 C.3   999  GOX999      0.2365
     10  O4        49.2470  122.4450   54.9200 O.3   999  GOX999     -0.2155
     11  C5        47.2400  122.1220   53.6360 C.3   999  GOX999      0.2803
     12  C6        47.2410  123.3410   52.7700 C.3   999  GOX999      0.2377
     13  O6        48.1270  123.2430   51.5990 O.3   999  GOX999     -0.2155
@<TRIPOS>BOND
     1     5     2    1
     2    13    12    1
     3     2     1    1
     4    12    11    1
     5     4     1    2
     6     4    11    1
     7     1     3    1
     8    11     9    1
     9     3     6    1
    10     3     7    1
    11     9    10    1
    12     9     7    1
    13     7     8    1
