@<TRIPOS>MOLECULE
1e72_NAG_M_1.pdb
 14 14 0 0 0
SMALL
GASTEIGER

@<TRIPOS>ATOM
      1  C1        21.7820  132.2230   62.2770 C.3   901  NAG901      0.1665
      2  C2        21.1370  133.4100   62.9180 C.3   901  NAG901      0.1576
      3  C3        19.6740  133.0810   62.7670 C.3   901  NAG901      0.2069
      4  C4        19.4130  132.7830   61.2770 C.3   901  NAG901      0.2134
      5  C5        20.1930  131.5540   60.7750 C.3   901  NAG901      0.1809
      6  C6        19.9850  131.1800   59.3300 C.3   901  NAG901      0.2141
      7  C7        22.0060  134.7300   64.8110 C.2   901  NAG901      0.2420
      8  C8        22.2370  134.8190   66.2690 C.3   901  NAG901      0.0964
      9  N2        21.5200  133.5610   64.3460 N.am  901  NAG901     -0.2019
     10  O3        18.9930  134.2560   63.1710 O.3   901  NAG901     -0.2184
     11  O4        18.0120  132.4850   61.1050 O.3   901  NAG901     -0.2176
     12  O5        21.5790  131.9340   60.9140 O.3   901  NAG901     -0.3489
     13  O6        20.6350  129.9400   59.1060 O.3   901  NAG901     -0.2176
     14  O7        22.2360  135.6150   64.1110 O.2   901  NAG901     -0.2733
@<TRIPOS>BOND
     1    13     6    1
     2     6     5    1
     3     5    12    1
     4     5     4    1
     5    12     1    1
     6    11     4    1
     7     4     3    1
     8     1     2    1
     9     3     2    1
    10     3    10    1
    11     2     9    1
    12    14     7    2
    13     9     7   am
    14     7     8    1
