@<TRIPOS>MOLECULE
1e73_ASC_M_1.pdb
 12 12 0 0 0
SMALL
GASTEIGER

@<TRIPOS>ATOM
      1  C1        44.4660  119.2940   46.9190 C.2   995  ASC995      0.3792
      2  C2        45.7980  118.3590   47.2210 C.2   995  ASC995      0.2817
      3  C3        46.4600  118.9730   48.3030 C.3   995  ASC995      0.2618
      4  C4        45.6520  120.2650   48.7370 C.3   995  ASC995      0.2398
      5  C5        46.5390  121.5730   48.6670 C.3   995  ASC995      0.2275
      6  C6        45.7530  122.8020   49.1180 C.3   995  ASC995      0.2186
      7  O1        43.7290  119.1660   46.2000 O.2   995  ASC995     -0.2416
      8  O2        46.1900  117.3280   46.5870 O.2   995  ASC995     -0.2816
      9  O3        47.4870  118.6030   49.2290 O.3   995  ASC995     -0.2105
     10  O4        44.5090  120.3250   47.9110 O.3   995  ASC995     -0.4412
     11  O5        47.0450  121.7440   47.3780 O.3   995  ASC995     -0.2163
     12  O6        46.6710  123.8510   49.3830 O.3   995  ASC995     -0.2174
@<TRIPOS>BOND
     1     7     1    2
     2     8     2    2
     3     1     2    1
     4     1    10    1
     5     2     3    1
     6    11     5    1
     7    10     4    1
     8     3     4    1
     9     3     9    1
    10     5     4    1
    11     5     6    1
    12     6    12    1
