@<TRIPOS>MOLECULE
1e73_MAN_M_1.pdb
 11 11 0 0 0
SMALL
GASTEIGER

@<TRIPOS>ATOM
      1  C1        40.9780   88.8160   33.5820 C.3   956  MAN956      0.1777
      2  C2        42.4580   88.4460   33.4800 C.3   956  MAN956      0.2141
      3  C3        43.3330   88.9390   34.6490 C.3   956  MAN956      0.2173
      4  C4        43.1630   90.4930   34.6110 C.3   956  MAN956      0.2142
      5  C5        41.6340   90.7550   34.8500 C.3   956  MAN956      0.1810
      6  C6        41.3690   92.2670   34.8670 C.3   956  MAN956      0.2141
      7  O2        43.0610   88.9500   32.3230 O.3   956  MAN956     -0.2176
      8  O3        44.7210   88.6710   34.3020 O.3   956  MAN956     -0.2175
      9  O4        43.9430   91.1570   35.6000 O.3   956  MAN956     -0.2176
     10  O5        40.7870   90.2080   33.7640 O.3   956  MAN956     -0.3481
     11  O6        40.0000   92.3910   35.2670 O.3   956  MAN956     -0.2176
@<TRIPOS>BOND
     1     7     2    1
     2     2     1    1
     3     2     3    1
     4     1    10    1
     5    10     5    1
     6     8     3    1
     7     4     3    1
     8     4     5    1
     9     4     9    1
    10     5     6    1
    11     6    11    1
