@<TRIPOS>MOLECULE
1e73_G2F_M_1.pdb
 11 11 0 0 0
SMALL
GASTEIGER

@<TRIPOS>ATOM
      1  C1        46.2320  119.7820   53.9540 C.3   999  G2F999      0.1801
      2  C2        47.6050  119.1840   54.2760 C.3   999  G2F999      0.2230
      3  C3        48.2520  120.2300   55.2200 C.3   999  G2F999      0.2194
      4  C4        48.5520  121.4260   54.3450 C.3   999  G2F999      0.2144
      5  C5        47.1600  121.9780   54.0050 C.3   999  G2F999      0.1810
      6  C6        47.2030  123.1980   52.9850 C.3   999  G2F999      0.2141
      7  O3        49.4440  119.6850   55.7330 O.3   999  G2F999     -0.2173
      8  O4        49.2170  122.4640   55.1260 O.3   999  G2F999     -0.2176
      9  O5        46.5630  120.9480   53.1560 O.3   999  G2F999     -0.3479
     10  O6        48.1240  122.8920   51.9610 O.3   999  G2F999     -0.2176
     11  F2        47.3430  118.0240   55.0090 F     999  G2F999     -0.2317
@<TRIPOS>BOND
     1    10     6    1
     2     6     5    1
     3     9     1    1
     4     9     5    1
     5     1     2    1
     6     5     4    1
     7     2    11    1
     8     2     3    1
     9     4     8    1
    10     4     3    1
    11     3     7    1
