@<TRIPOS>MOLECULE
1e73_NAG_M_1.pdb
 14 14 0 0 0
SMALL
GASTEIGER

@<TRIPOS>ATOM
      1  C1        21.8570  132.1610   62.3790 C.3   901  NAG901      0.1665
      2  C2        21.2030  133.3690   63.0000 C.3   901  NAG901      0.1576
      3  C3        19.7440  133.0160   62.8420 C.3   901  NAG901      0.2069
      4  C4        19.5040  132.7590   61.3500 C.3   901  NAG901      0.2134
      5  C5        20.3020  131.5350   60.8340 C.3   901  NAG901      0.1809
      6  C6        20.0900  131.2200   59.3740 C.3   901  NAG901      0.2141
      7  C7        22.1110  134.6950   64.8840 C.2   901  NAG901      0.2420
      8  C8        22.3030  134.7110   66.3540 C.3   901  NAG901      0.0964
      9  N2        21.5880  133.5380   64.4150 N.am  901  NAG901     -0.2019
     10  O3        19.0630  134.1570   63.3160 O.3   901  NAG901     -0.2184
     11  O4        18.1250  132.4630   61.1020 O.3   901  NAG901     -0.2176
     12  O5        21.6720  131.9460   60.9980 O.3   901  NAG901     -0.3489
     13  O6        20.5670  129.9020   59.1730 O.3   901  NAG901     -0.2176
     14  O7        22.3780  135.5990   64.2290 O.2   901  NAG901     -0.2733
@<TRIPOS>BOND
     1    13     6    1
     2     6     5    1
     3     5    12    1
     4     5     4    1
     5    12     1    1
     6    11     4    1
     7     4     3    1
     8     1     2    1
     9     3     2    1
    10     3    10    1
    11     2     9    1
    12    14     7    2
    13     9     7   am
    14     7     8    1
