@<TRIPOS>MOLECULE
1e77_BG6_A_1.pdb
 16 16 0 0 0
SMALL
GASTEIGER

@<TRIPOS>ATOM
      1  C1        78.6790   -5.5330   27.5410 C.3   801  BG6801      0.3024
      2  C2        77.9870   -5.6930   28.9030 C.3   801  BG6801      0.2434
      3  O1        79.1160   -4.2260   27.4010 O.3   801  BG6801     -0.1869
      4  O5        77.7550   -5.7910   26.4700 O.3   801  BG6801     -0.3237
      5  C3        77.3490   -7.0780   29.0270 C.3   801  BG6801      0.2199
      6  O2        78.9250   -5.4900   29.9490 O.3   801  BG6801     -0.2148
      7  C4        76.4020   -7.2940   27.8440 C.3   801  BG6801      0.2143
      8  O3        76.6330   -7.1750   30.2540 O.3   801  BG6801     -0.2174
      9  C5        77.1670   -7.1110   26.5300 C.3   801  BG6801      0.1808
     10  O4        75.8420   -8.5990   27.8940 O.3   801  BG6801     -0.2176
     11  C6        76.2810   -7.2660   25.3050 C.3   801  BG6801      0.1859
     12  O6        77.0240   -6.9170   24.1210 O.3   801  BG6801     -0.2675
     13  P         77.2180   -7.9500   22.8910 P.3   801  BG6801      0.5327
     14  O1P       77.2390   -9.2920   23.5240 O.3   801  BG6801     -0.1145
     15  O2P       78.4940   -7.4210   22.3500 O.3   801  BG6801     -0.1145
     16  O3P       76.0560   -7.6760   22.0250 O.2   801  BG6801     -0.2224
@<TRIPOS>BOND
     1    16    13    2
     2    15    13    1
     3    13    14    1
     4    13    12    1
     5    12    11    1
     6    11     9    1
     7     4     9    1
     8     4     1    1
     9     9     7    1
    10     3     1    1
    11     1     2    1
    12     7    10    1
    13     7     5    1
    14     2     5    1
    15     2     6    1
    16     5     8    1
