@<TRIPOS>MOLECULE
1e79_DCW_D_1.pdb
 16 17 0 0 0
SMALL
GASTEIGER

@<TRIPOS>ATOM
      1  N1        97.9550   34.9100   59.5650 N.am  700  DCW700     -0.1890
      2  O1        97.7620   36.9890   58.6040 O.2   700  DCW700     -0.2492
      3  C1        97.6460   36.2790   59.6290 C.2   700  DCW700      0.3391
      4  C2        96.9490   33.9190   59.3530 C.3   700  DCW700      0.0969
      5  N2        97.6790   36.8130   60.8390 N.am  700  DCW700     -0.1890
      6  C3        95.5670   34.4300   59.5230 C.3   700  DCW700      0.0217
      7  C7        97.1120   33.3780   57.9340 C.3   700  DCW700      0.0217
      8  C4        94.5070   33.4010   59.2580 C.3   700  DCW700      0.0018
      9  C5        94.6630   32.7340   57.9360 C.3   700  DCW700      0.0001
     10  C6        96.0940   32.3090   57.6560 C.3   700  DCW700      0.0018
     11  C8        97.8140   38.1800   61.2410 C.3   700  DCW700      0.0969
     12  C9        96.9970   38.5110   62.4470 C.3   700  DCW700      0.0217
     13  C13       99.2770   38.5180   61.5020 C.3   700  DCW700      0.0217
     14  C10       97.1900   39.8990   62.9670 C.3   700  DCW700      0.0018
     15  C11       98.6310   40.2530   63.1940 C.3   700  DCW700      0.0001
     16  C12       99.4830   39.9300   61.9970 C.3   700  DCW700      0.0018
@<TRIPOS>BOND
     1    10     7    1
     2    10     9    1
     3     7     4    1
     4     9     8    1
     5     2     3    2
     6     8     6    1
     7     4     6    1
     8     4     1    1
     9     1     3   am
    10     3     5   am
    11     5    11    1
    12    11    13    1
    13    11    12    1
    14    13    16    1
    15    16    15    1
    16    12    14    1
    17    14    15    1
