@<TRIPOS>MOLECULE
1e79_ADP_B_1.pdb
 27 29 0 0 0
SMALL
GASTEIGER

@<TRIPOS>ATOM
      1  PB       102.0880  103.2360   77.8130 P.3   600  ADP600      0.5373
      2  O1B      101.4380  102.1730   78.6100 O.3   600  ADP600     -0.1143
      3  O2B      103.2730  103.7230   78.5580 O.3   600  ADP600     -0.1143
      4  O3B      102.3850  102.8640   76.4160 O.2   600  ADP600     -0.2221
      5  PA       101.2000  106.0230   77.7240 P.3   600  ADP600      0.2231
      6  O1A      101.4000  106.4530   79.1300 O.3   600  ADP600     -0.4370
      7  O2A      102.2600  106.5560   76.8670 O.2   600  ADP600     -0.5169
      8  O3A      101.0390  104.4270   77.6140 O.3   600  ADP600     -0.2261
      9  O5'       99.7570  106.4970   77.2290 O.3   600  ADP600     -0.3111
     10  C5'       99.2720  106.2470   75.8750 C.3   600  ADP600      0.1813
     11  C4'       98.3990  107.4180   75.4510 C.3   600  ADP600      0.1821
     12  O4'       97.3400  107.5970   76.4380 O.3   600  ADP600     -0.3135
     13  C3'       99.1190  108.7680   75.3780 C.3   600  ADP600      0.2184
     14  O3'       98.5870  109.5920   74.3520 O.3   600  ADP600     -0.2174
     15  C2'       98.7990  109.3950   76.7390 C.3   600  ADP600      0.2570
     16  O2'       98.9020  110.8060   76.7110 O.3   600  ADP600     -0.2130
     17  C1'       97.3530  108.9220   76.9320 C.3   600  ADP600      0.3186
     18  N9        96.9050  108.9240   78.3260 N.pl3 600  ADP600     -0.1439
     19  C8        97.4360  108.2940   79.4090 C.3   600  ADP600      0.3377
     20  N7        96.7640  108.5240   80.5360 N.2   600  ADP600     -0.2095
     21  C5        95.7390  109.3490   80.1520 C.2   600  ADP600      0.2526
     22  C6        94.6840  109.9420   80.8720 C.2   600  ADP600      0.4393
     23  N6        94.4830  109.7850   82.1760 N.pl3 600  ADP600      0.2180
     24  N1        93.8240  110.7260   80.1710 N.2   600  ADP600      0.0021
     25  C2        94.0280  110.8870   78.8280 C.3   600  ADP600      0.5254
     26  N3        94.9580  110.3830   78.0770 N.2   600  ADP600     -0.0055
     27  C4        95.8010  109.6120   78.8010 C.2   600  ADP600      0.3518
@<TRIPOS>BOND
     1    14    13    1
     2    13    11    1
     3    13    15    1
     4    11    10    1
     5    11    12    1
     6    10     9    1
     7     4     1    2
     8    12    17    1
     9    16    15    1
    10    15    17    1
    11     7     5    2
    12    17    18    1
    13     9     5    1
    14     8     5    1
    15     8     1    1
    16     5     6    1
    17     1     3    1
    18     1     2    1
    19    26    27    2
    20    26    25    1
    21    18    27    1
    22    18    19    1
    23    27    21    1
    24    25    24    1
    25    19    20    1
    26    21    20    2
    27    21    22    1
    28    24    22    2
    29    22    23    1
