@<TRIPOS>MOLECULE
1e79_ATP_A_1.pdb
 31 33 0 0 0
SMALL
GASTEIGER

@<TRIPOS>ATOM
      1  PG       101.2270   65.7940   44.7770 P.3   600  ATP600      0.5373
      2  O1G      101.6170   65.8010   46.2180 O.3   600  ATP600     -0.1143
      3  O2G      102.2110   66.5910   44.0130 O.2   600  ATP600     -0.2221
      4  O3G      101.0070   64.4200   44.2520 O.3   600  ATP600     -0.1143
      5  PB        99.2310   67.6350   43.7190 P.3   600  ATP600      0.2277
      6  O1B       98.8850   68.8450   44.5010 O.3   600  ATP600     -0.4368
      7  O2B      100.2000   67.9930   42.6550 O.2   600  ATP600     -0.5168
      8  O3B       99.7520   66.4210   44.6350 O.3   600  ATP600     -0.2258
      9  PA        97.6080   66.3550   41.6470 P.3   600  ATP600      0.2189
     10  O1A       97.6500   67.4020   40.5840 O.2   600  ATP600     -0.5170
     11  O2A       98.5420   65.2630   41.3270 O.3   600  ATP600     -0.4371
     12  O3A       97.8980   67.0210   43.0840 O.3   600  ATP600     -0.2700
     13  O5'       96.1330   65.8120   41.8110 O.3   600  ATP600     -0.3112
     14  C5'       95.6670   64.9390   42.8670 C.3   600  ATP600      0.1813
     15  C4'       94.4770   64.1190   42.3880 C.3   600  ATP600      0.1821
     16  O4'       93.3850   64.9970   42.0240 O.3   600  ATP600     -0.3135
     17  C3'       94.7180   63.2370   41.1570 C.3   600  ATP600      0.2184
     18  O3'       93.9810   62.0250   41.2500 O.3   600  ATP600     -0.2174
     19  C2'       94.1240   64.0550   40.0100 C.3   600  ATP600      0.2570
     20  O2'       93.7160   63.2190   38.9330 O.3   600  ATP600     -0.2130
     21  C1'       92.9380   64.7140   40.7100 C.3   600  ATP600      0.3186
     22  N9        92.4760   65.9650   40.1000 N.pl3 600  ATP600     -0.1439
     23  C8        93.1820   67.0980   39.8370 C.3   600  ATP600      0.3377
     24  N7        92.4540   68.0610   39.2730 N.2   600  ATP600     -0.2095
     25  C5        91.2020   67.5050   39.1680 C.2   600  ATP600      0.2526
     26  C6        89.9850   68.0110   38.6620 C.2   600  ATP600      0.4393
     27  N6        89.8560   69.2310   38.1570 N.pl3 600  ATP600      0.2180
     28  N1        88.9090   67.1930   38.7170 N.2   600  ATP600      0.0021
     29  C2        89.0530   65.9410   39.2430 C.3   600  ATP600      0.5254
     30  N3        90.1200   65.3840   39.7280 N.2   600  ATP600     -0.0055
     31  C4        91.1860   66.2170   39.6720 C.2   600  ATP600      0.3518
@<TRIPOS>BOND
     1    27    26    1
     2    26    28    2
     3    26    25    1
     4    28    29    1
     5    20    19    1
     6    25    24    2
     7    25    31    1
     8    29    30    1
     9    24    23    1
    10    31    30    2
    11    31    22    1
    12    23    22    1
    13    19    21    1
    14    19    17    1
    15    22    21    1
    16    10     9    2
    17    21    16    1
    18    17    18    1
    19    17    15    1
    20    11     9    1
    21     9    13    1
    22     9    12    1
    23    13    14    1
    24    16    15    1
    25    15    14    1
    26     7     5    2
    27    12     5    1
    28     5     6    1
    29     5     8    1
    30     3     1    2
    31     4     1    1
    32     8     1    1
    33     1     2    1
