@<TRIPOS>MOLECULE
1e7a_PFL_A_1.pdb
 13 13 0 0 0
SMALL
GASTEIGER

@<TRIPOS>ATOM
      1  O1         9.4980    3.6520  -12.7540 O.3   4001  PFL4001    -0.2872
      2  C1         9.9850    2.4950  -13.4070 C.ar  4001  PFL4001     0.1877
      3  C2        11.2170    1.9120  -12.9580 C.ar  4001  PFL4001     0.0161
      4  C6         9.2380    1.9590  -14.4920 C.ar  4001  PFL4001     0.0161
      5  C3        11.6710    0.7480  -13.6420 C.ar  4001  PFL4001    -0.0011
      6  C7        11.9960    2.5250  -11.7870 C.3   4001  PFL4001     0.0255
      7  C4        10.9540    0.2030  -14.7060 C.ar  4001  PFL4001    -0.0004
      8  C5         9.7690    0.7870  -15.1240 C.ar  4001  PFL4001    -0.0011
      9  C10        7.9110    2.6080  -14.9590 C.3   4001  PFL4001     0.0255
     10  C8        12.7930    3.7070  -12.2540 C.3   4001  PFL4001     0.0048
     11  C9        12.9680    1.5720  -11.1180 C.3   4001  PFL4001     0.0048
     12  C11        6.9910    1.6030  -15.5780 C.3   4001  PFL4001     0.0048
     13  C12        8.1790    3.7100  -15.9380 C.3   4001  PFL4001     0.0048
@<TRIPOS>BOND
     1    13     9    1
     2    12     9    1
     3     8     7   ar
     4     8     4   ar
     5     9     4    1
     6     7     5   ar
     7     4     2   ar
     8     5     3   ar
     9     2     3   ar
    10     2     1    1
    11     3     6    1
    12    10     6    1
    13     6    11    1
