@<TRIPOS>MOLECULE
1e7c_MYR_A_1.pdb
 15 14 0 0 0
SMALL
GASTEIGER

@<TRIPOS>ATOM
      1  C1        28.8060   12.0440   36.3470 C.2   1001  MYR1001     0.3649
      2  O1        28.1060   11.1110   36.8020 O.co2 1001  MYR1001    -0.2457
      3  O2        28.3310   13.1520   36.0190 O.co2 1001  MYR1001    -0.2457
      4  C2        30.3130   11.8290   36.1780 C.3   1001  MYR1001     0.1141
      5  C3        31.0230   11.8110   37.5400 C.3   1001  MYR1001     0.0118
      6  C4        31.4640   13.2520   37.7760 C.3   1001  MYR1001     0.0006
      7  C5        32.9710   13.3830   37.7500 C.3   1001  MYR1001     0.0000
      8  C6        33.3930   14.8420   37.7500 C.3   1001  MYR1001     0.0000
      9  C7        33.9310   15.2640   36.3990 C.3   1001  MYR1001     0.0000
     10  C8        35.4450   15.4010   36.4140 C.3   1001  MYR1001     0.0000
     11  C9        35.9530   16.0630   35.1390 C.3   1001  MYR1001     0.0000
     12  C10       37.1550   15.3350   34.5670 C.3   1001  MYR1001     0.0000
     13  C11       37.4920   15.8290   33.1790 C.3   1001  MYR1001     0.0000
     14  C12       37.7210   14.6660   32.2290 C.3   1001  MYR1001     0.0000
     15  C13       36.5680   14.5020   31.2470 C.3   1001  MYR1001     0.0000
@<TRIPOS>BOND
     1    15    14    1
     2    14    13    1
     3    13    12    1
     4    12    11    1
     5    11    10    1
     6     3     1   ar
     7     4     1    1
     8     4     5    1
     9     1     2   ar
    10     9    10    1
    11     9     8    1
    12     5     6    1
    13     7     8    1
    14     7     6    1
