@<TRIPOS>MOLECULE
1e7e_DKA_A_1.pdb
 11 10 0 0 0
SMALL
GASTEIGER

@<TRIPOS>ATOM
      1  C1        29.7330   13.1170   36.1420 C.2   1001  DKA1001     0.3649
      2  O1        29.4140   12.6240   37.2400 O.co2 1001  DKA1001    -0.2457
      3  C2        31.1880   12.9990   35.6740 C.3   1001  DKA1001     0.1141
      4  C3        32.0200   14.2020   36.1440 C.3   1001  DKA1001     0.0118
      5  C4        33.2850   14.1510   35.2840 C.3   1001  DKA1001     0.0006
      6  C5        34.3400   15.1550   35.7610 C.3   1001  DKA1001     0.0000
      7  C6        35.0050   15.9260   34.6130 C.3   1001  DKA1001     0.0000
      8  C7        36.3190   15.3030   34.1580 C.3   1001  DKA1001     0.0000
      9  C8        37.2660   16.3520   33.5940 C.3   1001  DKA1001     0.0000
     10  C9        38.4490   15.7080   32.8940 C.3   1001  DKA1001     0.0000
     11  O2        28.9080   13.6890   35.4050 O.co2 1001  DKA1001    -0.2457
@<TRIPOS>BOND
     1    10     9    1
     2     9     8    1
     3     8     7    1
     4     7     6    1
     5     5     6    1
     6     5     4    1
     7    11     1   ar
     8     3     1    1
     9     3     4    1
    10     1     2   ar
