@<TRIPOS>MOLECULE
1e7f_DAO_A_1.pdb
 13 12 0 0 0
SMALL
GASTEIGER

@<TRIPOS>ATOM
      1  O1        28.7140   11.5930   37.1600 O.co2 1001  DAO1001    -0.2457
      2  O2        29.2460   13.5330   36.2730 O.co2 1001  DAO1001    -0.2457
      3  C1        29.5120   12.3480   36.5610 C.2   1001  DAO1001     0.3649
      4  C2        30.8770   11.8020   36.1610 C.3   1001  DAO1001     0.1141
      5  C3        31.9280   12.1900   37.2030 C.3   1001  DAO1001     0.0118
      6  C4        32.6780   13.3500   36.5730 C.3   1001  DAO1001     0.0006
      7  C5        33.7830   13.8580   37.4870 C.3   1001  DAO1001     0.0000
      8  C6        34.2240   15.2680   37.0940 C.3   1001  DAO1001     0.0000
      9  C7        35.7250   15.3520   36.8150 C.3   1001  DAO1001     0.0000
     10  C8        36.0480   15.0900   35.3450 C.3   1001  DAO1001     0.0000
     11  C9        37.2420   15.9040   34.8850 C.3   1001  DAO1001     0.0000
     12  C10       37.8100   15.3540   33.5910 C.3   1001  DAO1001     0.0000
     13  C11       39.3050   15.6130   33.4980 C.3   1001  DAO1001     0.0000
@<TRIPOS>BOND
     1    13    12    1
     2    12    11    1
     3    11    10    1
     4    10     9    1
     5     4     3    1
     6     4     5    1
     7     2     3   ar
     8     3     1   ar
     9     6     5    1
    10     6     7    1
    11     9     8    1
    12     8     7    1
