@<TRIPOS>MOLECULE
1e7g_MYR_A_1.pdb
 14 13 0 0 0
SMALL
GASTEIGER

@<TRIPOS>ATOM
      1  C1        30.0140   12.6670   36.3610 C.2   1001  MYR1001     0.3649
      2  O1        29.6430   13.8200   36.0430 O.co2 1001  MYR1001    -0.2457
      3  O2        29.2070   11.7390   36.5780 O.co2 1001  MYR1001    -0.2457
      4  C2        31.5150   12.3790   36.4860 C.3   1001  MYR1001     0.1141
      5  C3        32.1560   13.2620   37.5710 C.3   1001  MYR1001     0.0118
      6  C4        33.1810   14.1100   36.8270 C.3   1001  MYR1001     0.0006
      7  C5        33.7480   15.2190   37.7000 C.3   1001  MYR1001     0.0000
      8  C6        35.2540   15.3230   37.5460 C.3   1001  MYR1001     0.0000
      9  C7        35.6460   16.4790   36.6420 C.3   1001  MYR1001     0.0000
     10  C8        37.0250   16.2640   36.0290 C.3   1001  MYR1001     0.0000
     11  C9        36.9350   16.1220   34.5170 C.3   1001  MYR1001     0.0000
     12  C10       38.3080   16.0600   33.8640 C.3   1001  MYR1001     0.0000
     13  C11       38.4460   14.8360   32.9680 C.3   1001  MYR1001     0.0000
     14  C12       37.8410   15.0550   31.5810 C.3   1001  MYR1001     0.0000
@<TRIPOS>BOND
     1    14    13    1
     2    13    12    1
     3    12    11    1
     4    11    10    1
     5    10     9    1
     6     2     1   ar
     7     1     4    1
     8     1     3   ar
     9     4     5    1
    10     9     8    1
    11     6     5    1
    12     6     7    1
    13     8     7    1
