@<TRIPOS>MOLECULE
1e7h_PLM_A_1.pdb
 13 12 0 0 0
SMALL
GASTEIGER

@<TRIPOS>ATOM
      1  C1        30.1000   12.5740   36.5430 C.2   1001  PLM1001     0.3649
      2  O1        29.6730   13.6640   36.9840 O.co2 1001  PLM1001    -0.2457
      3  O2        29.3380   11.7310   36.0260 O.co2 1001  PLM1001    -0.2457
      4  C2        31.6030   12.2410   36.6160 C.3   1001  PLM1001     0.1141
      5  C3        32.3200   13.0150   37.7330 C.3   1001  PLM1001     0.0118
      6  C4        32.7930   14.3030   37.0560 C.3   1001  PLM1001     0.0006
      7  C5        33.9170   14.9900   37.8150 C.3   1001  PLM1001     0.0000
      8  C6        35.2630   14.7480   37.1450 C.3   1001  PLM1001     0.0000
      9  C7        35.5600   15.7500   36.0390 C.3   1001  PLM1001     0.0000
     10  C8        37.0500   16.0150   35.9060 C.3   1001  PLM1001     0.0000
     11  C9        37.5570   15.7000   34.5060 C.3   1001  PLM1001     0.0000
     12  CA        39.0170   16.0960   34.3580 C.3   1001  PLM1001     0.0000
     13  CB        39.5300   15.8180   32.9570 C.3   1001  PLM1001     0.0000
@<TRIPOS>BOND
     1    13    12    1
     2    12    11    1
     3    11    10    1
     4    10     9    1
     5     3     1   ar
     6     9     8    1
     7     1     4    1
     8     1     2   ar
     9     4     5    1
    10     6     5    1
    11     6     7    1
    12     8     7    1
