@<TRIPOS>MOLECULE
1e7i_STE_A_1.pdb
 15 14 0 0 0
SMALL
GASTEIGER

@<TRIPOS>ATOM
      1  C1        30.0760   12.6060   36.4080 C.2   1001  STE1001     0.3649
      2  O1        29.1030   11.8500   36.6210 O.co2 1001  STE1001    -0.2457
      3  O2        29.9530   13.7550   35.9260 O.co2 1001  STE1001    -0.2457
      4  C2        31.4730   12.0990   36.7550 C.3   1001  STE1001     0.1141
      5  C3        31.7100   12.2140   38.2640 C.3   1001  STE1001     0.0118
      6  C4        33.1810   12.5480   38.4110 C.3   1001  STE1001     0.0006
      7  C5        33.4270   14.0550   38.4450 C.3   1001  STE1001     0.0000
      8  C6        34.3250   14.4640   37.2910 C.3   1001  STE1001     0.0000
      9  C7        34.5670   15.9680   37.2310 C.3   1001  STE1001     0.0000
     10  C8        35.8970   16.2820   36.5530 C.3   1001  STE1001     0.0000
     11  C9        35.7980   16.1690   35.0410 C.3   1001  STE1001     0.0000
     12  C10       36.7430   15.1340   34.4620 C.3   1001  STE1001     0.0000
     13  C11       37.6950   15.7830   33.4610 C.3   1001  STE1001     0.0000
     14  C12       37.4980   15.3630   31.9810 C.3   1001  STE1001     0.0000
     15  C13       36.1160   14.8220   31.5850 C.3   1001  STE1001     0.0000
@<TRIPOS>BOND
     1    15    14    1
     2    14    13    1
     3    13    12    1
     4    12    11    1
     5    11    10    1
     6     3     1   ar
     7     1     2   ar
     8     1     4    1
     9    10     9    1
    10     4     5    1
    11     9     8    1
    12     8     7    1
    13     5     6    1
    14     6     7    1
