@<TRIPOS>MOLECULE
1e7q_NAP_A_1.pdb
 48 53 0 0 0
SMALL
GASTEIGER

@<TRIPOS>ATOM
      1  PA        65.8640   14.2450   25.9970 P.3   1317  NAP1317     0.4961
      2  O1A       65.5000   15.4290   25.2740 O.2   1317  NAP1317    -0.2262
      3  O2A       65.3070   13.8410   27.3430 O.3   1317  NAP1317    -0.1810
      4  O5B       67.1630   13.4520   25.3990 O.3   1317  NAP1317    -0.2699
      5  C5B       67.4560   12.0690   25.5640 C.3   1317  NAP1317     0.1858
      6  C4B       68.9750   12.0800   25.3400 C.3   1317  NAP1317     0.1822
      7  O4B       69.6130   10.9000   24.8150 O.3   1317  NAP1317    -0.3136
      8  C3B       69.7430   13.3480   25.1610 C.3   1317  NAP1317     0.2157
      9  O3B       70.5280   13.6340   26.3540 O.3   1317  NAP1317    -0.2175
     10  C2B       70.6180   12.9580   24.0250 C.3   1317  NAP1317     0.2314
     11  O2B       71.8780   13.6040   23.7670 O.3   1317  NAP1317    -0.2630
     12  C1B       70.7720   11.4720   24.2430 C.3   1317  NAP1317     0.3158
     13  N9A       71.1650   10.9860   22.9430 N.pl3 1317  NAP1317    -0.1439
     14  C8A       70.4550   11.1560   21.7550 C.3   1317  NAP1317     0.3377
     15  N7A       71.1120   10.6510   20.7480 N.2   1317  NAP1317    -0.2095
     16  C5A       72.2840   10.1340   21.2570 C.2   1317  NAP1317     0.2526
     17  C6A       73.3630    9.5210   20.6600 C.2   1317  NAP1317     0.4393
     18  N6A       73.4150    9.3260   19.3590 N.pl3 1317  NAP1317     0.2180
     19  N1A       74.3510    9.1200   21.4660 N.2   1317  NAP1317     0.0021
     20  C2A       74.2760    9.3440   22.8060 C.3   1317  NAP1317     0.5254
     21  N3A       73.3000    9.9170   23.4650 N.2   1317  NAP1317    -0.0055
     22  C4A       72.3040   10.3010   22.6070 C.2   1317  NAP1317     0.3518
     23  O3        64.7810   13.1070   25.7040 O.3   1317  NAP1317    -0.1810
     24  PN        63.5970   12.8130   26.7360 P.3   1317  NAP1317     0.4796
     25  O1N       62.8070   14.0490   26.7550 O.3   1317  NAP1317    -0.1124
     26  O2N       64.2910   12.3400   27.9780 O.3   1317  NAP1317    -0.1124
     27  O5D       62.7930   11.5680   26.2030 O.3   1317  NAP1317    -0.2660
     28  C5D       63.4740   10.2990   26.1530 C.3   1317  NAP1317     0.1865
     29  C4D       62.3930    9.2510   25.7170 C.3   1317  NAP1317     0.1801
     30  O4D       61.4870    9.1980   26.8500 O.3   1317  NAP1317    -0.3327
     31  C3D       61.4670    9.6950   24.6180 C.3   1317  NAP1317     0.2158
     32  O3D       62.0760    9.4680   23.3630 O.3   1317  NAP1317    -0.2175
     33  C2D       60.2860    8.7990   24.8750 C.3   1317  NAP1317     0.2309
     34  O2D       60.5940    7.4730   24.4850 O.3   1317  NAP1317    -0.2158
     35  C1D       60.1310    8.9530   26.4180 C.3   1317  NAP1317     0.2263
     36  N1N       59.2990   10.1650   26.5470 N.pl3 1317  NAP1317    -0.2787
     37  C2N       57.9120   10.0590   26.2300 C.3   1317  NAP1317     0.1244
     38  C3N       57.1300   11.2520   26.2780 C.2   1317  NAP1317     0.0544
     39  C7N       55.6890   11.1530   25.9650 C.2   1317  NAP1317     0.2818
     40  O7N       55.2480   10.4550   25.0280 O.2   1317  NAP1317    -0.2670
     41  N7N       54.8010   11.8420   26.7110 N.am  1317  NAP1317    -0.0839
     42  C4N       57.7980   12.4160   26.6620 C.2   1317  NAP1317     0.0033
     43  C5N       59.1200   12.4880   26.9860 C.2   1317  NAP1317     0.0157
     44  C6N       59.8540   11.3770   26.9210 C.2   1317  NAP1317     0.0633
     45  P2B       72.0940   15.0470   23.3530 P.3   1317  NAP1317     0.5328
     46  O1X       72.6300   15.9380   24.4060 O.3   1317  NAP1317    -0.1145
     47  O2X       71.6840   15.4800   21.9940 O.2   1317  NAP1317    -0.2224
     48  O3X       70.6740   15.3520   23.8230 O.3   1317  NAP1317    -0.1145
@<TRIPOS>BOND
     1    18    17    1
     2    17    16    1
     3    17    19    2
     4    15    16    2
     5    15    14    1
     6    16    22    1
     7    19    20    1
     8    14    13    1
     9    47    45    2
    10    22    13    1
    11    22    21    2
    12    20    21    1
    13    13    12    1
    14    45    11    1
    15    45    48    1
    16    45    46    1
    17    32    31    1
    18    11    10    1
    19    10    12    1
    20    10     8    1
    21    12     7    1
    22    34    33    1
    23    31    33    1
    24    31    29    1
    25     7     6    1
    26    33    35    1
    27    40    39    2
    28     8     6    1
    29     8     9    1
    30     2     1    2
    31     6     5    1
    32     4     5    1
    33     4     1    1
    34    23     1    1
    35    23    24    1
    36    29    28    1
    37    29    30    1
    38    39    38    1
    39    39    41   am
    40     1     3    1
    41    28    27    1
    42    27    24    1
    43    37    38    1
    44    37    36    1
    45    38    42    2
    46    35    36    1
    47    35    30    1
    48    36    44    1
    49    42    43    1
    50    24    25    1
    51    24     3    1
    52    24    26    1
    53    44    43    2
