@<TRIPOS>MOLECULE
1e7r_NAP_A_1.pdb
 48 53 0 0 0
SMALL
GASTEIGER

@<TRIPOS>ATOM
      1  PA        66.0200   14.4540   26.3670 P.3   1317  NAP1317     0.4961
      2  O1A       65.6570   15.6440   25.6590 O.2   1317  NAP1317    -0.2262
      3  O2A       65.4410   13.9150   27.6450 O.3   1317  NAP1317    -0.1810
      4  O5B       67.3140   13.6850   25.7050 O.3   1317  NAP1317    -0.2699
      5  C5B       67.5650   12.2810   25.9190 C.3   1317  NAP1317     0.1858
      6  C4B       69.0100   12.2570   25.5230 C.3   1317  NAP1317     0.1822
      7  O4B       69.5630   11.0240   25.0410 O.3   1317  NAP1317    -0.3136
      8  C3B       69.7530   13.4730   25.0930 C.3   1317  NAP1317     0.2157
      9  O3B       70.5670   13.9820   26.1830 O.3   1317  NAP1317    -0.2175
     10  C2B       70.6020   12.9710   24.0060 C.3   1317  NAP1317     0.2314
     11  O2B       71.8830   13.5400   23.7140 O.3   1317  NAP1317    -0.2630
     12  C1B       70.7070   11.5170   24.3270 C.3   1317  NAP1317     0.3158
     13  N9A       71.1190   11.0070   22.9950 N.pl3 1317  NAP1317    -0.1439
     14  C8A       70.4710   11.1800   21.7690 C.3   1317  NAP1317     0.3377
     15  N7A       71.1750   10.6760   20.7880 N.2   1317  NAP1317    -0.2095
     16  C5A       72.3170   10.1530   21.3150 C.2   1317  NAP1317     0.2526
     17  C6A       73.4100    9.5530   20.7670 C.2   1317  NAP1317     0.4393
     18  N6A       73.5050    9.3630   19.4620 N.pl3 1317  NAP1317     0.2180
     19  N1A       74.3920    9.1620   21.5790 N.2   1317  NAP1317     0.0021
     20  C2A       74.2850    9.3660   22.8890 C.3   1317  NAP1317     0.5254
     21  N3A       73.2820    9.9540   23.5020 N.2   1317  NAP1317    -0.0055
     22  C4A       72.2910   10.3340   22.6550 C.2   1317  NAP1317     0.3518
     23  O3        64.9560   13.3450   25.9410 O.3   1317  NAP1317    -0.1810
     24  PN        63.6540   13.0130   26.8450 P.3   1317  NAP1317     0.4796
     25  O1N       62.8520   14.2460   26.7160 O.3   1317  NAP1317    -0.1124
     26  O2N       64.1910   12.5940   28.1780 O.3   1317  NAP1317    -0.1124
     27  O5D       62.9450   11.7190   26.2580 O.3   1317  NAP1317    -0.2660
     28  C5D       63.6330   10.4340   26.4110 C.3   1317  NAP1317     0.1865
     29  C4D       62.6620    9.3610   25.8810 C.3   1317  NAP1317     0.1801
     30  O4D       61.4840    9.5780   26.6310 O.3   1317  NAP1317    -0.3327
     31  C3D       62.3210    9.6930   24.4450 C.3   1317  NAP1317     0.2158
     32  O3D       62.3970    8.5110   23.6590 O.3   1317  NAP1317    -0.2175
     33  C2D       60.9760   10.2930   24.4800 C.3   1317  NAP1317     0.2309
     34  O2D       60.2830    9.9820   23.2790 O.3   1317  NAP1317    -0.2158
     35  C1D       60.3780    9.5910   25.7560 C.3   1317  NAP1317     0.2263
     36  N1N       59.3530   10.5310   26.1450 N.pl3 1317  NAP1317    -0.2787
     37  C2N       59.7030   11.7710   26.6910 C.3   1317  NAP1317     0.1244
     38  C3N       58.6240   12.6720   27.0030 C.2   1317  NAP1317     0.0544
     39  C7N       58.8520   14.0060   27.6050 C.2   1317  NAP1317     0.2818
     40  O7N       59.9790   14.4310   27.9270 O.2   1317  NAP1317    -0.2670
     41  N7N       57.8010   14.8090   27.8410 N.am  1317  NAP1317    -0.0839
     42  C4N       57.3450   12.2540   26.7210 C.2   1317  NAP1317     0.0033
     43  C5N       57.0520   11.0540   26.1770 C.2   1317  NAP1317     0.0157
     44  C6N       58.0600   10.1890   25.8970 C.2   1317  NAP1317     0.0633
     45  P2B       72.2260   14.9900   23.2780 P.3   1317  NAP1317     0.5328
     46  O1X       73.0320   15.7480   24.2490 O.3   1317  NAP1317    -0.1145
     47  O2X       71.6810   15.5330   22.0030 O.2   1317  NAP1317    -0.2224
     48  O3X       70.9700   15.4780   23.9860 O.3   1317  NAP1317    -0.1145
@<TRIPOS>BOND
     1    18    17    1
     2    17    16    1
     3    17    19    2
     4    15    16    2
     5    15    14    1
     6    16    22    1
     7    19    20    1
     8    14    13    1
     9    47    45    2
    10    22    13    1
    11    22    21    2
    12    20    21    1
    13    13    12    1
    14    45    11    1
    15    45    48    1
    16    45    46    1
    17    34    33    1
    18    32    31    1
    19    11    10    1
    20    10    12    1
    21    10     8    1
    22    12     7    1
    23    31    33    1
    24    31    29    1
    25    33    35    1
    26     7     6    1
    27     8     6    1
    28     8     9    1
    29     6     5    1
    30     2     1    2
    31     4     5    1
    32     4     1    1
    33    35    36    1
    34    35    30    1
    35    29    28    1
    36    29    30    1
    37    44    36    1
    38    44    43    2
    39    23     1    1
    40    23    24    1
    41    36    37    1
    42    43    42    1
    43    27    28    1
    44    27    24    1
    45     1     3    1
    46    37    38    1
    47    25    24    1
    48    42    38    2
    49    24     3    1
    50    24    26    1
    51    38    39    1
    52    39    41   am
    53    39    40    2
