@<TRIPOS>MOLECULE
1e7s_NAP_A_1.pdb
 48 52 0 0 0
SMALL
GASTEIGER

@<TRIPOS>ATOM
      1  PA        66.0630   14.0650   25.8320 P.3   1317  NAP1317     0.2189
      2  O1A       66.3850   14.7120   24.5640 O.2   1317  NAP1317    -0.5170
      3  O2A       65.8560   14.9970   27.0140 O.3   1317  NAP1317    -0.4371
      4  O5B       67.0920   12.9860   26.2280 O.3   1317  NAP1317    -0.3112
      5  C5B       67.6600   12.1320   25.2030 C.3   1317  NAP1317     0.1813
      6  C4B       69.1470   11.9090   25.6570 C.3   1317  NAP1317     0.1820
      7  O4B       69.7250   10.9980   24.6440 O.3   1317  NAP1317    -0.3136
      8  C3B       69.9860   13.2190   25.5220 C.3   1317  NAP1317     0.2157
      9  O3B       70.8580   13.3300   26.6320 O.3   1317  NAP1317    -0.2175
     10  C2B       70.7740   13.0090   24.2060 C.3   1317  NAP1317     0.2314
     11  O2B       72.0670   13.6310   24.1940 O.3   1317  NAP1317    -0.2630
     12  C1B       70.9810   11.5160   24.2690 C.3   1317  NAP1317     0.3158
     13  N9A       71.3180   10.9570   22.9830 N.pl3 1317  NAP1317    -0.1439
     14  C8A       70.6340   11.1380   21.8060 C.3   1317  NAP1317     0.3377
     15  N7A       71.3140   10.6290   20.7950 N.2   1317  NAP1317    -0.2095
     16  C5A       72.5120   10.1490   21.3210 C.2   1317  NAP1317     0.2526
     17  C6A       73.6480    9.5390   20.7240 C.2   1317  NAP1317     0.4393
     18  N6A       73.7780    9.4090   19.3730 N.pl3 1317  NAP1317     0.2180
     19  N1A       74.6530    9.1400   21.5410 N.2   1317  NAP1317     0.0021
     20  C2A       74.5420    9.3370   22.8820 C.3   1317  NAP1317     0.5254
     21  N3A       73.5420    9.9970   23.5090 N.2   1317  NAP1317    -0.0055
     22  C4A       72.4830   10.2700   22.6870 C.2   1317  NAP1317     0.3518
     23  O3        64.8170   13.2350   25.6090 O.3   1317  NAP1317    -0.2703
     24  PN        63.7590   12.4870   26.6270 P.3   1317  NAP1317     0.2189
     25  O1N       64.4120   12.3770   27.9730 O.3   1317  NAP1317    -0.4371
     26  O2N       63.2060   11.1990   25.9950 O.2   1317  NAP1317    -0.5170
     27  O5D       62.6900   13.5810   26.7410 O.3   1317  NAP1317    -0.3112
     28  C5D       61.5430   13.3840   27.5720 C.3   1317  NAP1317     0.1813
     29  C4D       60.6070   14.5530   27.3570 C.3   1317  NAP1317     0.1799
     30  O4D       61.4290   15.7200   27.4710 O.3   1317  NAP1317    -0.3327
     31  C3D       60.1060   14.7150   25.9000 C.3   1317  NAP1317     0.2158
     32  O3D       58.9430   13.8940   25.8780 O.3   1317  NAP1317    -0.2175
     33  C2D       59.5760   16.1750   26.0900 C.3   1317  NAP1317     0.2309
     34  O2D       58.5460   16.1520   27.1240 O.3   1317  NAP1317    -0.2158
     35  C1D       60.8070   16.7370   26.7050 C.3   1317  NAP1317     0.2263
     36  N1N       61.6450   16.9940   25.5730 N.pl3 1317  NAP1317    -0.2787
     37  C2N       61.2110   17.9430   24.6410 C.3   1317  NAP1317     0.1244
     38  C3N       62.0000   18.3060   23.5430 C.2   1317  NAP1317     0.0544
     39  C7N       61.5400   19.3340   22.4770 C.2   1317  NAP1317     0.2818
     40  O7N       60.3310   19.7040   22.5340 O.2   1317  NAP1317    -0.2670
     41  N7N       62.5500   19.8670   21.6800 N.am  1317  NAP1317    -0.0839
     42  C4N       63.2860   17.7700   23.4370 C.2   1317  NAP1317     0.0033
     43  C5N       63.7370   16.8250   24.4250 C.2   1317  NAP1317     0.0157
     44  C6N       62.8770   16.5130   25.5180 C.2   1317  NAP1317     0.0633
     45  P2B       72.3210   14.9280   23.3690 P.3   1317  NAP1317     0.5328
     46  O1X       73.7810   15.1970   23.5850 O.3   1317  NAP1317    -0.1145
     47  O2X       71.8190   14.7320   21.9350 O.2   1317  NAP1317    -0.2224
     48  O3X       71.3820   15.9440   23.8530 O.3   1317  NAP1317    -0.1145
@<TRIPOS>BOND
     1    18    17    1
     2    17    16    1
     3    17    19    2
     4    15    16    2
     5    15    14    1
     6    16    22    1
     7    19    20    1
     8    41    39   am
     9    14    13    1
    10    47    45    2
    11    39    40    2
    12    39    38    1
    13    22    13    1
    14    22    21    2
    15    20    21    1
    16    13    12    1
    17    45    46    1
    18    45    48    1
    19    45    11    1
    20    42    38    2
    21    42    43    1
    22    38    37    1
    23    11    10    1
    24    10    12    1
    25    10     8    1
    26    12     7    1
    27    43    44    2
    28     2     1    2
    29    37    36    1
    30     7     6    1
    31     5     6    1
    32     5     4    1
    33    44    36    1
    34     8     6    1
    35     8     9    1
    36    36    35    1
    37    23     1    1
    38    23    24    1
    39     1     4    1
    40     1     3    1
    41    32    31    1
    42    31    33    1
    43    31    29    1
    44    26    24    2
    45    33    35    1
    46    33    34    1
    47    24    27    1
    48    24    25    1
    49    35    30    1
    50    27    28    1
    51    29    30    1
    52    29    28    1
