@<TRIPOS>MOLECULE
1e7u_KWT_A_1.pdb
 31 34 0 0 0
SMALL
GASTEIGER

@<TRIPOS>ATOM
      1  C1        24.0950   63.6930   19.0840 C.3   1833  KWT1833     0.2056
      2  O1        24.9010   63.9560   17.8950 O.3   1833  KWT1833    -0.4459
      3  C9        24.0140   62.1390   19.3460 C.3   1833  KWT1833     0.0797
      4  C23       24.7480   64.5180   20.2330 C.3   1833  KWT1833     0.1863
      5  C2        26.1220   63.2970   17.5470 C.2   1833  KWT1833     0.3410
      6  O2        26.8620   63.7790   16.6950 O.2   1833  KWT1833    -0.2449
      7  C3        26.4180   61.9450   18.3200 C.2   1833  KWT1833     0.0752
      8  C4        25.5670   61.6200   19.4100 C.2   1833  KWT1833     0.0326
      9  C19       27.5180   61.3320   17.8070 C.2   1833  KWT1833     0.0064
     10  C5        25.9680   60.9030   20.5640 C.2   1833  KWT1833     0.2305
     11  C6        25.0410   60.5680   21.7420 C.2   1833  KWT1833     0.2294
     12  O3        25.5230   59.9120   22.6860 O.2   1833  KWT1833    -0.2835
     13  C7        23.5750   61.0430   21.7240 C.2   1833  KWT1833     0.0159
     14  O6        21.4480   63.7360   20.6130 O.3   1833  KWT1833    -0.4480
     15  C11       21.5360   62.2600   20.6150 C.3   1833  KWT1833     0.1878
     16  C21       20.4070   64.4430   19.9790 C.2   1833  KWT1833     0.3177
     17  C8        23.0730   61.7750   20.6250 C.2   1833  KWT1833     0.0011
     18  C15       22.5880   60.6880   22.9250 C.3   1833  KWT1833     0.0321
     19  C10       23.3110   61.3820   18.1500 C.3   1833  KWT1833     0.0124
     20  C12       20.6830   61.8400   21.8630 C.3   1833  KWT1833     0.0552
     21  C13       21.0960   60.4480   22.4630 C.3   1833  KWT1833     0.0591
     22  C14       20.8360   59.2720   21.4500 C.3   1833  KWT1833     0.0078
     23  C18       20.5000   60.1070   23.8090 C.2   1833  KWT1833     0.1503
     24  C16       22.7890   59.4550   23.8440 C.3   1833  KWT1833     0.0126
     25  C17       21.5570   59.4910   24.7370 C.3   1833  KWT1833     0.0648
     26  O4        19.3340   60.3140   24.1130 O.2   1833  KWT1833    -0.2961
     27  O7        19.4560   63.9550   19.3530 O.2   1833  KWT1833    -0.2501
     28  C22       20.5770   65.9570   20.1630 C.3   1833  KWT1833     0.1212
     29  O8        24.7970   65.9170   19.9340 O.3   1833  KWT1833    -0.3472
     30  C24       25.3700   66.6990   20.9980 C.3   1833  KWT1833     0.1743
     31  O5        27.2510   60.4270   20.7510 O.2   1833  KWT1833    -0.2835
@<TRIPOS>BOND
     1     6     5    2
     2     5     2    1
     3     5     7    1
     4     9     7    2
     5     2     1    1
     6    19     3    1
     7     7     8    1
     8     1     3    1
     9     1     4    1
    10     3     8    1
    11     3    17    1
    12    27    16    2
    13     8    10    2
    14    29     4    1
    15    29    30    1
    16    16    28    1
    17    16    14    1
    18    10    31    1
    19    10    11    1
    20    14    15    1
    21    15    17    1
    22    15    20    1
    23    17    13    2
    24    22    21    1
    25    13    11    1
    26    13    18    1
    27    11    12    2
    28    20    21    1
    29    21    18    1
    30    21    23    1
    31    18    24    1
    32    23    26    2
    33    23    25    1
    34    24    25    1
