@<TRIPOS>MOLECULE
1e7v_LY2_A_1.pdb
 23 26 0 0 0
SMALL
GASTEIGER

@<TRIPOS>ATOM
      1  N14       20.4390   60.4800   23.2890 N.pl3 3095  LY23095    -0.2742
      2  C15       20.6310   59.4560   24.3740 C.3   3095  LY23095     0.1257
      3  C19       19.0780   61.1190   23.2270 C.3   3095  LY23095     0.1257
      4  C11       21.4780   60.9240   22.3680 C.ar  3095  LY23095     0.2024
      5  C16       19.4530   58.4700   24.4600 C.3   3095  LY23095     0.1637
      6  O17       18.1670   59.1460   24.3750 O.3   3095  LY23095    -0.3501
      7  C18       17.9780   60.0470   23.2480 C.3   3095  LY23095     0.1637
      8  C1        23.8560   63.8620   18.7880 C.ar  3095  LY23095     0.0003
      9  C2        24.2490   62.6930   19.4880 C.ar  3095  LY23095     0.0062
     10  C6        22.5870   64.4620   19.0130 C.ar  3095  LY23095     0.0030
     11  C3        23.3710   62.0960   20.4150 C.ar  3095  LY23095     0.0736
     12  C4        22.0760   62.7020   20.6650 C.ar  3095  LY23095     0.1498
     13  C9        23.7090   60.8250   21.2310 C.ar  3095  LY23095     0.2030
     14  C5        21.6540   63.8990   19.9570 C.ar  3095  LY23095     0.0347
     15  O12       21.2000   62.0940   21.6110 O.2   3095  LY23095    -0.4398
     16  C20       20.3860   64.4980   20.1860 C.ar  3095  LY23095     0.0029
     17  C25       19.1790   64.0220   19.5410 C.ar  3095  LY23095     0.0001
     18  C24       17.9120   64.6330   19.7950 C.ar  3095  LY23095     0.0000
     19  C21       20.2440   65.6440   21.0580 C.ar  3095  LY23095     0.0001
     20  C22       18.9760   66.2460   21.3040 C.ar  3095  LY23095     0.0000
     21  C23       17.8200   65.7570   20.6580 C.ar  3095  LY23095     0.0000
     22  C10       22.6740   60.2780   22.2160 C.ar  3095  LY23095     0.0955
     23  O13       24.7710   60.2050   21.1290 O.2   3095  LY23095    -0.2863
@<TRIPOS>BOND
     1     8    10   ar
     2     8     9   ar
     3    10    14   ar
     4     9    11   ar
     5    17    18   ar
     6    17    16   ar
     7    18    21   ar
     8    14    16    1
     9    14    12   ar
    10    16    19   ar
    11    11    12   ar
    12    11    13   ar
    13    21    20   ar
    14    12    15   ar
    15    19    20   ar
    16    23    13    2
    17    13    22   ar
    18    15     4   ar
    19    22     4   ar
    20     4     1    1
    21     3     7    1
    22     3     1    1
    23     7     6    1
    24     1     2    1
    25     2     5    1
    26     6     5    1
