@<TRIPOS>MOLECULE
1e7w_MTX_A_1.pdb
 33 35 0 0 0
SMALL
GASTEIGER

@<TRIPOS>ATOM
      1  N1        19.3830    7.8290    9.5600 N.2   301  MTX301     -0.2684
      2  C2        18.2600    8.4080   10.1880 C.1   301  MTX301      0.2519
      3  N3        17.4770    7.6250   11.0280 N.2   301  MTX301     -0.3033
      4  C4        17.7910    6.3210   11.2290 C.2   301  MTX301      0.2728
      5  C4A       18.9190    5.7250   10.6070 C.2   301  MTX301      0.2518
      6  N5        19.2390    4.4040   10.8100 N.2   301  MTX301     -0.3917
      7  C6        20.3450    3.9070   10.1570 C.2   301  MTX301      0.1330
      8  C7        21.1480    4.6710    9.3530 C.3   301  MTX301      0.1930
      9  N8        20.8230    6.0020    9.1320 N.2   301  MTX301     -0.1998
     10  C8A       19.7090    6.5330    9.7620 C.1   301  MTX301      0.1314
     11  C9        20.7210    2.4240   10.3900 C.3   301  MTX301      0.1481
     12  N10       20.6970    1.9890   11.7150 N.pl3 301  MTX301     -0.2999
     13  CM        19.6170    0.9950   12.0880 C.3   301  MTX301      0.1125
     14  C11       23.8100    1.9960   14.4820 C.ar  301  MTX301      0.0551
     15  C12       24.0250    2.5520   13.2090 C.ar  301  MTX301      0.0058
     16  C13       22.9630    2.5350   12.2940 C.ar  301  MTX301      0.0147
     17  C14       21.7130    1.9880   12.6340 C.ar  301  MTX301      0.0482
     18  C15       21.5550    1.4520   13.9240 C.ar  301  MTX301      0.0147
     19  C16       22.5980    1.4480   14.8560 C.ar  301  MTX301      0.0058
     20  C         24.8950    2.0110   15.4040 C.2   301  MTX301      0.2652
     21  O         24.6540    1.3900   16.4510 O.2   301  MTX301     -0.2684
     22  N         25.6570    3.1190   15.3370 N.am  301  MTX301     -0.1918
     23  CA        26.3550    3.8910   16.3030 C.3   301  MTX301      0.1986
     24  CT        27.5050    4.5590   15.5470 C.2   301  MTX301      0.3842
     25  O1        28.3790    3.7680   15.1710 O.co2 301  MTX301     -0.2437
     26  O2        27.4190    5.7970   15.4060 O.co2 301  MTX301     -0.2437
     27  CB        26.8700    3.1930   17.5490 C.3   301  MTX301      0.0451
     28  CG        25.9860    2.5360   18.5760 C.3   301  MTX301      0.1164
     29  CD        25.9050    3.1890   19.9410 C.2   301  MTX301      0.3649
     30  OE1       25.8020    4.4440   20.0520 O.co2 301  MTX301     -0.2457
     31  OE2       25.9340    2.4280   20.9460 O.co2 301  MTX301     -0.2457
     32  NA2       17.9990    9.7000    9.9480 N.pl3 301  MTX301     -0.0226
     33  NA4       17.0760    5.5280   12.0220 N.pl3 301  MTX301     -0.0887
@<TRIPOS>BOND
     1     9     8    1
     2     9    10    2
     3     8     7    1
     4     1    10    2
     5     1     2    2
     6    10     5    1
     7    32     2    1
     8     7    11    1
     9     7     6    2
    10     2     3    2
    11    11    12    1
    12     5     6    2
    13     5     4    1
    14     3     4    2
    15     4    33    1
    16    12    13    1
    17    12    17    1
    18    16    17   ar
    19    16    15   ar
    20    17    18   ar
    21    15    14   ar
    22    18    19   ar
    23    14    19   ar
    24    14    20    1
    25    25    24   ar
    26    22    20   am
    27    22    23    1
    28    20    21    2
    29    26    24   ar
    30    24    23    1
    31    23    27    1
    32    27    28    1
    33    28    29    1
    34    29    30   ar
    35    29    31   ar
