@<TRIPOS>MOLECULE
1e7w_NDP_A_1.pdb
 48 52 0 0 0
SMALL
GASTEIGER

@<TRIPOS>ATOM
      1  PA        19.6270    9.7390    6.3940 P.3   300  NDP300      0.2189
      2  O1A       20.1790    9.5320    7.7610 O.3   300  NDP300     -0.4371
      3  O2A       20.3070    9.2170    5.2490 O.2   300  NDP300     -0.5170
      4  O5B       19.1480   11.2080    6.2790 O.3   300  NDP300     -0.3112
      5  C5B       18.3750   11.7020    5.1830 C.3   300  NDP300      0.1813
      6  C4B       18.7440   13.1460    5.0750 C.3   300  NDP300      0.1820
      7  O4B       18.2450   14.0020    6.1050 O.3   300  NDP300     -0.3136
      8  C3B       20.1750   13.5310    4.7630 C.3   300  NDP300      0.2157
      9  O3B       20.5980   13.1610    3.4130 O.3   300  NDP300     -0.2175
     10  C2B       20.0930   15.0460    5.0740 C.3   300  NDP300      0.2314
     11  O2B       20.2790   15.9270    3.9760 O.3   300  NDP300     -0.2630
     12  C1B       18.9310   15.2340    6.0570 C.3   300  NDP300      0.3158
     13  N9A       19.1570   16.0400    7.2430 N.pl3 300  NDP300     -0.1439
     14  C8A       19.8130   15.5920    8.3420 C.3   300  NDP300      0.3377
     15  N7A       19.8820   16.6130    9.2120 N.2   300  NDP300     -0.2095
     16  C5A       19.2850   17.6490    8.5870 C.2   300  NDP300      0.2526
     17  C6A       19.1260   18.9390    9.0570 C.2   300  NDP300      0.4393
     18  N6A       19.5160   19.4180   10.2530 N.pl3 300  NDP300      0.2180
     19  N1A       18.4810   19.7840    8.2220 N.2   300  NDP300      0.0021
     20  C2A       18.0510   19.3940    6.9960 C.3   300  NDP300      0.5254
     21  N3A       18.1920   18.1620    6.5010 N.2   300  NDP300     -0.0055
     22  C4A       18.8420   17.3100    7.3330 C.2   300  NDP300      0.3518
     23  O3        18.1900    8.9460    6.3520 O.3   300  NDP300     -0.2703
     24  PN        17.7520    7.5520    5.7430 P.3   300  NDP300      0.2189
     25  O1N       18.5450    6.5250    6.4450 O.3   300  NDP300     -0.4371
     26  O2N       17.7070    7.6050    4.3400 O.2   300  NDP300     -0.5170
     27  O5D       16.1960    7.3780    6.3510 O.3   300  NDP300     -0.3112
     28  C5D       15.1720    8.1620    5.7760 C.3   300  NDP300      0.1813
     29  C4D       14.1100    8.3200    6.8770 C.3   300  NDP300      0.1799
     30  O4D       13.7580    6.9990    7.2960 O.3   300  NDP300     -0.3327
     31  C3D       14.5640    9.0830    8.1050 C.3   300  NDP300      0.2158
     32  O3D       13.4830    9.9110    8.6250 O.3   300  NDP300     -0.2175
     33  C2D       14.9210    7.9860    9.0900 C.3   300  NDP300      0.2309
     34  O2D       14.8590    8.3590   10.4500 O.3   300  NDP300     -0.2158
     35  C1D       13.9260    6.8600    8.7120 C.3   300  NDP300      0.2263
     36  N1N       14.3940    5.5430    9.1380 N.pl3 300  NDP300     -0.2787
     37  C2N       15.5030    4.9830    8.4540 C.3   300  NDP300      0.1244
     38  C3N       16.1320    3.8920    9.0320 C.2   300  NDP300      0.0544
     39  C7N       17.2900    3.1680    8.2960 C.2   300  NDP300      0.2818
     40  O7N       17.4630    1.9950    8.6560 O.2   300  NDP300     -0.2670
     41  N7N       17.9790    3.8290    7.3800 N.am  300  NDP300     -0.0839
     42  C4N       15.5620    3.1680   10.1090 C.2   300  NDP300      0.0033
     43  C5N       14.4190    3.6750   10.7840 C.2   300  NDP300      0.0157
     44  C6N       13.9280    4.9060   10.3050 C.2   300  NDP300      0.0633
     45  P2B       21.7600   16.2680    3.3370 P.3   300  NDP300      0.5328
     46  O1X       22.3390   17.0750    4.4630 O.3   300  NDP300     -0.1145
     47  O2X       22.4210   14.9870    3.0840 O.3   300  NDP300     -0.1145
     48  O3X       21.3420   16.9970    2.1770 O.2   300  NDP300     -0.2224
@<TRIPOS>BOND
     1    48    45    2
     2    47    45    1
     3    45    11    1
     4    45    46    1
     5     9     8    1
     6    11    10    1
     7    26    24    2
     8     8    10    1
     9     8     6    1
    10    10    12    1
    11     6     5    1
    12     6     7    1
    13     5     4    1
    14     3     1    2
    15    24    27    1
    16    24    23    1
    17    24    25    1
    18    28    27    1
    19    28    29    1
    20    12     7    1
    21    12    13    1
    22     4     1    1
    23    23     1    1
    24     1     2    1
    25    21    20    1
    26    21    22    2
    27    29    30    1
    28    29    31    1
    29    20    19    1
    30    13    22    1
    31    13    14    1
    32    30    35    1
    33    22    16    1
    34    41    39   am
    35    31    32    1
    36    31    33    1
    37    19    17    2
    38    39    40    2
    39    39    38    1
    40    14    15    1
    41    37    38    1
    42    37    36    1
    43    16    17    1
    44    16    15    2
    45    35    33    1
    46    35    36    1
    47    38    42    2
    48    17    18    1
    49    33    34    1
    50    36    44    1
    51    42    43    1
    52    44    43    2
