@<TRIPOS>MOLECULE
1e7y_NDP_A_1.pdb
 27 29 0 0 0
SMALL
GASTEIGER

@<TRIPOS>ATOM
      1  PA        90.1770  -11.1260   35.2900 P.3   509  NDP509      0.5327
      2  O1A       90.5160  -12.3710   36.0120 O.3   509  NDP509     -0.1145
      3  O2A       89.6600  -11.3820   33.9210 O.2   509  NDP509     -0.2224
      4  O5B       91.5680  -10.3740   35.0700 O.3   509  NDP509     -0.2675
      5  C5B       92.1540   -9.5020   36.0380 C.3   509  NDP509      0.1860
      6  C4B       93.5100   -9.0510   35.5440 C.3   509  NDP509      0.1822
      7  O4B       93.9660   -7.9360   36.3580 O.3   509  NDP509     -0.3136
      8  C3B       94.5040  -10.1770   35.7760 C.3   509  NDP509      0.2157
      9  O3B       95.3980  -10.3120   34.6790 O.3   509  NDP509     -0.2175
     10  C2B       95.2640   -9.7210   36.9940 C.3   509  NDP509      0.2314
     11  O2B       96.5920  -10.2120   36.9670 O.3   509  NDP509     -0.2630
     12  C1B       95.2820   -8.2280   36.7990 C.3   509  NDP509      0.3158
     13  N9A       95.7110   -7.5140   38.0250 N.pl3 509  NDP509     -0.1439
     14  C8A       95.0170   -7.3620   39.1900 C.3   509  NDP509      0.3377
     15  N7A       95.5500   -6.5090   40.0380 N.2   509  NDP509     -0.2095
     16  C5A       96.7090   -6.1380   39.4300 C.2   509  NDP509      0.2526
     17  C6A       97.6760   -5.2850   39.8950 C.2   509  NDP509      0.4393
     18  N6A       97.4340   -4.6810   41.0950 N.pl3 509  NDP509      0.2180
     19  N1A       98.7450   -5.1210   39.0710 N.2   509  NDP509      0.0021
     20  C2A       98.7940   -5.7500   37.9020 C.3   509  NDP509      0.5254
     21  N3A       97.8990   -6.5420   37.3430 N.2   509  NDP509     -0.0055
     22  C4A       96.8640   -6.7180   38.1890 C.2   509  NDP509      0.3518
     23  O3        89.3280  -10.2020   36.0700 O.3   509  NDP509     -0.1145
     24  P2B       97.0190  -11.1640   38.1690 P.3   509  NDP509      0.5328
     25  O1X       95.9910  -11.0040   39.2180 O.3   509  NDP509     -0.1145
     26  O2X       98.3270  -10.6370   38.5960 O.3   509  NDP509     -0.1145
     27  O3X       97.1280  -12.5270   37.5860 O.2   509  NDP509     -0.2224
@<TRIPOS>BOND
     1     3     1    2
     2     9     8    1
     3     4     1    1
     4     4     5    1
     5     1     2    1
     6     1    23    1
     7     6     8    1
     8     6     5    1
     9     6     7    1
    10     8    10    1
    11     7    12    1
    12    12    10    1
    13    12    13    1
    14    11    10    1
    15    11    24    1
    16    21    20    1
    17    21    22    2
    18    27    24    2
    19    20    19    1
    20    13    22    1
    21    13    14    1
    22    24    26    1
    23    24    25    1
    24    22    16    1
    25    19    17    2
    26    14    15    1
    27    16    17    1
    28    16    15    2
    29    17    18    1
