@<TRIPOS>MOLECULE
1e7y_BG6_A_1.pdb
 16 16 0 0 0
SMALL
GASTEIGER

@<TRIPOS>ATOM
      1  C1        77.8420   -5.7810   27.6950 C.3   501  BG6501      0.3024
      2  C2        76.9690   -5.8130   28.9440 C.3   501  BG6501      0.2434
      3  O1        78.3230   -4.4950   27.5200 O.3   501  BG6501     -0.1869
      4  O5        77.0620   -6.1220   26.5430 O.3   501  BG6501     -0.3237
      5  C3        76.3430   -7.1940   29.1140 C.3   501  BG6501      0.2199
      6  O2        77.7650   -5.4920   30.0720 O.3   501  BG6501     -0.2148
      7  C4        75.5970   -7.5850   27.8380 C.3   501  BG6501      0.2143
      8  O3        75.4420   -7.1910   30.2140 O.3   501  BG6501     -0.2174
      9  C5        76.5140   -7.4560   26.6180 C.3   501  BG6501      0.1808
     10  O4        75.1390   -8.9250   27.9480 O.3   501  BG6501     -0.2176
     11  C6        75.7910   -7.7230   25.3050 C.3   501  BG6501      0.1859
     12  O6        76.6590   -7.3930   24.1990 O.3   501  BG6501     -0.2675
     13  P         76.4150   -8.0550   22.7520 P.3   501  BG6501      0.5327
     14  O1P       76.7290   -9.4840   22.9690 O.3   501  BG6501     -0.1145
     15  O2P       77.3680   -7.2930   21.9190 O.2   501  BG6501     -0.2224
     16  O3P       75.0160   -7.7060   22.4810 O.3   501  BG6501     -0.1145
@<TRIPOS>BOND
     1    15    13    2
     2    16    13    1
     3    13    14    1
     4    13    12    1
     5    12    11    1
     6    11     9    1
     7     4     9    1
     8     4     1    1
     9     9     7    1
    10     3     1    1
    11     1     2    1
    12     7    10    1
    13     7     5    1
    14     2     5    1
    15     2     6    1
    16     5     8    1
