@<TRIPOS>MOLECULE
1e81_M91_E_1.pdb
 46 49 0 0 0
SMALL
GASTEIGER

@<TRIPOS>ATOM
      1  C1        31.4340   -6.9770   -8.2960 C.3   400  M91400      0.0952
      2  N1        30.4880   -7.3490   -9.3570 N.3   400  M91400     -0.1328
      3  O1        33.8210   -8.6930   -4.2730 O.2   400  M91400     -0.2262
      4  S1        33.9870  -12.1690    0.3530 S.3   400  M91400     -0.1370
      5  C2        32.3190   -8.1850   -7.9420 C.3   400  M91400      0.0407
      6  N2        32.3510   -7.4130   -5.5970 N.am  400  M91400     -0.2459
      7  O2        33.5410   -6.5460   -3.6880 O.3   400  M91400     -0.4284
      8  C3        30.6520   -6.4460   -7.0780 C.3   400  M91400      0.0407
      9  N3        34.8540   -8.6340   -1.0980 N.am  400  M91400     -0.1938
     10  O3        32.6900   -8.1410   -1.5180 O.2   400  M91400     -0.2694
     11  C4        32.1270   -8.5610   -6.4620 C.3   400  M91400      0.0982
     12  N4        35.0960   -8.8040    2.0240 N.am  400  M91400     -0.2031
     13  O4        36.6680  -10.0720    1.0300 O.2   400  M91400     -0.2715
     14  C5        31.6550   -6.1740   -5.9420 C.3   400  M91400      0.0982
     15  N5        35.3950  -11.8280    4.9320 N.ar  400  M91400     -0.2915
     16  O5        34.2710   -8.6230    4.9720 O.3   400  M91400     -0.2192
     17  C6        33.2900   -7.5930   -4.4760 C.2   400  M91400      0.4052
     18  O6        37.5690  -11.9510    4.2880 O.2   400  M91400     -0.2670
     19  C7        34.3760   -6.7810   -2.5560 C.3   400  M91400      0.2516
     20  C8        33.8890   -7.9310   -1.6720 C.2   400  M91400      0.2825
     21  C9        34.5800   -5.5260   -1.6960 C.3   400  M91400      0.0797
     22  C10       35.0020   -4.3290   -2.5010 C.ar  400  M91400     -0.0180
     23  C11       36.2540   -3.7680   -2.3250 C.ar  400  M91400     -0.0041
     24  C12       34.1500   -3.7800   -3.4420 C.ar  400  M91400     -0.0041
     25  C13       36.6460   -2.6700   -3.0660 C.ar  400  M91400     -0.0003
     26  C14       34.5350   -2.6850   -4.1920 C.ar  400  M91400     -0.0003
     27  C15       35.7860   -2.1270   -4.0030 C.ar  400  M91400     -0.0000
     28  C16       34.6170   -9.7340   -0.1690 C.3   400  M91400      0.1835
     29  C17       34.6660  -11.0720   -0.9160 C.3   400  M91400      0.0886
     30  C18       33.1920  -13.6070   -0.4050 C.3   400  M91400      0.0692
     31  C19       35.5330   -9.5960    1.0510 C.2   400  M91400      0.2621
     32  C20       35.9230   -8.5140    3.1920 C.3   400  M91400      0.1276
     33  C21       36.0030   -7.0200    3.4300 C.3   400  M91400      0.0243
     34  C22       37.0200   -6.2520    2.5850 C.3   400  M91400      0.0018
     35  C23       36.5110   -4.8650    2.1900 C.3   400  M91400      0.0001
     36  C24       37.4850   -7.0450    1.3630 C.3   400  M91400      0.0001
     37  C25       37.5700   -4.0850    1.4070 C.3   400  M91400      0.0000
     38  C26       38.5410   -6.2720    0.5710 C.3   400  M91400      0.0000
     39  C27       38.0580   -4.8720    0.1900 C.3   400  M91400      0.0000
     40  C28       35.4060   -9.2810    4.4200 C.3   400  M91400      0.1942
     41  C29       35.0880  -10.7330    4.1210 C.3   400  M91400      0.1436
     42  C30       36.6650  -12.4460    4.9620 C.ar  400  M91400      0.2611
     43  C31       36.9150  -13.5550    5.7320 C.ar  400  M91400      0.0608
     44  C32       35.9170  -14.1330    6.5000 C.ar  400  M91400      0.0064
     45  C33       34.6530  -13.5600    6.4780 C.ar  400  M91400      0.0189
     46  C34       34.3920  -12.4570    5.7160 C.ar  400  M91400      0.0784
@<TRIPOS>BOND
     1     2     1    1
     2     1     5    1
     3     1     8    1
     4     5    11    1
     5     8    14    1
     6    11     6    1
     7    14     6    1
     8     6    17   am
     9    17     3    2
    10    17     7    1
    11    26    27   ar
    12    26    24   ar
    13    27    25   ar
    14     7    19    1
    15    24    22   ar
    16    25    23   ar
    17    19    21    1
    18    19    20    1
    19    22    23   ar
    20    22    21    1
    21    20    10    2
    22    20     9   am
    23     9    28    1
    24    29    28    1
    25    29     4    1
    26    30     4    1
    27    28    31    1
    28    39    38    1
    29    39    37    1
    30    38    36    1
    31    13    31    2
    32    31    12   am
    33    36    34    1
    34    37    35    1
    35    12    32    1
    36    35    34    1
    37    34    33    1
    38    32    33    1
    39    32    40    1
    40    41    40    1
    41    41    15    1
    42    18    42    2
    43    40    16    1
    44    15    42   ar
    45    15    46   ar
    46    42    43   ar
    47    46    45   ar
    48    43    44   ar
    49    45    44   ar
