@<TRIPOS>MOLECULE
1e82_M90_E_1.pdb
 46 49 0 0 0
SMALL
GASTEIGER

@<TRIPOS>ATOM
      1  C1        30.8380   -6.9240   -8.0100 C.3   400  M90400      0.0952
      2  N1        30.4840   -6.4330   -9.3500 N.3   400  M90400     -0.1328
      3  O1        34.2150   -8.6560   -4.4010 O.2   400  M90400     -0.2262
      4  S1        34.3270  -12.2710    0.1840 S.3   400  M90400     -0.1370
      5  C2        31.7710   -5.9100   -7.3210 C.3   400  M90400      0.0407
      6  N2        32.6110   -7.5410   -5.6850 N.am  400  M90400     -0.2459
      7  O2        33.7170   -6.6000   -3.6950 O.3   400  M90400     -0.4284
      8  C3        32.1400   -7.7430   -8.0890 C.3   400  M90400      0.0407
      9  N3        35.0960   -8.6450   -1.1140 N.am  400  M90400     -0.1938
     10  O3        32.9310   -8.1300   -1.4600 O.2   400  M90400     -0.2694
     11  C4        31.9020   -6.2660   -5.8290 C.3   400  M90400      0.0982
     12  N4        35.3420   -8.8550    2.0050 N.am  400  M90400     -0.2030
     13  O4        36.9000  -10.1260    0.9980 O.2   400  M90400     -0.2715
     14  C5        32.3360   -8.5020   -6.7630 C.3   400  M90400      0.0982
     15  N5        34.6650  -15.3580    4.9920 N.ar  400  M90400     -0.2421
     16  O5        34.5250   -8.6120    4.9000 O.3   400  M90400     -0.2173
     17  C6        33.5720   -7.6010   -4.5680 C.2   400  M90400      0.4052
     18  O6        35.0080  -11.3580    5.4370 O.3   400  M90400     -0.4726
     19  C7        34.5940   -6.7660   -2.5390 C.3   400  M90400      0.2516
     20  C8        34.1270   -7.9170   -1.6510 C.2   400  M90400      0.2825
     21  C9        34.6590   -5.4720   -1.7270 C.3   400  M90400      0.0797
     22  C10       35.1740   -4.3000   -2.5140 C.ar  400  M90400     -0.0180
     23  C11       34.3940   -3.7270   -3.5020 C.ar  400  M90400     -0.0041
     24  C12       36.4350   -3.7860   -2.2750 C.ar  400  M90400     -0.0041
     25  C13       34.8510   -2.6490   -4.2380 C.ar  400  M90400     -0.0003
     26  C14       36.9000   -2.7070   -3.0040 C.ar  400  M90400     -0.0003
     27  C15       36.1100   -2.1390   -3.9850 C.ar  400  M90400     -0.0000
     28  C16       34.8550   -9.7690   -0.2070 C.3   400  M90400      0.1835
     29  C17       35.0490  -11.0880   -0.9770 C.3   400  M90400      0.0886
     30  C18       33.0300  -13.2570   -0.5990 C.3   400  M90400      0.0692
     31  C19       35.7640   -9.6450    1.0220 C.2   400  M90400      0.2621
     32  C20       36.2140   -8.5840    3.1580 C.3   400  M90400      0.1294
     33  C21       36.4280   -7.0870    3.3350 C.3   400  M90400      0.0244
     34  C22       36.9140   -6.3570    2.0850 C.3   400  M90400      0.0018
     35  C23       38.2630   -6.8820    1.5850 C.3   400  M90400      0.0001
     36  C24       36.9830   -4.8440    2.3370 C.3   400  M90400      0.0001
     37  C25       38.7060   -6.1370    0.3210 C.3   400  M90400      0.0000
     38  C26       37.4570   -4.0770    1.1030 C.3   400  M90400      0.0000
     39  C27       38.7760   -4.6270    0.5590 C.3   400  M90400      0.0000
     40  C28       35.6750   -9.2420    4.4200 C.3   400  M90400      0.2150
     41  C29       35.6020  -10.7770    4.2750 C.3   400  M90400      0.2398
     42  C30       34.8550  -12.6840    5.3570 C.ar  400  M90400      0.1418
     43  C31       35.4150  -13.2470    4.2240 C.ar  400  M90400      0.0576
     44  C32       35.2990  -14.6300    4.0670 C.ar  400  M90400      0.1020
     45  C33       34.1160  -14.8380    6.0920 C.ar  400  M90400      0.1020
     46  C34       34.2050  -13.4650    6.2960 C.ar  400  M90400      0.0576
@<TRIPOS>BOND
     1     2     1    1
     2     8     1    1
     3     8    14    1
     4     1     5    1
     5     5    11    1
     6    14     6    1
     7    11     6    1
     8     6    17   am
     9    17     3    2
    10    17     7    1
    11    25    27   ar
    12    25    23   ar
    13    27    26   ar
    14     7    19    1
    15    23    22   ar
    16    26    24   ar
    17    19    21    1
    18    19    20    1
    19    22    24   ar
    20    22    21    1
    21    20    10    2
    22    20     9   am
    23     9    28    1
    24    29    28    1
    25    29     4    1
    26    30     4    1
    27    28    31    1
    28    37    39    1
    29    37    35    1
    30    39    38    1
    31    13    31    2
    32    31    12   am
    33    38    36    1
    34    35    34    1
    35    12    32    1
    36    34    36    1
    37    34    33    1
    38    32    33    1
    39    32    40    1
    40    44    43   ar
    41    44    15   ar
    42    43    42   ar
    43    41    40    1
    44    41    18    1
    45    40    16    1
    46    15    45   ar
    47    42    18    1
    48    42    46   ar
    49    45    46   ar
