@<TRIPOS>MOLECULE
1e83_HEC_A_1.pdb
 43 50 0 0 0
SMALL
GASTEIGER

@<TRIPOS>ATOM
      1 FE         10.6690   30.5500   39.0480 Fe    128  HEC128      0.0000
      2  CHA        8.8060   33.4070   39.2710 C.2   128  HEC128      0.0000
      3  CHB       10.8880   30.3630   42.4020 C.2   128  HEC128      0.0000
      4  CHC       11.7070   27.2400   38.8410 C.2   128  HEC128      0.0000
      5  CHD       10.2310   30.5720   35.6840 C.2   128  HEC128      0.0000
      6  NA         9.9750   31.6210   40.5090 N.2   128  HEC128      0.0000
      7  C1A        9.2010   32.7940   40.4350 C.2   128  HEC128      0.0000
      8  C2A        8.9110   33.2880   41.7580 C.2   128  HEC128      0.0000
      9  C3A        9.4730   32.4450   42.6290 C.2   128  HEC128      0.0000
     10  C4A       10.1510   31.3990   41.8670 C.2   128  HEC128      0.0000
     11  CMA        9.4510   32.4990   44.1750 C.3   128  HEC128      0.0000
     12  CAA        8.0320   34.5280   42.1060 C.3   128  HEC128      0.0000
     13  CBA        6.5260   34.0790   42.2410 C.3   128  HEC128      0.0000
     14  CGA        5.6960   35.3060   42.6460 C.2   128  HEC128      0.0000
     15  O1A        5.5350   36.1850   41.7810 O.co2 128  HEC128      0.0000
     16  O2A        5.2280   35.3350   43.8110 O.co2 128  HEC128      0.0000
     17  NB        11.1300   29.0010   40.3420 N.ar  128  HEC128      0.0000
     18  C1B       11.3060   29.2390   41.6960 C.ar  128  HEC128      0.0000
     19  C2B       11.9600   28.0880   42.2890 C.ar  128  HEC128      0.0000
     20  C3B       12.1750   27.1970   41.3350 C.ar  128  HEC128      0.0000
     21  C4B       11.6920   27.7740   40.0870 C.ar  128  HEC128      0.0000
     22  CMB       12.2350   28.0690   43.8140 C.3   128  HEC128      0.0000
     23  CAB       12.8050   25.7870   41.4480 C.3   128  HEC128      0.0000
     24  CBB       12.3180   25.0100   42.4900 C.3   128  HEC128      0.0000
     25  NC        10.8830   29.1530   37.5370 N.2   128  HEC128      0.0000
     26  C1C       11.4150   27.8990   37.6510 C.2   128  HEC128      0.0000
     27  C2C       11.5940   27.3520   36.3220 C.2   128  HEC128      0.0000
     28  C3C       11.1870   28.2580   35.4380 C.2   128  HEC128      0.0000
     29  C4C       10.7510   29.4150   36.2100 C.2   128  HEC128      0.0000
     30  CMC       12.1830   25.9530   36.0620 C.3   128  HEC128      0.0000
     31  CAC       11.1340   28.2200   33.8820 C.3   128  HEC128      0.0000
     32  CBC       11.2550   27.0160   33.2180 C.3   128  HEC128      0.0000
     33  ND         9.7350   31.7450   37.7260 N.ar  128  HEC128      0.0000
     34  C1D        9.6880   31.6070   36.3700 C.ar  128  HEC128      0.0000
     35  C2D        8.9890   32.7540   35.7760 C.ar  128  HEC128      0.0000
     36  C3D        8.6120   33.5480   36.7720 C.ar  128  HEC128      0.0000
     37  C4D        9.0470   32.9080   38.0240 C.ar  128  HEC128      0.0000
     38  CMD        8.7620   32.9520   34.2540 C.3   128  HEC128      0.0000
     39  CAD        7.8290   34.8640   36.7190 C.3   128  HEC128      0.0000
     40  CBD        6.3040   34.5120   36.6280 C.3   128  HEC128      0.0000
     41  CGD        5.4060   35.7070   36.4480 C.2   128  HEC128      0.0000
     42  O1D        4.4960   35.5630   35.5910 O.co2 128  HEC128      0.0000
     43  O2D        5.5570   36.6720   37.2070 O.co2 128  HEC128      0.0000
@<TRIPOS>BOND
     1    32    31    1
     2    31    28    1
     3    38    35    1
     4    28    29    1
     5    28    27    2
     6    42    41   ar
     7     5    29    1
     8     5    34    2
     9    35    34   ar
    10    35    36   ar
    11    30    27    1
    12    29    25    2
    13    27    26    1
    14    34    33   ar
    15    41    40    1
    16    41    43   ar
    17    40    39    1
    18    39    36    1
    19    36    37   ar
    20    25    26    1
    21    25     1    1
    22    26     4    2
    23    33    37   ar
    24    33     1    1
    25    37     2    2
    26     4    21    1
    27     1    17    1
    28     1     6    1
    29     2     7    1
    30    21    17   ar
    31    21    20   ar
    32    17    18   ar
    33     7     6    2
    34     7     8    1
    35     6    10    1
    36    20    23    1
    37    20    19   ar
    38    23    24    1
    39    18    19   ar
    40    18     3    1
    41     8    12    1
    42     8     9    2
    43    15    14   ar
    44    10     3    2
    45    10     9    1
    46    12    13    1
    47    13    14    1
    48    19    22    1
    49     9    11    1
    50    14    16   ar
