@<TRIPOS>MOLECULE
1e84_HEC_A_1.pdb
 43 50 0 0 0
SMALL
GASTEIGER

@<TRIPOS>ATOM
      1 FE         10.5500   30.3340   39.1540 Fe    128  HEC128      0.0000
      2  CHA        8.7010   33.2570   39.3680 C.2   128  HEC128      0.0000
      3  CHB       10.7070   30.1790   42.5060 C.2   128  HEC128      0.0000
      4  CHC       11.7340   27.0910   38.9060 C.2   128  HEC128      0.0000
      5  CHD       10.2310   30.4220   35.7560 C.2   128  HEC128      0.0000
      6  NA         9.8000   31.4730   40.6380 N.2   128  HEC128      0.0000
      7  C1A        9.0870   32.6770   40.5580 C.2   128  HEC128      0.0000
      8  C2A        8.8260   33.1650   41.8910 C.2   128  HEC128      0.0000
      9  C3A        9.3760   32.3070   42.7600 C.2   128  HEC128      0.0000
     10  C4A        9.9920   31.2510   41.9700 C.2   128  HEC128      0.0000
     11  CMA        9.4220   32.2890   44.2980 C.3   128  HEC128      0.0000
     12  CAA        8.0250   34.4350   42.2070 C.3   128  HEC128      0.0000
     13  CBA        6.5290   34.1140   42.3550 C.3   128  HEC128      0.0000
     14  CGA        5.7280   35.3470   42.7820 C.2   128  HEC128      0.0000
     15  O1A        5.5380   36.1740   41.8740 O.co2 128  HEC128      0.0000
     16  O2A        5.3850   35.2810   43.9870 O.co2 128  HEC128      0.0000
     17  NB        11.0450   28.9130   40.4170 N.ar  128  HEC128      0.0000
     18  C1B       11.1580   29.1010   41.7840 C.ar  128  HEC128      0.0000
     19  C2B       11.8130   27.9370   42.3430 C.ar  128  HEC128      0.0000
     20  C3B       12.0760   27.0740   41.3560 C.ar  128  HEC128      0.0000
     21  C4B       11.6030   27.7170   40.1160 C.ar  128  HEC128      0.0000
     22  CMB       12.0690   27.8150   43.8640 C.3   128  HEC128      0.0000
     23  CAB       12.7410   25.6870   41.4190 C.3   128  HEC128      0.0000
     24  CBB       12.2750   24.8790   42.4180 C.3   128  HEC128      0.0000
     25  NC        10.8610   28.9970   37.6390 N.2   128  HEC128      0.0000
     26  C1C       11.4110   27.7590   37.7310 C.2   128  HEC128      0.0000
     27  C2C       11.6830   27.2220   36.4300 C.2   128  HEC128      0.0000
     28  C3C       11.2530   28.1370   35.5240 C.2   128  HEC128      0.0000
     29  C4C       10.7600   29.2710   36.2710 C.2   128  HEC128      0.0000
     30  CMC       12.2950   25.8300   36.2070 C.3   128  HEC128      0.0000
     31  CAC       11.2310   28.0520   33.9820 C.2   128  HEC128      0.0000
     32  CBC       11.3840   26.8230   33.3870 C.2   128  HEC128      0.0000
     33  ND         9.6830   31.5730   37.8280 N.ar  128  HEC128      0.0000
     34  C1D        9.6690   31.4510   36.4580 C.ar  128  HEC128      0.0000
     35  C2D        9.0070   32.6050   35.8850 C.ar  128  HEC128      0.0000
     36  C3D        8.5920   33.3840   36.8660 C.ar  128  HEC128      0.0000
     37  C4D        9.0100   32.7340   38.1430 C.ar  128  HEC128      0.0000
     38  CMD        8.8180   32.8410   34.3600 C.3   128  HEC128      0.0000
     39  CAD        7.8020   34.7040   36.8570 C.3   128  HEC128      0.0000
     40  CBD        6.2690   34.3900   36.7870 C.3   128  HEC128      0.0000
     41  CGD        5.3410   35.5780   36.6000 C.2   128  HEC128      0.0000
     42  O1D        4.4960   35.4540   35.6680 O.co2 128  HEC128      0.0000
     43  O2D        5.4530   36.5260   37.3810 O.co2 128  HEC128      0.0000
@<TRIPOS>BOND
     1    32    31    2
     2    31    28    1
     3    38    35    1
     4    28    29    1
     5    28    27    2
     6    42    41   ar
     7     5    29    1
     8     5    34    2
     9    35    34   ar
    10    35    36   ar
    11    30    27    1
    12    29    25    2
    13    27    26    1
    14    34    33   ar
    15    41    40    1
    16    41    43   ar
    17    40    39    1
    18    39    36    1
    19    36    37   ar
    20    25    26    1
    21    25     1    1
    22    26     4    2
    23    33    37   ar
    24    33     1    1
    25    37     2    2
    26     4    21    1
    27     1    17    1
    28     1     6    1
    29     2     7    1
    30    21    17   ar
    31    21    20   ar
    32    17    18   ar
    33     7     6    2
    34     7     8    1
    35     6    10    1
    36    20    23    1
    37    20    19   ar
    38    23    24    1
    39    18    19   ar
    40    18     3    1
    41    15    14   ar
    42     8    12    1
    43     8     9    2
    44    10     3    2
    45    10     9    1
    46    12    13    1
    47    19    22    1
    48    13    14    1
    49     9    11    1
    50    14    16   ar
