@<TRIPOS>MOLECULE
1e85_HEC_A_1.pdb
 43 50 0 0 0
SMALL
GASTEIGER

@<TRIPOS>ATOM
      1 FE         10.6210   30.5990   38.7560 Fe    128  HEC128      0.0000
      2  CHA        8.6640   33.4050   38.9930 C.2   128  HEC128      0.0000
      3  CHB       11.0400   30.5790   42.1120 C.2   128  HEC128      0.0000
      4  CHC       11.7810   27.3870   38.5900 C.2   128  HEC128      0.0000
      5  CHD       10.3150   30.6530   35.3690 C.2   128  HEC128      0.0000
      6  NA         9.9730   31.7310   40.2150 N.2   128  HEC128      0.0000
      7  C1A        9.1540   32.8560   40.1660 C.2   128  HEC128      0.0000
      8  C2A        8.8910   33.3270   41.5000 C.2   128  HEC128      0.0000
      9  C3A        9.5500   32.5420   42.3610 C.2   128  HEC128      0.0000
     10  C4A       10.2380   31.5520   41.5640 C.2   128  HEC128      0.0000
     11  CMA        9.6190   32.5950   43.8980 C.3   128  HEC128      0.0000
     12  CAA        7.9830   34.5350   41.8280 C.3   128  HEC128      0.0000
     13  CBA        6.4870   34.1610   41.9150 C.3   128  HEC128      0.0000
     14  CGA        5.5900   35.2910   42.3570 C.2   128  HEC128      0.0000
     15  O1A        5.4000   36.2130   41.5440 O.co2 128  HEC128      0.0000
     16  O2A        5.1070   35.2010   43.5170 O.co2 128  HEC128      0.0000
     17  NB        11.2650   29.2260   40.0870 N.ar  128  HEC128      0.0000
     18  C1B       11.4440   29.4560   41.4340 C.ar  128  HEC128      0.0000
     19  C2B       12.0970   28.3060   42.0230 C.ar  128  HEC128      0.0000
     20  C3B       12.2730   27.4070   41.0600 C.ar  128  HEC128      0.0000
     21  C4B       11.7650   27.9620   39.8230 C.ar  128  HEC128      0.0000
     22  CMB       12.4070   28.2450   43.5390 C.3   128  HEC128      0.0000
     23  CAB       12.8910   26.0010   41.1750 C.3   128  HEC128      0.0000
     24  CBB       12.4650   25.2220   42.2340 C.3   128  HEC128      0.0000
     25  NC        10.9300   29.2680   37.2800 N.2   128  HEC128      0.0000
     26  C1C       11.4540   27.9930   37.3820 C.2   128  HEC128      0.0000
     27  C2C       11.6650   27.4250   36.0750 C.2   128  HEC128      0.0000
     28  C3C       11.2430   28.3450   35.1730 C.2   128  HEC128      0.0000
     29  C4C       10.8150   29.4920   35.9190 C.2   128  HEC128      0.0000
     30  CMC       12.2260   26.0300   35.8530 C.3   128  HEC128      0.0000
     31  CAC       11.2450   28.2580   33.6220 C.2   128  HEC128      0.0000
     32  CBC       11.2100   27.0360   33.0240 C.2   128  HEC128      0.0000
     33  ND         9.6710   31.8040   37.4330 N.ar  128  HEC128      0.0000
     34  C1D        9.7310   31.6780   36.0630 C.ar  128  HEC128      0.0000
     35  C2D        9.0180   32.8160   35.4840 C.ar  128  HEC128      0.0000
     36  C3D        8.5580   33.5560   36.4690 C.ar  128  HEC128      0.0000
     37  C4D        8.9560   32.9410   37.7400 C.ar  128  HEC128      0.0000
     38  CMD        8.8810   33.0130   33.9520 C.3   128  HEC128      0.0000
     39  CAD        7.7180   34.8500   36.3770 C.3   128  HEC128      0.0000
     40  CBD        6.1960   34.4870   36.3850 C.3   128  HEC128      0.0000
     41  CGD        5.3290   35.6890   36.2070 C.2   128  HEC128      0.0000
     42  O1D        4.4060   35.6390   35.3460 O.co2 128  HEC128      0.0000
     43  O2D        5.5380   36.6790   36.9370 O.co2 128  HEC128      0.0000
@<TRIPOS>BOND
     1    32    31    2
     2    31    28    1
     3    38    35    1
     4    28    29    1
     5    28    27    2
     6    42    41   ar
     7     5    29    1
     8     5    34    2
     9    35    34   ar
    10    35    36   ar
    11    30    27    1
    12    29    25    2
    13    34    33   ar
    14    27    26    1
    15    41    40    1
    16    41    43   ar
    17    39    40    1
    18    39    36    1
    19    36    37   ar
    20    25    26    1
    21    25     1    1
    22    26     4    2
    23    33    37   ar
    24    33     1    1
    25    37     2    2
    26     4    21    1
    27     1    17    1
    28     1     6    1
    29     2     7    1
    30    21    17   ar
    31    21    20   ar
    32    17    18   ar
    33     7     6    2
    34     7     8    1
    35     6    10    1
    36    20    23    1
    37    20    19   ar
    38    23    24    1
    39    18    19   ar
    40    18     3    1
    41     8    12    1
    42     8     9    2
    43    15    14   ar
    44    10     3    2
    45    10     9    1
    46    12    13    1
    47    13    14    1
    48    19    22    1
    49    14    16   ar
    50     9    11    1
