@<TRIPOS>MOLECULE
1e86_HEC_A_1.pdb
 43 50 0 0 0
SMALL
GASTEIGER

@<TRIPOS>ATOM
      1 FE         10.5810   32.4390   38.4030 Fe    128  HEC128      0.0000
      2  CHA        9.1240   35.5400   38.4960 C.2   128  HEC128      0.0000
      3  CHB       11.0960   32.5570   41.8220 C.2   128  HEC128      0.0000
      4  CHC       11.9380   29.2630   38.2840 C.2   128  HEC128      0.0000
      5  CHD       10.2470   32.4100   35.0140 C.2   128  HEC128      0.0000
      6  NA        10.2030   33.7740   39.8440 N.2   128  HEC128      0.0000
      7  C1A        9.5670   35.0130   39.6920 C.2   128  HEC128      0.0000
      8  C2A        9.4690   35.6560   40.9890 C.2   128  HEC128      0.0000
      9  C3A       10.0320   34.8260   41.8780 C.2   128  HEC128      0.0000
     10  C4A       10.4910   33.6440   41.1880 C.2   128  HEC128      0.0000
     11  CMA       10.1940   35.0200   43.4090 C.3   128  HEC128      0.0000
     12  CAA        8.8760   37.0520   41.3330 C.3   128  HEC128      0.0000
     13  CBA        7.4030   37.1810   41.1590 C.3   128  HEC128      0.0000
     14  CGA        6.3140   38.0330   41.6760 C.2   128  HEC128      0.0000
     15  O1A        5.8640   38.9580   40.9350 O.co2 128  HEC128      0.0000
     16  O2A        5.8950   37.7480   42.8350 O.co2 128  HEC128      0.0000
     17  NB        11.3280   31.1730   39.7600 N.ar  128  HEC128      0.0000
     18  C1B       11.4470   31.3950   41.1370 C.ar  128  HEC128      0.0000
     19  C2B       11.9910   30.1920   41.7240 C.ar  128  HEC128      0.0000
     20  C3B       12.2420   29.2940   40.7830 C.ar  128  HEC128      0.0000
     21  C4B       11.8200   29.9130   39.5170 C.ar  128  HEC128      0.0000
     22  CMB       12.2380   30.0450   43.2500 C.3   128  HEC128      0.0000
     23  CAB       12.7790   27.8440   40.8820 C.3   128  HEC128      0.0000
     24  CBB       12.4620   27.1660   42.0990 C.3   128  HEC128      0.0000
     25  NC        11.0420   31.1160   36.9550 N.2   128  HEC128      0.0000
     26  C1C       11.5730   29.8540   37.0690 C.2   128  HEC128      0.0000
     27  C2C       11.6320   29.2200   35.7700 C.2   128  HEC128      0.0000
     28  C3C       11.2000   30.0940   34.8670 C.2   128  HEC128      0.0000
     29  C4C       10.7990   31.2960   35.6010 C.2   128  HEC128      0.0000
     30  CMC       12.2250   27.8100   35.5770 C.3   128  HEC128      0.0000
     31  CAC       10.9970   29.9310   33.3550 C.2   128  HEC128      0.0000
     32  CBC       11.2400   28.6960   32.8150 C.2   128  HEC128      0.0000
     33  ND         9.8500   33.7120   37.0090 N.ar  128  HEC128      0.0000
     34  C1D        9.7340   33.5080   35.6610 C.ar  128  HEC128      0.0000
     35  C2D        9.0570   34.6190   35.0430 C.ar  128  HEC128      0.0000
     36  C3D        8.7620   35.4890   35.9940 C.ar  128  HEC128      0.0000
     37  C4D        9.2490   34.9530   37.2570 C.ar  128  HEC128      0.0000
     38  CMD        8.7430   34.7250   33.5150 C.3   128  HEC128      0.0000
     39  CAD        7.9770   36.8220   35.8670 C.3   128  HEC128      0.0000
     40  CBD        6.4430   36.4940   35.9780 C.3   128  HEC128      0.0000
     41  CGD        5.5270   37.7110   35.8690 C.2   128  HEC128      0.0000
     42  O1D        5.8650   38.6910   36.5630 O.co2 128  HEC128      0.0000
     43  O2D        4.5480   37.6700   35.0770 O.co2 128  HEC128      0.0000
@<TRIPOS>BOND
     1    32    31    2
     2    31    28    1
     3    38    35    1
     4    28    29    1
     5    28    27    2
     6     5    29    1
     7     5    34    2
     8    35    34   ar
     9    35    36   ar
    10    43    41   ar
    11    30    27    1
    12    29    25    2
    13    34    33   ar
    14    27    26    1
    15    39    40    1
    16    39    36    1
    17    41    40    1
    18    41    42   ar
    19    36    37   ar
    20    25    26    1
    21    25     1    1
    22    33    37   ar
    23    33     1    1
    24    26     4    2
    25    37     2    2
    26     4    21    1
    27     1    17    1
    28     1     6    1
    29     2     7    1
    30    21    17   ar
    31    21    20   ar
    32     7     6    2
    33     7     8    1
    34    17    18   ar
    35     6    10    1
    36    20    23    1
    37    20    19   ar
    38    23    24    1
    39    15    14   ar
    40     8    12    1
    41     8     9    2
    42    18    19   ar
    43    18     3    1
    44    13    12    1
    45    13    14    1
    46    10     3    2
    47    10     9    1
    48    14    16   ar
    49    19    22    1
    50     9    11    1
