@<TRIPOS>MOLECULE
1e8c_API_A_1.pdb
 13 12 0 0 0
SMALL
GASTEIGER

@<TRIPOS>ATOM
      1  C1         8.8480   59.1050  102.9000 C.2   1499  API1499     0.3819
      2  C2         7.3380   59.6130  102.9220 C.3   1499  API1499     0.1943
      3  C3         6.7020   59.5430  104.3180 C.3   1499  API1499     0.0307
      4  C4         7.0840   60.6410  105.3040 C.3   1499  API1499     0.0041
      5  C5         8.0140   60.1740  106.3880 C.3   1499  API1499     0.0307
      6  C6         8.4850   61.1890  107.3950 C.3   1499  API1499     0.1943
      7  C7        10.0760   61.2160  107.2800 C.2   1499  API1499     0.3819
      8  O1         9.4870   59.1400  101.7450 O.co2 1499  API1499    -0.2441
      9  O2         9.4100   58.6830  103.9670 O.co2 1499  API1499    -0.2441
     10  O3        10.7480   60.4120  107.9980 O.co2 1499  API1499    -0.2441
     11  O4        10.5960   62.0280  106.4660 O.co2 1499  API1499    -0.2441
     12  N2         6.4220   58.8450  101.9910 N.3   1499  API1499    -0.1208
     13  N6         8.0750   60.7700  108.7930 N.3   1499  API1499    -0.1208
@<TRIPOS>BOND
     1     8     1   ar
     2    12     2    1
     3     1     2    1
     4     1     9   ar
     5     2     3    1
     6     3     4    1
     7     4     5    1
     8     5     6    1
     9    11     7   ar
    10     7     6    1
    11     7    10   ar
    12     6    13    1
