@<TRIPOS>MOLECULE
1e8g_FCR_A_1.pdb
 11 11 0 0 0
SMALL
GASTEIGER

@<TRIPOS>ATOM
      1  C1       110.7110   47.2970   70.4650 C.ar  601  FCR601      0.0716
      2  C2       110.0750   48.3940   71.0580 C.ar  601  FCR601      0.0071
      3  C3       108.8780   48.8800   70.4930 C.ar  601  FCR601      0.0420
      4  C4       108.4000   48.2820   69.3380 C.ar  601  FCR601      0.1957
      5  C5       109.0180   47.2030   68.7240 C.ar  601  FCR601      0.0420
      6  C6       110.1950   46.7160   69.3010 C.ar  601  FCR601      0.0071
      7  C7       111.9750   46.8180   71.0250 C.3   601  FCR601      0.4186
      8  O4       107.2660   48.8270   68.8290 O.3   601  FCR601     -0.2866
      9  F1       112.0040   45.8840   71.9250 F     601  FCR601     -0.1659
     10  F2       112.6960   46.3320   69.9580 F     601  FCR601     -0.1659
     11  F3       112.6620   47.8700   71.4310 F     601  FCR601     -0.1659
@<TRIPOS>BOND
     1     5     6   ar
     2     5     4   ar
     3     8     4    1
     4     6     1   ar
     5     4     3   ar
     6    10     7    1
     7     1     7    1
     8     1     2   ar
     9     3     2   ar
    10     7    11    1
    11     7     9    1
