@<TRIPOS>MOLECULE
1e8h_ADP_A_1.pdb
 27 29 0 0 0
SMALL
GASTEIGER

@<TRIPOS>ATOM
      1  PB       100.4090   46.2510   75.6890 P.3   600  ADP600      0.5373
      2  O1B      101.5280   46.3420   74.5480 O.2   600  ADP600     -0.2221
      3  O2B       99.8000   44.9120   75.7680 O.3   600  ADP600     -0.1143
      4  O3B      100.7580   46.7110   77.0490 O.3   600  ADP600     -0.1143
      5  PA        97.8260   47.6160   75.2920 P.3   600  ADP600      0.2231
      6  O1A       97.6190   48.1780   76.6530 O.3   600  ADP600     -0.4370
      7  O2A       97.0330   46.3760   75.2110 O.2   600  ADP600     -0.5169
      8  O3A       99.4030   47.3540   75.0670 O.3   600  ADP600     -0.2261
      9  O5'       97.4810   48.7690   74.2860 O.3   600  ADP600     -0.3111
     10  C5'       97.8270   49.0300   72.9440 C.3   600  ADP600      0.1813
     11  C4'       96.6330   49.5360   72.1390 C.3   600  ADP600      0.1821
     12  O4'       95.9840   48.3660   71.5960 O.3   600  ADP600     -0.3135
     13  C3'       95.5160   50.2410   72.9140 C.3   600  ADP600      0.2184
     14  O3'       95.7870   51.6500   73.0810 O.3   600  ADP600     -0.2174
     15  C2'       94.3880   50.0420   71.8550 C.3   600  ADP600      0.2570
     16  O2'       94.7890   50.8880   70.7590 O.3   600  ADP600     -0.2130
     17  C1'       94.6550   48.5950   71.4010 C.3   600  ADP600      0.3186
     18  N9        93.8550   47.5590   72.0070 N.pl3 600  ADP600     -0.1439
     19  C8        94.2250   46.6710   72.9560 C.3   600  ADP600      0.3377
     20  N7        93.4040   45.7210   73.2000 N.2   600  ADP600     -0.2095
     21  C5        92.4210   45.9470   72.3710 C.2   600  ADP600      0.2526
     22  C6        91.2770   45.2420   72.1750 C.2   600  ADP600      0.4393
     23  N6        90.9220   44.1560   72.8070 N.pl3 600  ADP600      0.2180
     24  N1        90.4030   45.7090   71.2580 N.2   600  ADP600      0.0021
     25  C2        90.7050   46.8550   70.5600 C.3   600  ADP600      0.5254
     26  N3        91.8050   47.5720   70.6780 N.2   600  ADP600     -0.0055
     27  C4        92.6170   47.0720   71.6030 C.2   600  ADP600      0.3518
@<TRIPOS>BOND
     1    25    26    1
     2    25    24    1
     3    26    27    2
     4    16    15    1
     5    24    22    2
     6    17    12    1
     7    17    15    1
     8    17    18    1
     9    12    11    1
    10    27    18    1
    11    27    21    1
    12    15    13    1
    13    18    19    1
    14    11    13    1
    15    11    10    1
    16    22    21    1
    17    22    23    1
    18    21    20    2
    19    13    14    1
    20    10     9    1
    21    19    20    1
    22     9     5    1
    23     2     1    2
    24     8     5    1
    25     8     1    1
    26     7     5    2
    27     5     6    1
    28     1     3    1
    29     1     4    1
