@<TRIPOS>MOLECULE
1e8m_P0H_A_1.pdb
 22 23 0 0 0
SMALL
GASTEIGER

@<TRIPOS>ATOM
      1  C1        42.4840   37.9390   85.8260 C.2   724  P0H724      0.4219
      2  O1        43.0740   37.7240   84.7510 O.2   724  P0H724     -0.2245
      3  O2        43.1170   38.4400   86.8680 O.3   724  P0H724     -0.4285
      4  C2        44.5340   38.4230   86.7560 C.3   724  P0H724      0.2368
      5  C3        45.1740   37.2960   87.5030 C.ar  724  P0H724      0.0213
      6  C4        45.2660   36.0370   86.9310 C.ar  724  P0H724     -0.0007
      7  C5        45.8340   34.9750   87.6260 C.ar  724  P0H724     -0.0002
      8  C6        46.3180   35.1770   88.9070 C.ar  724  P0H724     -0.0000
      9  C7        46.2350   36.4350   89.4930 C.ar  724  P0H724     -0.0002
     10  C8        45.6640   37.4880   88.7910 C.ar  724  P0H724     -0.0007
     11  N1        41.2010   37.6680   86.0160 N.am  724  P0H724     -0.1588
     12  CA1       40.3830   37.1270   84.9500 C.3   724  P0H724      0.2033
     13  C9        39.8330   38.1970   84.0380 C.2   724  P0H724      0.2482
     14  O3        40.0270   39.4000   84.2590 O.2   724  P0H724     -0.2729
     15  N         39.1650   37.7680   82.9660 N.am  724  P0H724     -0.2699
     16  CA        38.5790   38.7000   82.0080 C.3   724  P0H724      0.1791
     17  C         37.2170   39.1260   82.5150 C.2   724  P0H724      0.3825
     18  O         36.2560   38.3320   82.3700 O.co2 724  P0H724     -0.2438
     19  CB        38.4910   37.8740   80.7200 C.3   724  P0H724      0.0332
     20  CG        38.3110   36.4450   81.2000 C.3   724  P0H724      0.0238
     21  CD        38.9580   36.3580   82.5790 C.3   724  P0H724      0.0940
     22  OXT       37.1310   40.2630   83.0470 O.co2 724  P0H724     -0.2438
@<TRIPOS>BOND
     1    19    20    1
     2    19    16    1
     3    20    21    1
     4    16    17    1
     5    16    15    1
     6    18    17   ar
     7    17    22   ar
     8    21    15    1
     9    15    13   am
    10    13    14    2
    11    13    12    1
    12     2     1    2
    13    12    11    1
    14     1    11   am
    15     1     3    1
    16     4     3    1
    17     4     5    1
    18     6     5   ar
    19     6     7   ar
    20     5    10   ar
    21     7     8   ar
    22    10     9   ar
    23     8     9   ar
