@<TRIPOS>MOLECULE
1e8n_III_I_1.pdb
 50 53 0 0 0
SMALL
GASTEIGER

@<TRIPOS>ATOM
      1  C         44.0150   39.5440   90.7950 C.2   722  BE2722      0.2666
      2  O1        44.3370   38.3930   91.0010 O.2   722  BE2722     -0.2683
      3  C1        44.7320   40.7110   91.4190 C.ar  722  BE2722      0.0718
      4  C2        45.6290   40.5290   92.4920 C.ar  722  BE2722      0.0935
      5  C3        46.2700   41.6320   93.0330 C.ar  722  BE2722      0.0182
      6  N2        45.9030   39.2370   93.0450 N.pl3 722  BE2722     -0.1279
      7  C4        46.0350   42.9060   92.5620 C.ar  722  BE2722      0.0014
      8  C5        45.1500   43.1030   91.4950 C.ar  722  BE2722      0.0002
      9  C6        44.4900   42.0220   90.9430 C.ar  722  BE2722      0.0059
     10  N         42.8360   39.9260   90.3350 N.am  723  GLY723     -0.1916
     11  CA        41.8240   39.1250   89.6810 C.3   723  GLY723      0.2017
     12  C         42.2410   39.3500   88.2430 C.2   723  GLY723      0.2639
     13  O         42.0940   40.4490   87.7920 O.2   723  GLY723     -0.2714
     14  N         42.8230   38.4000   87.6780 N.am  724  PHE724     -0.1959
     15  CA        43.3370   38.5350   86.3080 C.3   724  PHE724      0.1771
     16  C         42.4520   37.8480   85.2550 C.2   724  PHE724      0.2620
     17  O         42.8760   37.5480   84.1300 O.2   724  PHE724     -0.2715
     18  CB        44.7970   38.0450   86.1910 C.3   724  PHE724      0.0574
     19  CG        45.0820   36.7830   86.9370 C.ar  724  PHE724     -0.0200
     20  CD1       45.3710   36.8220   88.3000 C.ar  724  PHE724     -0.0042
     21  CD2       45.0790   35.5590   86.2840 C.ar  724  PHE724     -0.0042
     22  CE1       45.6590   35.6290   89.0100 C.ar  724  PHE724     -0.0003
     23  CE2       45.3640   34.3730   86.9800 C.ar  724  PHE724     -0.0003
     24  CZ        45.6530   34.4070   88.3380 C.ar  724  PHE724     -0.0000
     25  N         41.2070   37.5760   85.6210 N.am  725  GLY725     -0.1940
     26  CA        40.2910   36.9280   84.6950 C.3   725  GLY725      0.1998
     27  C         39.5470   37.9390   83.8400 C.2   725  GLY725      0.2481
     28  O         39.5540   39.1400   84.1440 O.2   725  GLY725     -0.2729
     29  N         38.8860   37.4940   82.7590 N.am  726  PRO726     -0.2715
     30  CA        38.1460   38.4140   81.8930 C.3   726  PRO726      0.1536
     31  C         36.8010   38.6300   82.5860 C.2   726  PRO726      0.2599
     32  O         35.7610   38.1340   82.1250 O.2   726  PRO726     -0.2715
     33  CB        37.9970   37.6040   80.6080 C.3   726  PRO726      0.0310
     34  CG        37.7710   36.2400   81.1240 C.3   726  PRO726      0.0237
     35  CD        38.7560   36.1060   82.2850 C.3   726  PRO726      0.0939
     36  N         36.8530   39.3920   83.6790 N.am  727  PHE727     -0.1960
     37  CA        35.7030   39.6750   84.5410 C.3   727  PHE727      0.1771
     38  C         34.7730   40.7920   84.0970 C.2   727  PHE727      0.2620
     39  O         33.5770   40.7530   84.3750 O.2   727  PHE727     -0.2715
     40  CB        36.1780   39.9550   85.9740 C.3   727  PHE727      0.0574
     41  CG        36.9590   38.8210   86.5960 C.ar  727  PHE727     -0.0200
     42  CD1       36.5800   37.4980   86.3880 C.ar  727  PHE727     -0.0042
     43  CD2       38.0720   39.0820   87.3990 C.ar  727  PHE727     -0.0042
     44  CE1       37.2940   36.4510   86.9710 C.ar  727  PHE727     -0.0003
     45  CE2       38.7920   38.0450   87.9840 C.ar  727  PHE727     -0.0003
     46  CZ        38.4020   36.7250   87.7690 C.ar  727  PHE727     -0.0000
     47  N         35.3240   41.7910   83.4240 N.am  728  GLY728     -0.1954
     48  CA        34.5130   42.9030   82.9690 C.3   728  GLY728      0.1869
     49  C         34.7020   44.1100   83.8750 C.2   728  GLY728      0.2309
     50  O         34.4130   45.2350   83.4240 O.2   728  GLY728     -0.2863
@<TRIPOS>BOND
     1    33    34    1
     2    33    30    1
     3    34    35    1
     4    30    31    1
     5    30    29    1
     6    32    31    2
     7    35    29    1
     8    31    36   am
     9    29    27   am
    10    48    47    1
    11    48    49    1
    12    50    49    2
    13    47    38   am
    14    36    37    1
    15    27    28    2
    16    27    26    1
    17    38    39    2
    18    38    37    1
    19    17    16    2
    20    37    40    1
    21    26    25    1
    22    16    25   am
    23    16    15    1
    24    40    41    1
    25    18    15    1
    26    18    19    1
    27    21    19   ar
    28    21    23   ar
    29    15    14    1
    30    42    41   ar
    31    42    44   ar
    32    41    43   ar
    33    19    20   ar
    34    44    46   ar
    35    23    24   ar
    36    43    45   ar
    37    14    12   am
    38    46    45   ar
    39    13    12    2
    40    12    11    1
    41    20    22   ar
    42    24    22   ar
    43    11    10    1
    44    10     1   am
    45     1     2    2
    46     1     3    1
    47     9     3   ar
    48     9     8   ar
    49     3     4   ar
    50     8     7   ar
    51     4     5   ar
    52     4     6    1
    53     7     5   ar
