@<TRIPOS>MOLECULE
1e8u_SLB_A_1.pdb
 21 21 0 0 0
SMALL
GASTEIGER

@<TRIPOS>ATOM
      1  C1        37.2680   63.0010   25.9040 C.2   1570  SLB1570     0.4179
      2  C2        37.0610   62.1900   24.6330 C.3   1570  SLB1570     0.3155
      3  C3        36.5890   60.7730   24.9840 C.3   1570  SLB1570     0.1056
      4  C4        36.5440   59.9060   23.7170 C.3   1570  SLB1570     0.1798
      5  C5        37.9130   59.9300   23.0320 C.3   1570  SLB1570     0.1554
      6  C6        38.3160   61.3820   22.7340 C.3   1570  SLB1570     0.1734
      7  C7        39.7200   61.3780   22.1430 C.3   1570  SLB1570     0.2135
      8  C8        40.0520   62.7330   21.5000 C.3   1570  SLB1570     0.2173
      9  C9        41.2300   62.6040   20.5290 C.3   1570  SLB1570     0.2175
     10  C10       38.7340   58.1550   21.6030 C.2   1570  SLB1570     0.2420
     11  C11       38.6440   57.4210   20.2730 C.3   1570  SLB1570     0.0964
     12  N5        37.8850   59.1640   21.7960 N.am  1570  SLB1570    -0.2020
     13  O1A       37.6960   64.1740   25.7990 O.co2 1570  SLB1570    -0.2401
     14  O1B       37.0230   62.4670   27.0100 O.co2 1570  SLB1570    -0.2401
     15  O2        36.1290   62.8140   23.8170 O.3   1570  SLB1570    -0.1830
     16  O4        36.1990   58.5710   24.0610 O.3   1570  SLB1570    -0.2210
     17  O6        38.3280   62.1600   23.9540 O.3   1570  SLB1570    -0.3220
     18  O7        40.6490   61.0960   23.1830 O.3   1570  SLB1570    -0.2176
     19  O8        38.9260   63.2010   20.7820 O.3   1570  SLB1570    -0.2175
     20  O9        42.3880   62.1850   21.2230 O.3   1570  SLB1570    -0.2175
     21  O10       39.5600   57.7950   22.4450 O.2   1570  SLB1570    -0.2733
@<TRIPOS>BOND
     1    11    10    1
     2     9    20    1
     3     9     8    1
     4    19     8    1
     5     8     7    1
     6    10    12   am
     7    10    21    2
     8    12     5    1
     9     7     6    1
    10     7    18    1
    11     6     5    1
    12     6    17    1
    13     5     4    1
    14     4    16    1
    15     4     3    1
    16    15     2    1
    17    17     2    1
    18     2     3    1
    19     2     1    1
    20    13     1   ar
    21     1    14   ar
