@<TRIPOS>MOLECULE
1e8v_DAN_A_1.pdb
 20 20 0 0 0
SMALL
GASTEIGER

@<TRIPOS>ATOM
      1  C1        33.9200   46.3580   -2.3310 C.2   1571  DAN1571     0.4208
      2  C2        33.7500   45.2770   -3.2170 C.2   1571  DAN1571     0.2163
      3  C3        34.0020   43.9710   -2.7140 C.2   1571  DAN1571     0.0518
      4  C4        33.4750   42.7250   -3.4850 C.3   1571  DAN1571     0.2007
      5  C5        33.3680   43.0280   -5.0100 C.3   1571  DAN1571     0.1722
      6  C6        32.5530   44.4040   -5.2650 C.3   1571  DAN1571     0.2215
      7  C7        32.6700   44.8050   -6.7240 C.3   1571  DAN1571     0.2261
      8  C8        31.6250   45.8440   -7.0650 C.3   1571  DAN1571     0.2185
      9  C9        31.7590   46.2530   -8.5390 C.3   1571  DAN1571     0.2175
     10  C10       33.2810   41.0250   -6.4320 C.2   1571  DAN1571     0.2420
     11  C11       32.4680   39.9000   -7.0710 C.3   1571  DAN1571     0.0964
     12  N5        32.6360   41.8910   -5.6540 N.am  1571  DAN1571    -0.2004
     13  O1A       34.4060   46.2430   -1.1870 O.co2 1571  DAN1571    -0.2371
     14  O1B       33.5200   47.4660   -2.7450 O.co2 1571  DAN1571    -0.2371
     15  O4        34.1600   41.5270   -3.3040 O.3   1571  DAN1571    -0.2162
     16  O6        33.0900   45.4810   -4.4280 O.2   1571  DAN1571    -0.4684
     17  O7        33.9510   45.3340   -6.9630 O.3   1571  DAN1571    -0.2164
     18  O8        30.3310   45.3130   -6.8250 O.3   1571  DAN1571    -0.2174
     19  O9        31.5670   45.1140   -9.3620 O.3   1571  DAN1571    -0.2175
     20  O10       34.4920   41.0890   -6.6390 O.2   1571  DAN1571    -0.2733
@<TRIPOS>BOND
     1    19     9    1
     2     9     8    1
     3    11    10    1
     4     8    18    1
     5     8     7    1
     6    17     7    1
     7     7     6    1
     8    20    10    2
     9    10    12   am
    10    12     5    1
    11     6     5    1
    12     6    16    1
    13     5     4    1
    14    16     2    1
    15     4    15    1
    16     4     3    1
    17     2     3    2
    18     2     1    1
    19    14     1   ar
    20     1    13   ar
