@<TRIPOS>MOLECULE
1e8w_QUE_A_1.pdb
 22 24 0 0 0
SMALL
GASTEIGER

@<TRIPOS>ATOM
      1  C1        17.3280   63.8540   22.2130 C.ar  2095  QUE2095     0.0843
      2  C2        17.6500   62.5220   22.8010 C.ar  2095  QUE2095     0.2050
      3  C3        18.9720   61.9470   22.7380 C.ar  2095  QUE2095     0.1158
      4  C4        19.8870   62.7610   22.0100 C.ar  2095  QUE2095     0.1549
      5  C5        19.6050   64.0500   21.4300 C.ar  2095  QUE2095     0.0798
      6  C6        18.3330   64.6600   21.5060 C.ar  2095  QUE2095     0.2020
      7  C9        19.4140   60.6480   23.3170 C.ar  2095  QUE2095     0.2433
      8  C10       20.7530   60.1900   23.2100 C.ar  2095  QUE2095     0.2685
      9  C11       21.6610   61.0870   22.4210 C.ar  2095  QUE2095     0.1872
     10  C14       23.0570   60.8510   22.1400 C.ar  2095  QUE2095     0.0413
     11  C15       23.8820   59.7540   22.6370 C.ar  2095  QUE2095     0.0066
     12  C16       25.2860   59.6570   22.2540 C.ar  2095  QUE2095     0.0455
     13  C17       25.8840   60.6120   21.3470 C.ar  2095  QUE2095     0.2343
     14  C18       25.0970   61.7010   20.8060 C.ar  2095  QUE2095     0.2344
     15  C19       23.7320   61.7850   21.2330 C.ar  2095  QUE2095     0.0485
     16  O12       21.1610   62.2980   21.8810 O.2   2095  QUE2095    -0.4498
     17  O13       18.6770   59.9140   23.9370 O.2   2095  QUE2095    -0.2828
     18  O23       25.6000   62.6310   19.9020 O.3   2095  QUE2095    -0.2831
     19  O24       27.2450   60.4850   20.9710 O.3   2095  QUE2095    -0.2831
     20  O27       21.0830   58.9730   23.8060 O.3   2095  QUE2095    -0.2798
     21  O29       18.1540   65.9470   20.9250 O.3   2095  QUE2095    -0.2864
     22  O30       16.6330   61.8640   23.4510 O.3   2095  QUE2095    -0.2862
@<TRIPOS>BOND
     1    18    14    1
     2    14    15   ar
     3    14    13   ar
     4    21     6    1
     5    19    13    1
     6    15    10   ar
     7    13    12   ar
     8     5     6   ar
     9     5     4   ar
    10     6     1   ar
    11    16     4   ar
    12    16     9   ar
    13     4     3   ar
    14    10     9    1
    15    10    11   ar
    16     1     2   ar
    17    12    11   ar
    18     9     8   ar
    19     3     2   ar
    20     3     7   ar
    21     2    22    1
    22     8     7   ar
    23     8    20    1
    24     7    17    2
