@<TRIPOS>MOLECULE
1e8x_ATP_A_1.pdb
 31 33 0 0 0
SMALL
GASTEIGER

@<TRIPOS>ATOM
      1  PG        28.8760   68.0060   19.6240 P.3   3000  ATP3000     0.5373
      2  O1G       28.8270   69.0270   18.5660 O.2   3000  ATP3000    -0.2221
      3  O2G       30.1800   67.3480   19.7720 O.3   3000  ATP3000    -0.1143
      4  O3G       28.3670   68.5560   20.9260 O.3   3000  ATP3000    -0.1143
      5  PB        27.1360   66.1470   17.7080 P.3   3000  ATP3000     0.2277
      6  O1B       27.8410   64.9100   17.2780 O.3   3000  ATP3000    -0.4368
      7  O2B       27.0630   67.2380   16.6990 O.2   3000  ATP3000    -0.5168
      8  O3B       27.8390   66.7170   19.1580 O.3   3000  ATP3000    -0.2258
      9  PA        24.9990   64.2380   18.5580 P.3   3000  ATP3000     0.2189
     10  O1A       25.0720   63.4100   17.3430 O.2   3000  ATP3000    -0.5170
     11  O2A       25.4870   63.6900   19.8290 O.3   3000  ATP3000    -0.4371
     12  O3A       25.7000   65.6460   18.1250 O.3   3000  ATP3000    -0.2700
     13  O5'       23.5270   64.6650   18.7130 O.3   3000  ATP3000    -0.3112
     14  C5'       23.0840   65.4600   19.7960 C.3   3000  ATP3000     0.1813
     15  C4'       21.6360   65.6730   19.5980 C.3   3000  ATP3000     0.1821
     16  O4'       21.0080   64.3710   19.5460 O.3   3000  ATP3000    -0.3135
     17  C3'       20.9990   66.4810   20.6920 C.3   3000  ATP3000     0.2184
     18  O3'       20.1740   67.4840   20.0240 O.3   3000  ATP3000    -0.2174
     19  C2'       20.2100   65.4620   21.4890 C.3   3000  ATP3000     0.2570
     20  O2'       18.8930   65.9180   21.7630 O.3   3000  ATP3000    -0.2130
     21  C1'       20.1200   64.1390   20.6560 C.3   3000  ATP3000     0.3186
     22  N9        20.6050   62.9310   21.4260 N.pl3 3000  ATP3000    -0.1439
     23  C8        21.8720   62.3620   21.4560 C.3   3000  ATP3000     0.3377
     24  N7        22.0100   61.3210   22.2300 N.2   3000  ATP3000    -0.2095
     25  C5        20.7370   61.1940   22.7590 C.2   3000  ATP3000     0.2526
     26  C6        20.1940   60.2650   23.6670 C.2   3000  ATP3000     0.4393
     27  N6        20.9530   59.3090   24.1760 N.pl3 3000  ATP3000     0.2180
     28  N1        18.8800   60.3790   24.0160 N.2   3000  ATP3000     0.0021
     29  C2        18.1460   61.3570   23.4830 C.3   3000  ATP3000     0.5254
     30  N3        18.5390   62.3050   22.5990 N.2   3000  ATP3000    -0.0055
     31  C4        19.8670   62.1590   22.2820 C.2   3000  ATP3000     0.3518
@<TRIPOS>BOND
     1     7     5    2
     2     6     5    1
     3    10     9    2
     4     5    12    1
     5     5     8    1
     6    12     9    1
     7     9    13    1
     8     9    11    1
     9     2     1    2
    10    13    14    1
    11     8     1    1
    12    16    15    1
    13    16    21    1
    14    15    14    1
    15    15    17    1
    16     1     3    1
    17     1     4    1
    18    18    17    1
    19    21    22    1
    20    21    19    1
    21    17    19    1
    22    22    23    1
    23    22    31    1
    24    23    24    1
    25    19    20    1
    26    24    25    2
    27    31    30    2
    28    31    25    1
    29    30    29    1
    30    25    26    1
    31    29    28    1
    32    26    28    2
    33    26    27    1
