@<TRIPOS>MOLECULE
1e8z_STU_A_1.pdb
 35 42 0 0 0
SMALL
GASTEIGER

@<TRIPOS>ATOM
      1  O4        44.2310   16.6520   34.1750 O.3   3001  STU3001    -0.3186
      2  C25       45.2450   17.3420   33.3840 C.3   3001  STU3001     0.2078
      3  C24       44.7550   18.7370   32.8010 C.3   3001  STU3001     0.0739
      4  C23       43.3150   18.7370   32.2060 C.3   3001  STU3001     0.1086
      5  C22       42.3440   17.9830   33.1940 C.3   3001  STU3001     0.1761
      6  C21       42.8320   16.5240   33.6980 C.3   3001  STU3001     0.1915
      7  C26       42.1220   16.0820   35.0200 C.3   3001  STU3001     0.0566
      8  N2        42.7120   15.3890   32.6100 N.ar  3001  STU3001    -0.3054
      9  C18       43.7110   14.9580   31.8050 C.ar  3001  STU3001     0.0774
     10  C19       45.1200   15.4180   31.6760 C.ar  3001  STU3001     0.0783
     11  C6        46.0130   14.7620   30.7170 C.ar  3001  STU3001     0.0293
     12  C7        45.5240   13.6240   29.8790 C.ar  3001  STU3001     0.0822
     13  C10       44.1650   13.1820   30.0020 C.ar  3001  STU3001     0.0154
     14  C11       43.2560   13.8550   30.9670 C.ar  3001  STU3001     0.0173
     15  C12       41.9230   13.5970   31.2480 C.ar  3001  STU3001     0.0171
     16  C17       41.5610   14.5400   32.2650 C.ar  3001  STU3001     0.0617
     17  C16       40.1670   14.4990   32.7760 C.ar  3001  STU3001     0.0172
     18  C15       39.2200   13.5620   32.2650 C.ar  3001  STU3001     0.0015
     19  C14       39.5950   12.6420   31.2570 C.ar  3001  STU3001     0.0001
     20  C13       40.9270   12.6340   30.7320 C.ar  3001  STU3001     0.0015
     21  C9        43.9870   12.0440   29.0250 C.3   3001  STU3001     0.1650
     22  N1        45.2980   11.9170   28.4210 N.2   3001  STU3001    -0.1976
     23  C8        46.1830   12.7720   28.8640 C.1   3001  STU3001     0.1501
     24  O5        47.3430   12.8120   28.4710 O.2   3001  STU3001    -0.2222
     25  C5        47.2620   15.3920   30.7830 C.ar  3001  STU3001     0.0180
     26  C20       47.0980   16.4120   31.7780 C.ar  3001  STU3001     0.0618
     27  C1        48.2280   17.2850   32.1050 C.ar  3001  STU3001     0.0172
     28  C2        49.4770   17.1040   31.4320 C.ar  3001  STU3001     0.0015
     29  C3        49.6290   16.0870   30.4510 C.ar  3001  STU3001     0.0001
     30  C4        48.5520   15.2240   30.1160 C.ar  3001  STU3001     0.0015
     31  N3        45.7710   16.4060   32.3050 N.ar  3001  STU3001    -0.3039
     32  O6        40.9750   17.9410   32.6420 O.3   3001  STU3001    -0.3478
     33  C27       40.0590   18.9890   33.0330 C.3   3001  STU3001     0.1743
     34  N4        43.3560   18.1420   30.8480 N.3   3001  STU3001    -0.2152
     35  C28       43.9410   18.8240   29.6910 C.3   3001  STU3001     0.1075
@<TRIPOS>BOND
     1    22    23    2
     2    22    21    1
     3    24    23    2
     4    23    12    1
     5    21    13    1
     6    35    34    1
     7    12    13   ar
     8    12    11   ar
     9    13    14   ar
    10    30    29   ar
    11    30    25   ar
    12    29    28   ar
    13    11    25   ar
    14    11    10   ar
    15    20    15   ar
    16    20    19   ar
    17    25    26   ar
    18    34     4    1
    19    14    15   ar
    20    14     9   ar
    21    15    16   ar
    22    19    18   ar
    23    28    27   ar
    24    10     9   ar
    25    10    31   ar
    26    26    27   ar
    27    26    31   ar
    28     9     8   ar
    29     4     3    1
    30     4     5    1
    31    18    17   ar
    32    16     8   ar
    33    16    17   ar
    34    31     2    1
    35     8     6    1
    36    32    33    1
    37    32     5    1
    38     3     2    1
    39     5     6    1
    40     2     1    1
    41     6     1    1
    42     6     7    1
