@<TRIPOS>MOLECULE
1e90_MYC_A_1.pdb
 23 25 0 0 0
SMALL
GASTEIGER

@<TRIPOS>ATOM
      1  C1        26.5880   60.1840   21.2180 C.ar  2095  MYC2095     0.0843
      2  C2        25.8770   61.1090   20.4650 C.ar  2095  MYC2095     0.2050
      3  C3        24.4980   61.4460   20.7680 C.ar  2095  MYC2095     0.1158
      4  C4        23.8800   60.7170   21.8320 C.ar  2095  MYC2095     0.1549
      5  C5        24.5870   59.7830   22.5980 C.ar  2095  MYC2095     0.0798
      6  C6        25.9110   59.4950   22.2940 C.ar  2095  MYC2095     0.2020
      7  C9        23.6880   62.4090   20.0100 C.ar  2095  MYC2095     0.2433
      8  C10       22.2900   62.5850   20.4380 C.ar  2095  MYC2095     0.2685
      9  C11       21.7820   61.8590   21.5250 C.ar  2095  MYC2095     0.1873
     10  C14       20.3860   61.8910   22.1040 C.ar  2095  MYC2095     0.0445
     11  C15       20.0210   60.9170   23.0710 C.ar  2095  MYC2095     0.0487
     12  C16       18.7180   60.9260   23.6520 C.ar  2095  MYC2095     0.2376
     13  C17       17.7620   61.8910   23.2580 C.ar  2095  MYC2095     0.2727
     14  C18       18.1440   62.8570   22.3050 C.ar  2095  MYC2095     0.2376
     15  C19       19.4240   62.8660   21.7200 C.ar  2095  MYC2095     0.0487
     16  O12       22.5740   60.9490   22.1830 O.2   2095  MYC2095    -0.4498
     17  O13       24.1410   63.0750   19.0510 O.2   2095  MYC2095    -0.2828
     18  O23       17.2850   63.8120   21.8850 O.3   2095  MYC2095    -0.2830
     19  O24       16.5400   61.8460   23.8480 O.3   2095  MYC2095    -0.2797
     20  O25       18.3280   60.0060   24.5800 O.3   2095  MYC2095    -0.2830
     21  O27       21.5620   63.4990   19.7470 O.3   2095  MYC2095    -0.2798
     22  O29       26.6620   58.6100   22.9590 O.3   2095  MYC2095    -0.2864
     23  O30       26.5190   61.7740   19.4380 O.3   2095  MYC2095    -0.2862
@<TRIPOS>BOND
     1    17     7    2
     2    23     2    1
     3    21     8    1
     4     7     8   ar
     5     7     3   ar
     6     8     9   ar
     7     2     3   ar
     8     2     1   ar
     9     3     4   ar
    10     1     6   ar
    11     9    10    1
    12     9    16   ar
    13    15    10   ar
    14    15    14   ar
    15     4    16   ar
    16     4     5   ar
    17    18    14    1
    18    10    11   ar
    19     6     5   ar
    20     6    22    1
    21    14    13   ar
    22    11    12   ar
    23    13    12   ar
    24    13    19    1
    25    12    20    1
