@<TRIPOS>MOLECULE
1e92_NAP_A_1.pdb
 48 52 0 0 0
SMALL
GASTEIGER

@<TRIPOS>ATOM
      1  PA        -4.5190   28.3420   59.1040 P.3   1289  NAP1289     0.2189
      2  O1A       -4.7240   28.2120   60.5690 O.3   1289  NAP1289    -0.4371
      3  O2A       -5.6900   28.3910   58.2710 O.2   1289  NAP1289    -0.5170
      4  O5B       -3.5250   27.1820   58.6430 O.3   1289  NAP1289    -0.3112
      5  C5B       -2.7620   27.2130   57.4560 C.3   1289  NAP1289     0.1813
      6  C4B       -2.4100   25.7990   57.0000 C.3   1289  NAP1289     0.1820
      7  O4B       -1.3170   25.2980   57.7850 O.3   1289  NAP1289    -0.3136
      8  C3B       -3.5620   24.8130   57.2350 C.3   1289  NAP1289     0.2157
      9  O3B       -4.4300   24.8490   56.0970 O.3   1289  NAP1289    -0.2175
     10  C2B       -2.7940   23.4700   57.3210 C.3   1289  NAP1289     0.2314
     11  O2B       -2.8920   22.7080   56.0720 O.3   1289  NAP1289    -0.2630
     12  C1B       -1.3110   23.8590   57.6190 C.3   1289  NAP1289     0.3158
     13  N9A       -0.7780   23.1050   58.7250 N.pl3 1289  NAP1289    -0.1439
     14  C8A       -1.0760   23.1670   60.0580 C.3   1289  NAP1289     0.3377
     15  N7A       -0.3360   22.2490   60.7350 N.2   1289  NAP1289    -0.2095
     16  C5A        0.3870   21.6520   59.8190 C.2   1289  NAP1289     0.2526
     17  C6A        1.3140   20.6180   59.9920 C.2   1289  NAP1289     0.4393
     18  N6A        1.5990   20.0790   61.1940 N.pl3 1289  NAP1289     0.2180
     19  N1A        1.9550   20.1330   58.8800 N.2   1289  NAP1289     0.0021
     20  C2A        1.7010   20.6400   57.6460 C.3   1289  NAP1289     0.5254
     21  N3A        0.8180   21.6310   57.4770 N.2   1289  NAP1289    -0.0055
     22  C4A        0.1360   22.1590   58.5690 C.2   1289  NAP1289     0.3518
     23  O3        -3.6810   29.6770   58.8100 O.3   1289  NAP1289    -0.2703
     24  PN        -4.0910   31.1890   58.3840 P.3   1289  NAP1289     0.2189
     25  O1N       -5.1440   31.6460   59.3010 O.3   1289  NAP1289    -0.4371
     26  O2N       -4.4290   31.1870   56.9230 O.2   1289  NAP1289    -0.5170
     27  O5D       -2.7430   31.9930   58.6070 O.3   1289  NAP1289    -0.3112
     28  C5D       -1.6400   31.8790   57.6840 C.3   1289  NAP1289     0.1813
     29  C4D       -0.3410   32.2820   58.3950 C.3   1289  NAP1289     0.1799
     30  O4D       -0.5360   33.5890   58.9890 O.3   1289  NAP1289    -0.3327
     31  C3D        0.0260   31.3160   59.5460 C.3   1289  NAP1289     0.2158
     32  O3D        1.4500   31.1750   59.6610 O.3   1289  NAP1289    -0.2175
     33  C2D       -0.5330   32.0430   60.8040 C.3   1289  NAP1289     0.2309
     34  O2D        0.1300   31.6670   62.0340 O.3   1289  NAP1289    -0.2158
     35  C1D       -0.3370   33.4940   60.4450 C.3   1289  NAP1289     0.2263
     36  N1N       -1.2550   34.3460   61.1790 N.pl3 1289  NAP1289    -0.2787
     37  C2N       -2.6750   34.2940   60.8730 C.3   1289  NAP1289     0.1244
     38  C3N       -3.5370   35.1340   61.5910 C.2   1289  NAP1289     0.0544
     39  C7N       -5.0700   35.1670   61.3480 C.2   1289  NAP1289     0.2818
     40  O7N       -5.7190   36.0380   61.8930 O.2   1289  NAP1289    -0.2670
     41  N7N       -5.5800   34.2240   60.5440 N.am  1289  NAP1289    -0.0839
     42  C4N       -3.0000   35.9950   62.5820 C.2   1289  NAP1289     0.0033
     43  C5N       -1.5970   36.0490   62.8900 C.2   1289  NAP1289     0.0157
     44  C6N       -0.7280   35.2210   62.1810 C.2   1289  NAP1289     0.0633
     45  P2B       -4.0000   21.5660   55.7330 P.3   1289  NAP1289     0.5328
     46  O1X       -3.6950   21.1830   54.3220 O.2   1289  NAP1289    -0.2224
     47  O2X       -3.8320   20.4770   56.7070 O.3   1289  NAP1289    -0.1145
     48  O3X       -5.3300   22.3200   55.8010 O.3   1289  NAP1289    -0.1145
@<TRIPOS>BOND
     1    46    45    2
     2    45    48    1
     3    45    11    1
     4    45    47    1
     5    11    10    1
     6     9     8    1
     7    26    24    2
     8     6     8    1
     9     6     5    1
    10     6     7    1
    11     8    10    1
    12    10    12    1
    13     5     4    1
    14    21    20    1
    15    21    22    2
    16    12     7    1
    17    12    13    1
    18    20    19    1
    19    28    29    1
    20    28    27    1
    21     3     1    2
    22    24    27    1
    23    24    23    1
    24    24    25    1
    25    29    30    1
    26    29    31    1
    27    22    13    1
    28    22    16    1
    29     4     1    1
    30    13    14    1
    31    23     1    1
    32    19    17    2
    33    30    35    1
    34     1     2    1
    35    31    32    1
    36    31    33    1
    37    16    17    1
    38    16    15    2
    39    17    18    1
    40    14    15    1
    41    35    33    1
    42    35    36    1
    43    41    39   am
    44    33    34    1
    45    37    36    1
    46    37    38    1
    47    36    44    1
    48    39    38    1
    49    39    40    2
    50    38    42    2
    51    44    43    2
    52    42    43    1
