@<TRIPOS>MOLECULE
1e92_HBI_A_1.pdb
 17 18 0 0 0
SMALL
GASTEIGER

@<TRIPOS>ATOM
      1  N1        -2.3450   31.0580   63.3300 N.2   1290  HBI1290    -0.2672
      2  N2        -2.2030   29.1270   62.0380 N.pl3 1290  HBI1290    -0.0220
      3  C2        -2.9950   30.1700   62.5730 C.1   1290  HBI1290     0.2609
      4  N3        -4.3100   30.1850   62.2810 N.2   1290  HBI1290    -0.2466
      5  C4        -5.0730   31.1730   62.7800 C.1   1290  HBI1290     0.2569
      6  O4        -6.4030   31.1750   62.4760 O.2   1290  HBI1290    -0.2052
      7  C4A       -4.4970   32.2110   63.6260 C.2   1290  HBI1290     0.2989
      8  C8A       -3.0590   32.0850   63.8700 C.1   1290  HBI1290     0.1401
      9  N8        -2.3480   33.0720   64.6940 N.2   1290  HBI1290    -0.1992
     10  C7        -3.2090   34.0920   65.4440 C.3   1290  HBI1290     0.1940
     11  C6        -4.7190   34.2090   65.0110 C.2   1290  HBI1290     0.1466
     12  N5        -5.2520   33.2970   64.1960 N.2   1290  HBI1290    -0.3830
     13  C9        -5.5790   35.3380   65.5520 C.3   1290  HBI1290     0.2313
     14  O9        -6.5310   35.7640   64.5020 O.3   1290  HBI1290    -0.2130
     15  C10       -6.3010   34.9460   66.9060 C.3   1290  HBI1290     0.1888
     16  O10       -6.5860   36.1160   67.7650 O.3   1290  HBI1290    -0.2200
     17  C11       -7.6460   34.1460   66.6600 C.3   1290  HBI1290     0.0387
@<TRIPOS>BOND
     1     2     3    1
     2     4     3    2
     3     4     5    2
     4     6     5    2
     5     3     1    2
     6     5     7    1
     7     1     8    2
     8     7     8    1
     9     7    12    2
    10     8     9    2
    11    12    11    2
    12    14    13    1
    13     9    10    1
    14    11    10    1
    15    11    13    1
    16    13    15    1
    17    17    15    1
    18    15    16    1
