@<TRIPOS>MOLECULE
1e94_ANP_E_1.pdb
 31 33 0 0 0
SMALL
GASTEIGER

@<TRIPOS>ATOM
      1  PG       -14.4950  125.5950  -37.8430 P.3   500  ANP500      0.4884
      2  O1G      -14.3120  125.5490  -39.5640 O.2   500  ANP500     -0.2331
      3  O2G      -15.9200  124.8080  -37.4250 O.3   500  ANP500     -0.1240
      4  O3G      -13.0450  125.0320  -37.0670 O.3   500  ANP500     -0.1240
      5  PB       -15.3480  128.6200  -37.4090 P.3   500  ANP500      0.4669
      6  O1B      -16.6050  128.4410  -36.8370 O.3   500  ANP500     -0.1253
      7  O2B      -15.2540  128.9030  -38.7860 O.2   500  ANP500     -0.2351
      8  N3B      -14.4380  127.3630  -37.2350 N.3   500  ANP500     -0.0163
      9  PA       -14.7330  130.5810  -35.4090 P.3   500  ANP500      0.2220
     10  O1A      -16.0290  131.0270  -35.3240 O.2   500  ANP500     -0.5170
     11  O2A      -14.2520  129.7240  -34.2770 O.3   500  ANP500     -0.4370
     12  O3A      -14.5970  129.7660  -36.7360 O.3   500  ANP500     -0.2360
     13  O5'      -13.6230  131.6440  -35.4860 O.3   500  ANP500     -0.3111
     14  C5'      -13.4610  132.8090  -36.2110 C.3   500  ANP500      0.1813
     15  C4'      -12.9750  133.8520  -35.2910 C.3   500  ANP500      0.1821
     16  O4'      -13.5450  135.1240  -35.5810 O.3   500  ANP500     -0.3135
     17  C3'      -13.2910  133.5920  -33.7640 C.3   500  ANP500      0.2184
     18  O3'      -12.0610  133.4220  -33.2610 O.3   500  ANP500     -0.2174
     19  C2'      -13.9730  134.7100  -33.1920 C.3   500  ANP500      0.2570
     20  O2'      -13.1060  135.3420  -32.2160 O.3   500  ANP500     -0.2130
     21  C1'      -14.1350  135.6900  -34.3430 C.3   500  ANP500      0.3186
     22  N9       -15.6670  136.2860  -34.4170 N.pl3 500  ANP500     -0.1439
     23  C8       -16.5240  137.3550  -33.5740 C.3   500  ANP500      0.3377
     24  N7       -17.8610  137.5640  -33.9890 N.2   500  ANP500     -0.2095
     25  C5       -17.7850  136.6520  -35.0550 C.2   500  ANP500      0.2526
     26  C6       -18.6800  136.2230  -35.9790 C.2   500  ANP500      0.4393
     27  N6       -19.9240  136.6380  -35.9590 N.pl3 500  ANP500      0.2180
     28  N1       -18.2120  135.2490  -36.9880 N.2   500  ANP500      0.0021
     29  C2       -16.8290  134.7190  -36.9950 C.3   500  ANP500      0.5254
     30  N3       -15.9360  134.9700  -36.1950 N.2   500  ANP500     -0.0055
     31  C4       -16.4310  135.9080  -35.2870 C.2   500  ANP500      0.3518
@<TRIPOS>BOND
     1     2     1    2
     2     7     5    2
     3     1     3    1
     4     1     8    1
     5     1     4    1
     6     5     8    1
     7     5     6    1
     8     5    12    1
     9    29    28    1
    10    29    30    1
    11    28    26    2
    12    12     9    1
    13    14    13    1
    14    14    15    1
    15    30    31    2
    16    26    27    1
    17    26    25    1
    18    16    15    1
    19    16    21    1
    20    13     9    1
    21     9    10    2
    22     9    11    1
    23    15    17    1
    24    31    25    1
    25    31    22    1
    26    25    24    2
    27    22    21    1
    28    22    23    1
    29    21    19    1
    30    24    23    1
    31    17    18    1
    32    17    19    1
    33    19    20    1
