@<TRIPOS>MOLECULE
1e98_ATM_A_1.pdb
 23 24 0 0 0
SMALL
GASTEIGER

@<TRIPOS>ATOM
      1  P         12.7860   71.6070   26.8680 P.3   301  ATM301      0.5327
      2  OP1       12.3880   72.0480   28.2360 O.3   301  ATM301     -0.1145
      3  OP2       11.5530   71.3780   25.9820 O.2   301  ATM301     -0.2224
      4  OP3       13.7270   70.4000   26.9010 O.3   301  ATM301     -0.1145
      5  O5'       13.4160   72.8150   26.0350 O.3   301  ATM301     -0.2676
      6  C5'       14.6160   73.4730   26.3320 C.3   301  ATM301      0.1853
      7  C4'       14.6900   74.9960   26.3540 C.3   301  ATM301      0.1724
      8  O4'       14.6520   75.8510   25.2250 O.3   301  ATM301     -0.3345
      9  C3'       13.7340   75.5820   27.3640 C.3   301  ATM301      0.1731
     10  N3'       14.6740   76.3000   28.3120 N.2   301  ATM301     -0.0969
     11  N4'       14.1920   76.2900   29.4580 N.2   301  ATM301     -0.1663
     12  N5'       13.4760   76.0770   30.3190 N.2   301  ATM301      0.0678
     13  C2'       12.8470   76.5350   26.5450 C.3   301  ATM301      0.0819
     14  C1'       13.7800   76.9350   25.3890 C.3   301  ATM301      0.2085
     15  N1        13.3410   77.3960   24.0690 N.am  301  ATM301     -0.1794
     16  C2        13.7540   78.7070   23.6780 C.1   301  ATM301      0.2844
     17  O2        14.4220   79.4290   24.4310 O.2   301  ATM301     -0.1918
     18  N3        13.3320   79.1430   22.4450 N.2   301  ATM301     -0.2455
     19  C4        12.5800   78.3170   21.6380 C.1   301  ATM301      0.2134
     20  O4        12.2170   78.7830   20.3830 O.2   301  ATM301     -0.2088
     21  C5        12.1890   76.9470   22.0780 C.2   301  ATM301      0.0891
     22  C5A       11.3690   76.0700   21.1900 C.3   301  ATM301      0.0462
     23  C6        12.6130   76.5190   23.3290 C.2   301  ATM301      0.0877
@<TRIPOS>BOND
     1    20    19    2
     2    22    21    1
     3    19    21    1
     4    19    18    2
     5    21    23    2
     6    18    16    2
     7    23    15    1
     8    16    15   am
     9    16    17    2
    10    15    14    1
    11     8    14    1
    12     8     7    1
    13    14    13    1
    14     3     1    2
    15     5     6    1
    16     5     1    1
    17     6     7    1
    18     7     9    1
    19    13     9    1
    20     1     4    1
    21     1     2    1
    22     9    10    1
    23    10    11    2
    24    11    12    2
