@<TRIPOS>MOLECULE
1e98_ADP_A_1.pdb
 27 29 0 0 0
SMALL
GASTEIGER

@<TRIPOS>ATOM
      1  PB         8.1640   69.2570   30.8090 P.3   214  ADP214      0.5373
      2  O1B        6.9710   70.1520   30.8730 O.3   214  ADP214     -0.1143
      3  O2B        8.4800   68.6830   29.4700 O.2   214  ADP214     -0.2221
      4  O3B        9.4180   69.8920   31.4360 O.3   214  ADP214     -0.1143
      5  PA         8.0390   66.4940   31.8210 P.3   214  ADP214      0.2231
      6  O1A        9.4100   66.1810   31.4180 O.3   214  ADP214     -0.4370
      7  O2A        6.8740   65.8660   31.0910 O.2   214  ADP214     -0.5169
      8  O3A        7.7290   68.0830   31.8650 O.3   214  ADP214     -0.2261
      9  O5'        7.7640   66.1180   33.3300 O.3   214  ADP214     -0.3111
     10  C5'        8.5510   66.6450   34.4270 C.3   214  ADP214      0.1813
     11  C4'        8.6820   65.6130   35.5430 C.3   214  ADP214      0.1821
     12  O4'        7.4050   65.6400   36.1850 O.3   214  ADP214     -0.3135
     13  C3'        8.9370   64.1620   35.1110 C.3   214  ADP214      0.2184
     14  O3'        9.4890   63.4650   36.2240 O.3   214  ADP214     -0.2174
     15  C2'        7.4950   63.6580   34.9300 C.3   214  ADP214      0.2570
     16  O2'        7.3450   62.2860   35.1710 O.3   214  ADP214     -0.2130
     17  C1'        6.7780   64.4090   36.0710 C.3   214  ADP214      0.3186
     18  N9         5.3490   64.6480   35.7760 N.pl3 214  ADP214     -0.1439
     19  C8         4.8180   65.0330   34.5610 C.3   214  ADP214      0.3377
     20  N7         3.5160   65.2800   34.6310 N.2   214  ADP214     -0.2095
     21  C5         3.1670   65.0130   35.9600 C.2   214  ADP214      0.2526
     22  C6         1.9430   65.0740   36.6080 C.2   214  ADP214      0.4393
     23  N6         0.8000   65.4110   36.0930 N.pl3 214  ADP214      0.2180
     24  N1         2.0510   64.7360   37.9070 N.2   214  ADP214      0.0021
     25  C2         3.1610   64.3690   38.5360 C.3   214  ADP214      0.5254
     26  N3         4.3630   64.2780   37.9620 N.2   214  ADP214     -0.0055
     27  C4         4.2740   64.6260   36.6950 C.2   214  ADP214      0.3518
@<TRIPOS>BOND
     1     3     1    2
     2     1     2    1
     3     1     4    1
     4     1     8    1
     5     7     5    2
     6     6     5    1
     7     5     8    1
     8     5     9    1
     9     9    10    1
    10    10    11    1
    11    19    20    1
    12    19    18    1
    13    20    21    2
    14    15    13    1
    15    15    16    1
    16    15    17    1
    17    13    11    1
    18    13    14    1
    19    11    12    1
    20    18    17    1
    21    18    27    1
    22    21    22    1
    23    21    27    1
    24    17    12    1
    25    23    22    1
    26    22    24    2
    27    27    26    2
    28    24    25    1
    29    26    25    1
