@<TRIPOS>MOLECULE
1e99_ADP_A_1.pdb
 27 29 0 0 0
SMALL
GASTEIGER

@<TRIPOS>ATOM
      1  PB         8.0900   69.2960   30.7990 P.3   302  ADP302      0.5373
      2  O1B        6.9140   70.2170   30.8330 O.3   302  ADP302     -0.1143
      3  O2B        8.3720   68.7180   29.4650 O.2   302  ADP302     -0.2221
      4  O3B        9.3380   69.9430   31.4400 O.3   302  ADP302     -0.1143
      5  PA         7.9640   66.5070   31.7610 P.3   302  ADP302      0.2231
      6  O1A        9.3440   66.1350   31.3980 O.3   302  ADP302     -0.4370
      7  O2A        6.8510   65.8890   30.9670 O.2   302  ADP302     -0.5169
      8  O3A        7.6980   68.0860   31.8230 O.3   302  ADP302     -0.2261
      9  O5'        7.7010   66.1250   33.2830 O.3   302  ADP302     -0.3111
     10  C5'        8.4950   66.6640   34.3610 C.3   302  ADP302      0.1813
     11  C4'        8.5820   65.5530   35.4410 C.3   302  ADP302      0.1821
     12  O4'        7.3190   65.5690   36.1190 O.3   302  ADP302     -0.3135
     13  C3'        8.8180   64.1440   34.9230 C.3   302  ADP302      0.2184
     14  O3'        9.5760   63.4460   35.9210 O.3   302  ADP302     -0.2174
     15  C2'        7.3840   63.5690   34.8730 C.3   302  ADP302      0.2570
     16  O2'        7.2880   62.1870   35.1070 O.3   302  ADP302     -0.2130
     17  C1'        6.6890   64.3270   36.0150 C.3   302  ADP302      0.3186
     18  N9         5.2630   64.5990   35.7220 N.pl3 302  ADP302     -0.1439
     19  C8         4.7550   65.0030   34.5060 C.3   302  ADP302      0.3377
     20  N7         3.4510   65.2210   34.5640 N.2   302  ADP302     -0.2095
     21  C5         3.1090   64.9590   35.9060 C.2   302  ADP302      0.2526
     22  C6         1.8740   65.0210   36.5480 C.2   302  ADP302      0.4393
     23  N6         0.7600   65.3720   35.9890 N.pl3 302  ADP302      0.2180
     24  N1         1.9720   64.6960   37.8400 N.2   302  ADP302      0.0021
     25  C2         3.0780   64.3410   38.4990 C.3   302  ADP302      0.5254
     26  N3         4.2880   64.2600   37.9360 N.2   302  ADP302     -0.0055
     27  C4         4.1900   64.5950   36.6530 C.2   302  ADP302      0.3518
@<TRIPOS>BOND
     1     3     1    2
     2     1     2    1
     3     1     4    1
     4     1     8    1
     5     7     5    2
     6     6     5    1
     7     5     8    1
     8     5     9    1
     9     9    10    1
    10    10    11    1
    11    19    20    1
    12    19    18    1
    13    20    21    2
    14    15    13    1
    15    15    16    1
    16    15    17    1
    17    13    11    1
    18    13    14    1
    19    11    12    1
    20    18    17    1
    21    18    27    1
    22    21    22    1
    23    21    27    1
    24    23    22    1
    25    17    12    1
    26    22    24    2
    27    27    26    2
    28    24    25    1
    29    26    25    1
