@<TRIPOS>MOLECULE
1e99_ATM_A_1.pdb
 23 24 0 0 0
SMALL
GASTEIGER

@<TRIPOS>ATOM
      1  P         12.6440   71.7060   26.7250 P.3   301  ATM301      0.5327
      2  OP1       12.3600   72.2490   28.1220 O.3   301  ATM301     -0.1145
      3  OP2       11.4350   71.4990   25.8860 O.2   301  ATM301     -0.2224
      4  OP3       13.6700   70.6260   26.8980 O.3   301  ATM301     -0.1145
      5  O5'       13.3470   72.9660   25.9350 O.3   301  ATM301     -0.2676
      6  C5'       14.6320   73.4380   26.2750 C.3   301  ATM301      0.1853
      7  C4'       14.7180   74.9870   26.2380 C.3   301  ATM301      0.1724
      8  O4'       14.5730   75.7590   25.0570 O.3   301  ATM301     -0.3345
      9  C3'       13.7360   75.5450   27.2510 C.3   301  ATM301      0.1731
     10  N3'       14.5580   76.2170   28.3060 N.2   301  ATM301     -0.0969
     11  N4'       13.9520   76.3270   29.3860 N.2   301  ATM301     -0.1663
     12  N5'       13.6400   76.2610   30.4840 N.2   301  ATM301      0.0678
     13  C2'       12.8600   76.5150   26.4240 C.3   301  ATM301      0.0819
     14  C1'       13.8280   76.9230   25.2940 C.3   301  ATM301      0.2085
     15  N1        13.3420   77.4890   24.0340 N.am  301  ATM301     -0.1794
     16  C2        13.7890   78.7610   23.6340 C.1   301  ATM301      0.2844
     17  O2        14.4660   79.4910   24.3490 O.2   301  ATM301     -0.1918
     18  N3        13.3550   79.1310   22.3780 N.2   301  ATM301     -0.2455
     19  C4        12.5810   78.3200   21.5810 C.1   301  ATM301      0.2134
     20  O4        12.2120   78.7730   20.3540 O.2   301  ATM301     -0.2088
     21  C5        12.1600   76.9780   22.0480 C.2   301  ATM301      0.0891
     22  C5A       11.3160   76.0880   21.2120 C.3   301  ATM301      0.0462
     23  C6        12.5870   76.6230   23.3110 C.2   301  ATM301      0.0877
@<TRIPOS>BOND
     1    20    19    2
     2    22    21    1
     3    19    21    1
     4    19    18    2
     5    21    23    2
     6    18    16    2
     7    23    15    1
     8    16    15   am
     9    16    17    2
    10    15    14    1
    11     8    14    1
    12     8     7    1
    13    14    13    1
    14     3     1    2
    15     5     6    1
    16     5     1    1
    17     7     6    1
    18     7     9    1
    19    13     9    1
    20     1     4    1
    21     1     2    1
    22     9    10    1
    23    10    11    2
    24    11    12    2
