@<TRIPOS>MOLECULE
1e9b_ADP_A_1.pdb
 27 29 0 0 0
SMALL
GASTEIGER

@<TRIPOS>ATOM
      1  PB         7.9480   68.7270   30.8790 P.3   302  ADP302      0.5373
      2  O1B        6.9580   69.8040   30.9720 O.3   302  ADP302     -0.1143
      3  O2B        8.1500   68.1460   29.5340 O.2   302  ADP302     -0.2221
      4  O3B        9.3560   69.1650   31.5100 O.3   302  ADP302     -0.1143
      5  PA         7.8630   65.9760   31.9440 P.3   302  ADP302      0.2231
      6  O1A        6.8010   65.2230   31.1880 O.2   302  ADP302     -0.5169
      7  O2A        9.2790   65.7960   31.5600 O.3   302  ADP302     -0.4370
      8  O3A        7.4230   67.5470   31.8800 O.3   302  ADP302     -0.2261
      9  O5'        7.5700   65.6770   33.4630 O.3   302  ADP302     -0.3111
     10  C5'        8.4300   66.2040   34.4850 C.3   302  ADP302      0.1813
     11  C4'        8.5430   65.1650   35.6010 C.3   302  ADP302      0.1821
     12  O4'        7.3030   65.1450   36.2930 O.3   302  ADP302     -0.3135
     13  C3'        8.8670   63.7380   35.1890 C.3   302  ADP302      0.2184
     14  O3'        9.6030   63.2030   36.2730 O.3   302  ADP302     -0.2174
     15  C2'        7.4500   63.1210   35.1230 C.3   302  ADP302      0.2570
     16  O2'        7.3770   61.7530   35.4000 O.3   302  ADP302     -0.2130
     17  C1'        6.7090   63.8870   36.2160 C.3   302  ADP302      0.3186
     18  N9         5.2850   64.1200   35.9020 N.pl3 302  ADP302     -0.1439
     19  C8         4.7480   64.4990   34.6920 C.3   302  ADP302      0.3377
     20  N7         3.4480   64.7120   34.7740 N.2   302  ADP302     -0.2095
     21  C5         3.1240   64.4550   36.1250 C.2   302  ADP302      0.2526
     22  C6         1.9230   64.5030   36.8280 C.2   302  ADP302      0.4393
     23  N6         0.7760   64.8240   36.3190 N.pl3 302  ADP302      0.2180
     24  N1         2.0540   64.1800   38.1300 N.2   302  ADP302      0.0021
     25  C2         3.1950   63.8410   38.7360 C.3   302  ADP302      0.5254
     26  N3         4.3740   63.7730   38.1210 N.2   302  ADP302     -0.0055
     27  C4         4.2320   64.0970   36.8510 C.2   302  ADP302      0.3518
@<TRIPOS>BOND
     1     3     1    2
     2     1     2    1
     3     1     4    1
     4     1     8    1
     5     6     5    2
     6     7     5    1
     7     8     5    1
     8     5     9    1
     9     9    10    1
    10    10    11    1
    11    19    20    1
    12    19    18    1
    13    20    21    2
    14    15    13    1
    15    15    16    1
    16    15    17    1
    17    13    11    1
    18    13    14    1
    19    11    12    1
    20    18    17    1
    21    18    27    1
    22    21    22    1
    23    21    27    1
    24    17    12    1
    25    23    22    1
    26    22    24    2
    27    27    26    2
    28    26    25    1
    29    24    25    1
