@<TRIPOS>MOLECULE
1e9b_ANP_A_1.pdb
 31 33 0 0 0
SMALL
GASTEIGER

@<TRIPOS>ATOM
      1  PG        10.3030   70.4340   30.8370 P.3   303  ANP303      0.4884
      2  O1G       11.5170   70.2420   31.6400 O.3   303  ANP303     -0.1240
      3  O2G        9.6400   71.8030   30.9600 O.3   303  ANP303     -0.1240
      4  O3G       10.3590   69.8700   29.4860 O.2   303  ANP303     -0.2331
      5  PB         7.9280   68.6730   30.9790 P.3   303  ANP303      0.4669
      6  O1B        6.6570   69.3930   31.0810 O.3   303  ANP303     -0.1253
      7  O2B        8.3470   68.2400   29.6500 O.2   303  ANP303     -0.2351
      8  N3B        9.1530   69.5640   31.7090 N.3   303  ANP303     -0.0163
      9  PA         7.7640   65.9490   31.8610 P.3   303  ANP303      0.2220
     10  O1A        6.6270   65.4150   31.1010 O.2   303  ANP303     -0.5170
     11  O2A        9.1500   65.5790   31.4150 O.3   303  ANP303     -0.4370
     12  O3A        7.6620   67.5180   32.0280 O.3   303  ANP303     -0.2360
     13  O5'        7.6570   65.4920   33.4060 O.3   303  ANP303     -0.3111
     14  C5'        8.5060   66.0780   34.4290 C.3   303  ANP303      0.1813
     15  C4'        8.6370   65.0610   35.5600 C.3   303  ANP303      0.1821
     16  O4'        7.4340   65.1350   36.3060 O.3   303  ANP303     -0.3135
     17  C3'        8.7550   63.6200   35.0520 C.3   303  ANP303      0.2184
     18  O3'        9.4430   62.7190   35.9680 O.3   303  ANP303     -0.2174
     19  C2'        7.3370   63.1400   34.9900 C.3   303  ANP303      0.2570
     20  O2'        7.1950   61.7050   35.2660 O.3   303  ANP303     -0.2130
     21  C1'        6.7240   63.9020   36.1790 C.3   303  ANP303      0.3186
     22  N9         5.2980   64.1710   35.9090 N.pl3 303  ANP303     -0.1439
     23  C8         4.7360   64.5530   34.7110 C.3   303  ANP303      0.3377
     24  N7         3.4530   64.7410   34.8070 N.2   303  ANP303     -0.2095
     25  C5         3.1520   64.4660   36.1260 C.2   303  ANP303      0.2526
     26  C6         1.9320   64.4830   36.8520 C.2   303  ANP303      0.4393
     27  N6         0.7320   64.8070   36.3200 N.pl3 303  ANP303      0.2180
     28  N1         2.0310   64.1540   38.1460 N.2   303  ANP303      0.0021
     29  C2         3.2110   63.8380   38.6850 C.3   303  ANP303      0.5254
     30  N3         4.4000   63.7820   38.1180 N.2   303  ANP303     -0.0055
     31  C4         4.2760   64.1280   36.8130 C.2   303  ANP303      0.3518
@<TRIPOS>BOND
     1     4     1    2
     2     7     5    2
     3     1     3    1
     4     1     2    1
     5     1     8    1
     6     5     6    1
     7     5     8    1
     8     5    12    1
     9    10     9    2
    10    11     9    1
    11     9    12    1
    12     9    13    1
    13    13    14    1
    14    14    15    1
    15    23    24    1
    16    23    22    1
    17    24    25    2
    18    19    17    1
    19    19    20    1
    20    19    21    1
    21    17    15    1
    22    17    18    1
    23    15    16    1
    24    22    21    1
    25    22    31    1
    26    25    31    1
    27    25    26    1
    28    21    16    1
    29    27    26    1
    30    31    30    2
    31    26    28    2
    32    30    29    1
    33    28    29    1
