@<TRIPOS>MOLECULE
1e9b_ATM_A_1.pdb
 23 24 0 0 0
SMALL
GASTEIGER

@<TRIPOS>ATOM
      1  P         13.3170   70.6590   26.6190 P.3   301  ATM301      0.5327
      2  OP1       13.3870   69.9290   27.8940 O.3   301  ATM301     -0.1145
      3  OP2       11.9780   70.7840   25.9830 O.3   301  ATM301     -0.1145
      4  OP3       14.4310   70.2170   25.5620 O.2   301  ATM301     -0.2224
      5  O5'       13.8370   72.1590   26.8580 O.3   301  ATM301     -0.2676
      6  C5'       13.9850   73.0100   25.6830 C.3   301  ATM301      0.1853
      7  C4'       14.4420   74.4180   26.1540 C.3   301  ATM301      0.1724
      8  O4'       14.5580   75.4480   25.1870 O.3   301  ATM301     -0.3345
      9  C3'       13.5430   74.9120   27.2460 C.3   301  ATM301      0.1731
     10  N3'       14.3540   75.5630   28.3400 N.2   301  ATM301     -0.0969
     11  N4'       13.8420   75.4440   29.4550 N.2   301  ATM301     -0.1663
     12  N5'       13.6070   75.5430   30.5750 N.2   301  ATM301      0.0678
     13  C2'       12.6310   75.9290   26.5020 C.3   301  ATM301      0.0819
     14  C1'       13.5850   76.4400   25.4080 C.3   301  ATM301      0.2085
     15  N1        13.1160   76.8820   24.1020 N.am  301  ATM301     -0.1794
     16  C2        13.5410   78.1670   23.7050 C.1   301  ATM301      0.2844
     17  O2        14.2040   78.8950   24.4530 O.2   301  ATM301     -0.1918
     18  N3        13.1140   78.5430   22.4640 N.2   301  ATM301     -0.2455
     19  C4        12.3710   77.6850   21.6500 C.1   301  ATM301      0.2134
     20  O4        12.0130   78.1100   20.4130 O.2   301  ATM301     -0.2088
     21  C5        11.9870   76.3350   22.1220 C.2   301  ATM301      0.0891
     22  C5A       11.1700   75.4560   21.2360 C.3   301  ATM301      0.0462
     23  C6        12.3990   75.9760   23.3870 C.2   301  ATM301      0.0877
@<TRIPOS>BOND
     1    20    19    2
     2    22    21    1
     3    19    21    1
     4    19    18    2
     5    21    23    2
     6    18    16    2
     7    23    15    1
     8    16    15   am
     9    16    17    2
    10    15    14    1
    11     8    14    1
    12     8     7    1
    13    14    13    1
    14     4     1    2
    15     6     7    1
    16     6     5    1
    17     3     1    1
    18     7     9    1
    19    13     9    1
    20     1     5    1
    21     1     2    1
    22     9    10    1
    23    10    11    2
    24    11    12    2
