@<TRIPOS>MOLECULE
1e9c_TMP_A_1.pdb
 21 22 0 0 0
SMALL
GASTEIGER

@<TRIPOS>ATOM
      1  C4'       14.6070   75.2290   25.9960 C.3   301  TMP301      0.1774
      2  O4'       14.5580   76.0990   24.8660 O.3   301  TMP301     -0.3339
      3  C3'       13.5700   75.6820   27.0180 C.3   301  TMP301      0.1857
      4  O3'       14.2220   76.4860   27.9940 O.3   301  TMP301     -0.2203
      5  C2'       12.6580   76.5960   26.1930 C.3   301  TMP301      0.0874
      6  C1'       13.6440   77.1470   25.1420 C.3   301  TMP301      0.2090
      7  N1        13.2430   77.7450   23.8930 N.am  301  TMP301     -0.1794
      8  C2        13.6690   79.0730   23.5650 C.1   301  TMP301      0.2844
      9  O2        14.3250   79.7990   24.3280 O.2   301  TMP301     -0.1918
     10  N3        13.2630   79.4110   22.2910 N.2   301  TMP301     -0.2455
     11  C4        12.5000   78.6270   21.4560 C.1   301  TMP301      0.2134
     12  O4        12.1410   79.0220   20.1690 O.2   301  TMP301     -0.2088
     13  C5        12.1240   77.2260   21.8640 C.2   301  TMP301      0.0891
     14  C5M       11.3190   76.4410   20.8830 C.3   301  TMP301      0.0462
     15  C6        12.5070   76.9030   23.1080 C.2   301  TMP301      0.0877
     16  P         12.4980   72.0910   26.5440 P.3   301  TMP301      0.5327
     17  O1P       12.2340   72.5710   27.9220 O.3   301  TMP301     -0.1145
     18  O2P       11.3300   71.7950   25.6800 O.2   301  TMP301     -0.2224
     19  O3P       13.6430   70.9540   26.5000 O.3   301  TMP301     -0.1145
     20  O5'       13.2840   73.2290   25.7380 O.3   301  TMP301     -0.2675
     21  C5'       14.6270   73.6980   25.8160 C.3   301  TMP301      0.1858
@<TRIPOS>BOND
     1    12    11    2
     2    14    13    1
     3    11    13    1
     4    11    10    2
     5    13    15    2
     6    10     8    2
     7    15     7    1
     8     8     7   am
     9     8     9    2
    10     7     6    1
    11     2     6    1
    12     2     1    1
    13     6     5    1
    14    18    16    2
    15    20    21    1
    16    20    16    1
    17    21     1    1
    18     1     3    1
    19     5     3    1
    20    19    16    1
    21    16    17    1
    22     3     4    1
