@<TRIPOS>MOLECULE
1e9c_ANP_A_1.pdb
 31 33 0 0 0
SMALL
GASTEIGER

@<TRIPOS>ATOM
      1  PG        10.9010   71.0440   29.9370 P.3   303  ANP303      0.4884
      2  O1G       12.0910   71.0960   30.8310 O.3   303  ANP303     -0.1240
      3  O2G       10.2320   72.3770   29.7690 O.3   303  ANP303     -0.1240
      4  O3G       11.1890   70.2690   28.7150 O.2   303  ANP303     -0.2331
      5  PB         8.3720   69.4400   30.3840 P.3   303  ANP303      0.4669
      6  O1B        7.1960   70.3140   30.6590 O.3   303  ANP303     -0.1253
      7  O2B        8.4290   68.9320   29.0160 O.2   303  ANP303     -0.2351
      8  N3B        9.7880   70.2000   30.8300 N.3   303  ANP303     -0.0163
      9  PA         7.8910   66.8280   31.4610 P.3   303  ANP303      0.2220
     10  O1A        6.6880   66.4160   30.7620 O.2   303  ANP303     -0.5170
     11  O2A        9.1660   66.2090   30.9430 O.3   303  ANP303     -0.4370
     12  O3A        8.1370   68.3840   31.5260 O.3   303  ANP303     -0.2360
     13  O5'        7.8410   66.4910   33.0320 O.3   303  ANP303     -0.3111
     14  C5'        8.7350   67.0570   34.0150 C.3   303  ANP303      0.1813
     15  C4'        9.0460   66.0400   35.0990 C.3   303  ANP303      0.1821
     16  O4'        7.9730   66.0420   36.0280 O.3   303  ANP303     -0.3135
     17  C3'        9.1450   64.6040   34.5630 C.3   303  ANP303      0.2184
     18  O3'        9.9770   63.7460   35.3930 O.3   303  ANP303     -0.2174
     19  C2'        7.7210   64.1370   34.5970 C.3   303  ANP303      0.2570
     20  O2'        7.5300   62.7140   34.8600 O.3   303  ANP303     -0.2130
     21  C1'        7.1700   64.8660   35.8470 C.3   303  ANP303      0.3186
     22  N9         5.7570   65.2300   35.5860 N.pl3 303  ANP303     -0.1439
     23  C8         5.1690   65.3850   34.3550 C.3   303  ANP303      0.3377
     24  N7         3.8680   65.4420   34.4100 N.2   303  ANP303     -0.2095
     25  C5         3.5750   65.3100   35.7480 C.2   303  ANP303      0.2526
     26  C6         2.3270   65.2920   36.4330 C.2   303  ANP303      0.4393
     27  N6         1.1380   65.4020   35.8040 N.pl3 303  ANP303      0.2180
     28  N1         2.4130   65.1680   37.7600 N.2   303  ANP303      0.0021
     29  C2         3.6060   65.0470   38.3450 C.3   303  ANP303      0.5254
     30  N3         4.8170   65.0450   37.8260 N.2   303  ANP303     -0.0055
     31  C4         4.7190   65.1950   36.4840 C.2   303  ANP303      0.3518
@<TRIPOS>BOND
     1     4     1    2
     2     7     5    2
     3     3     1    1
     4     1     8    1
     5     1     2    1
     6     5     6    1
     7     5     8    1
     8     5    12    1
     9    10     9    2
    10    11     9    1
    11     9    12    1
    12     9    13    1
    13    13    14    1
    14    14    15    1
    15    23    24    1
    16    23    22    1
    17    24    25    2
    18    17    19    1
    19    17    15    1
    20    17    18    1
    21    19    20    1
    22    19    21    1
    23    15    16    1
    24    22    21    1
    25    22    31    1
    26    25    26    1
    27    25    31    1
    28    27    26    1
    29    21    16    1
    30    26    28    2
    31    31    30    2
    32    28    29    1
    33    30    29    1
