@<TRIPOS>MOLECULE
1e9c_ADP_A_1.pdb
 27 29 0 0 0
SMALL
GASTEIGER

@<TRIPOS>ATOM
      1  PB         8.3200   69.6240   30.3340 P.3   302  ADP302      0.5373
      2  O1B        7.2070   70.6180   30.3210 O.3   302  ADP302     -0.1143
      3  O2B        8.6780   69.0610   29.0170 O.2   302  ADP302     -0.2221
      4  O3B        9.6440   70.1620   31.0260 O.3   302  ADP302     -0.1143
      5  PA         8.1550   66.8590   31.3690 P.3   302  ADP302      0.2231
      6  O1A        9.5550   66.6200   31.0040 O.3   302  ADP302     -0.4370
      7  O2A        7.0480   66.1410   30.6560 O.2   302  ADP302     -0.5169
      8  O3A        7.7680   68.4350   31.3050 O.3   302  ADP302     -0.2261
      9  O5'        7.9370   66.5940   32.9130 O.3   302  ADP302     -0.3111
     10  C5'        8.7820   67.2170   33.8960 C.3   302  ADP302      0.1813
     11  C4'        8.8690   66.3010   35.1160 C.3   302  ADP302      0.1821
     12  O4'        7.5980   66.2460   35.7420 O.3   302  ADP302     -0.3135
     13  C3'        9.2980   64.8700   34.8410 C.3   302  ADP302      0.2184
     14  O3'        9.9440   64.4260   36.0130 O.3   302  ADP302     -0.2174
     15  C2'        7.9170   64.1580   34.7900 C.3   302  ADP302      0.2570
     16  O2'        7.9090   62.8260   35.1830 O.3   302  ADP302     -0.2130
     17  C1'        7.1590   64.9290   35.8810 C.3   302  ADP302      0.3186
     18  N9         5.7100   64.9350   35.6180 N.pl3 302  ADP302     -0.1439
     19  C8         5.1080   65.1360   34.3950 C.3   302  ADP302      0.3377
     20  N7         3.8220   65.4100   34.5070 N.2   302  ADP302     -0.2095
     21  C5         3.5660   65.3670   35.8970 C.2   302  ADP302      0.2526
     22  C6         2.4000   65.5650   36.6410 C.2   302  ADP302      0.4393
     23  N6         1.2410   65.8230   36.1220 N.pl3 302  ADP302      0.2180
     24  N1         2.5980   65.4540   37.9700 N.2   302  ADP302      0.0021
     25  C2         3.7610   65.1690   38.5630 C.3   302  ADP302      0.5254
     26  N3         4.9040   64.9660   37.9120 N.2   302  ADP302     -0.0055
     27  C4         4.7060   65.0970   36.6150 C.2   302  ADP302      0.3518
@<TRIPOS>BOND
     1     3     1    2
     2     2     1    1
     3     1     4    1
     4     1     8    1
     5     7     5    2
     6     6     5    1
     7     8     5    1
     8     5     9    1
     9     9    10    1
    10    10    11    1
    11    19    20    1
    12    19    18    1
    13    20    21    2
    14    15    13    1
    15    15    16    1
    16    15    17    1
    17    13    11    1
    18    13    14    1
    19    11    12    1
    20    18    17    1
    21    18    27    1
    22    12    17    1
    23    21    27    1
    24    21    22    1
    25    23    22    1
    26    27    26    2
    27    22    24    2
    28    26    25    1
    29    24    25    1
