@<TRIPOS>MOLECULE
1e9d_ATM_A_1.pdb
 23 24 0 0 0
SMALL
GASTEIGER

@<TRIPOS>ATOM
      1  P         12.8990   72.1410   26.2210 P.3   301  ATM301      0.5327
      2  OP1       12.7100   72.5180   27.6480 O.3   301  ATM301     -0.1145
      3  OP2       11.6260   71.8640   25.4890 O.2   301  ATM301     -0.2224
      4  OP3       14.0240   71.1350   26.0490 O.3   301  ATM301     -0.1145
      5  O5'       13.4630   73.4850   25.4610 O.3   301  ATM301     -0.2676
      6  C5'       14.7910   73.9080   25.8420 C.3   301  ATM301      0.1853
      7  C4'       14.8570   75.4680   25.9640 C.3   301  ATM301      0.1724
      8  O4'       14.7100   76.2190   24.7710 O.3   301  ATM301     -0.3345
      9  C3'       13.8440   75.9620   26.9480 C.3   301  ATM301      0.1731
     10  N3'       14.5440   76.7180   28.0600 N.2   301  ATM301     -0.0969
     11  N4'       13.8420   76.9160   29.0510 N.2   301  ATM301     -0.1663
     12  N5'       13.1570   77.0900   29.9450 N.2   301  ATM301      0.0678
     13  C2'       12.9290   76.9240   26.1350 C.3   301  ATM301      0.0819
     14  C1'       13.8950   77.3420   24.9880 C.3   301  ATM301      0.2085
     15  N1        13.4000   77.9110   23.7550 N.am  301  ATM301     -0.1794
     16  C2        13.8130   79.2260   23.3910 C.1   301  ATM301      0.2844
     17  O2        14.4910   79.9290   24.1460 O.2   301  ATM301     -0.1918
     18  N3        13.3730   79.5880   22.1400 N.2   301  ATM301     -0.2455
     19  C4        12.6320   78.7830   21.2880 C.1   301  ATM301      0.2134
     20  O4        12.2190   79.1790   20.0540 O.2   301  ATM301     -0.2088
     21  C5        12.2300   77.4050   21.7430 C.2   301  ATM301      0.0891
     22  C5A       11.4360   76.4970   20.8780 C.3   301  ATM301      0.0462
     23  C6        12.7070   77.0560   22.9660 C.2   301  ATM301      0.0877
@<TRIPOS>BOND
     1    20    19    2
     2    22    21    1
     3    19    21    1
     4    19    18    2
     5    21    23    2
     6    18    16    2
     7    23    15    1
     8    16    15   am
     9    16    17    2
    10    15    14    1
    11     8    14    1
    12     8     7    1
    13    14    13    1
    14     5     6    1
    15     5     1    1
    16     3     1    2
    17     6     7    1
    18     7     9    1
    19     4     1    1
    20    13     9    1
    21     1     2    1
    22     9    10    1
    23    10    11    2
    24    11    12    2
