@<TRIPOS>MOLECULE
1e9d_ADP_A_1.pdb
 27 29 0 0 0
SMALL
GASTEIGER

@<TRIPOS>ATOM
      1  PB         8.4930   69.6830   30.2600 P.3   302  ADP302      0.5373
      2  O1B        7.3760   70.6950   30.4100 O.3   302  ADP302     -0.1143
      3  O2B        8.7800   69.0310   28.9990 O.2   302  ADP302     -0.2221
      4  O3B        9.8280   70.2450   30.9010 O.3   302  ADP302     -0.1143
      5  PA         8.2300   66.9770   31.4330 P.3   302  ADP302      0.2231
      6  O1A        9.6020   66.5980   31.0840 O.3   302  ADP302     -0.4370
      7  O2A        7.0950   66.2920   30.7340 O.2   302  ADP302     -0.5169
      8  O3A        8.0310   68.5740   31.3960 O.3   302  ADP302     -0.2261
      9  O5'        8.0250   66.7160   32.9830 O.3   302  ADP302     -0.3111
     10  C5'        8.9140   67.2230   34.0030 C.3   302  ADP302      0.1813
     11  C4'        9.0250   66.2010   35.1560 C.3   302  ADP302      0.1821
     12  O4'        7.7810   66.2250   35.8530 O.3   302  ADP302     -0.3135
     13  C3'        9.3120   64.7930   34.6680 C.3   302  ADP302      0.2184
     14  O3'       10.0600   64.0690   35.6280 O.3   302  ADP302     -0.2174
     15  C2'        7.8610   64.2340   34.6390 C.3   302  ADP302      0.2570
     16  O2'        7.7520   62.8830   34.9040 O.3   302  ADP302     -0.2130
     17  C1'        7.1980   64.9560   35.8020 C.3   302  ADP302      0.3186
     18  N9         5.7510   65.1550   35.5500 N.pl3 302  ADP302     -0.1439
     19  C8         5.1680   65.4510   34.3260 C.3   302  ADP302      0.3377
     20  N7         3.8700   65.6790   34.4140 N.2   302  ADP302     -0.2095
     21  C5         3.5890   65.5340   35.7930 C.2   302  ADP302      0.2526
     22  C6         2.3950   65.6540   36.5210 C.2   302  ADP302      0.4393
     23  N6         1.2650   65.9060   35.9450 N.pl3 302  ADP302      0.2180
     24  N1         2.5710   65.4310   37.8370 N.2   302  ADP302      0.0021
     25  C2         3.7310   65.1710   38.4380 C.3   302  ADP302      0.5254
     26  N3         4.8930   65.0260   37.7990 N.2   302  ADP302     -0.0055
     27  C4         4.7200   65.2430   36.5170 C.2   302  ADP302      0.3518
@<TRIPOS>BOND
     1     3     1    2
     2     1     2    1
     3     1     4    1
     4     1     8    1
     5     7     5    2
     6     6     5    1
     7     8     5    1
     8     5     9    1
     9     9    10    1
    10    10    11    1
    11    19    20    1
    12    19    18    1
    13    20    21    2
    14    15    13    1
    15    15    16    1
    16    15    17    1
    17    13    11    1
    18    13    14    1
    19    11    12    1
    20    18    17    1
    21    18    27    1
    22    21    27    1
    23    21    22    1
    24    17    12    1
    25    23    22    1
    26    27    26    2
    27    22    24    2
    28    26    25    1
    29    24    25    1
