@<TRIPOS>MOLECULE
1e9e_ADP_A_1.pdb
 27 29 0 0 0
SMALL
GASTEIGER

@<TRIPOS>ATOM
      1  PB         8.3670   69.3240   30.1600 P.3   302  ADP302      0.5373
      2  O1B        7.2710   70.3200   30.1660 O.3   302  ADP302     -0.1143
      3  O2B        8.6780   68.7260   28.8380 O.2   302  ADP302     -0.2221
      4  O3B        9.6870   69.8750   30.8090 O.3   302  ADP302     -0.1143
      5  PA         8.0980   66.5880   31.2600 P.3   302  ADP302      0.2231
      6  O1A        9.4480   66.2150   30.7900 O.3   302  ADP302     -0.4370
      7  O2A        6.9430   65.9340   30.5640 O.2   302  ADP302     -0.5169
      8  O3A        7.8570   68.1850   31.2150 O.3   302  ADP302     -0.2261
      9  O5'        7.9060   66.3290   32.8060 O.3   302  ADP302     -0.3111
     10  C5'        8.8060   66.9450   33.7520 C.3   302  ADP302      0.1813
     11  C4'        8.9970   65.9660   34.9340 C.3   302  ADP302      0.1821
     12  O4'        7.7780   65.9500   35.6580 O.3   302  ADP302     -0.3135
     13  C3'        9.3250   64.5390   34.5500 C.3   302  ADP302      0.2184
     14  O3'       10.0170   63.8980   35.6190 O.3   302  ADP302     -0.2174
     15  C2'        7.8960   63.9220   34.4910 C.3   302  ADP302      0.2570
     16  O2'        7.7890   62.5530   34.7690 O.3   302  ADP302     -0.2130
     17  C1'        7.2250   64.6700   35.6410 C.3   302  ADP302      0.3186
     18  N9         5.7770   64.8510   35.3800 N.pl3 302  ADP302     -0.1439
     19  C8         5.1890   65.0600   34.1530 C.3   302  ADP302      0.3377
     20  N7         3.8800   65.2480   34.2820 N.2   302  ADP302     -0.2095
     21  C5         3.6320   65.1660   35.6620 C.2   302  ADP302      0.2526
     22  C6         2.4570   65.2800   36.3980 C.2   302  ADP302      0.4393
     23  N6         1.2730   65.4950   35.9010 N.pl3 302  ADP302      0.2180
     24  N1         2.6470   65.1270   37.7260 N.2   302  ADP302      0.0021
     25  C2         3.8390   64.9020   38.2830 C.3   302  ADP302      0.5254
     26  N3         5.0020   64.7750   37.6620 N.2   302  ADP302     -0.0055
     27  C4         4.7840   64.9280   36.3650 C.2   302  ADP302      0.3518
@<TRIPOS>BOND
     1     3     1    2
     2     1     2    1
     3     1     4    1
     4     1     8    1
     5     7     5    2
     6     6     5    1
     7     8     5    1
     8     5     9    1
     9     9    10    1
    10    10    11    1
    11    19    20    1
    12    19    18    1
    13    20    21    2
    14    15    13    1
    15    15    16    1
    16    15    17    1
    17    13    11    1
    18    13    14    1
    19    11    12    1
    20    18    17    1
    21    18    27    1
    22    17    12    1
    23    21    27    1
    24    21    22    1
    25    23    22    1
    26    27    26    2
    27    22    24    2
    28    26    25    1
    29    24    25    1
