@<TRIPOS>MOLECULE
1e9e_TMP_A_1.pdb
 21 22 0 0 0
SMALL
GASTEIGER

@<TRIPOS>ATOM
      1  P         12.8330   71.7070   26.1050 P.3   301  TMP301      0.5327
      2  O1P       12.5050   72.1250   27.5340 O.3   301  TMP301     -0.1145
      3  O2P       11.5720   71.4720   25.3590 O.2   301  TMP301     -0.2224
      4  O3P       13.8720   70.5590   26.1040 O.3   301  TMP301     -0.1145
      5  O5'       13.5010   72.9610   25.3970 O.3   301  TMP301     -0.2675
      6  C5'       14.8430   73.4310   25.6660 C.3   301  TMP301      0.1858
      7  C4'       14.7230   74.9570   25.7960 C.3   301  TMP301      0.1774
      8  O4'       14.6120   75.7410   24.6080 O.3   301  TMP301     -0.3339
      9  C3'       13.6880   75.4460   26.7750 C.3   301  TMP301      0.1857
     10  O3'       14.3240   76.1890   27.8030 O.3   301  TMP301     -0.2203
     11  C2'       12.8280   76.4340   25.9580 C.3   301  TMP301      0.0874
     12  C1'       13.8120   76.8540   24.8700 C.3   301  TMP301      0.2090
     13  N1        13.3240   77.4360   23.6340 N.am  301  TMP301     -0.1794
     14  C2        13.7080   78.7440   23.2890 C.1   301  TMP301      0.2844
     15  O2        14.3590   79.5050   23.9800 O.2   301  TMP301     -0.1918
     16  N3        13.2400   79.0930   22.0360 N.2   301  TMP301     -0.2455
     17  C4        12.5020   78.2510   21.2420 C.1   301  TMP301      0.2134
     18  O4        12.0810   78.6850   20.0010 O.2   301  TMP301     -0.2088
     19  C5        12.1400   76.8820   21.6950 C.2   301  TMP301      0.0891
     20  C5M       11.3630   75.9900   20.8210 C.3   301  TMP301      0.0462
     21  C6        12.6210   76.5470   22.9150 C.2   301  TMP301      0.0877
@<TRIPOS>BOND
     1    18    17    2
     2    20    19    1
     3    17    19    1
     4    17    16    2
     5    19    21    2
     6    16    14    2
     7    21    13    1
     8    14    13   am
     9    14    15    2
    10    13    12    1
    11     8    12    1
    12     8     7    1
    13    12    11    1
    14     3     1    2
    15     5     6    1
    16     5     1    1
    17     6     7    1
    18     7     9    1
    19    11     9    1
    20     4     1    1
    21     1     2    1
    22     9    10    1
