@<TRIPOS>MOLECULE
1e9f_ADP_A_1.pdb
 27 29 0 0 0
SMALL
GASTEIGER

@<TRIPOS>ATOM
      1  PB         7.9750   69.2380   30.5290 P.3   302  ADP302      0.5373
      2  O1B        6.7990   70.1520   30.5830 O.3   302  ADP302     -0.1143
      3  O2B        8.2460   68.5660   29.2500 O.2   302  ADP302     -0.2221
      4  O3B        9.2790   69.8920   31.0990 O.3   302  ADP302     -0.1143
      5  PA         7.8710   66.5010   31.6120 P.3   302  ADP302      0.2231
      6  O1A        9.2350   66.1550   31.1370 O.3   302  ADP302     -0.4370
      7  O2A        6.7010   65.8790   30.8970 O.2   302  ADP302     -0.5169
      8  O3A        7.6070   68.0730   31.6560 O.3   302  ADP302     -0.2261
      9  O5'        7.6740   66.1360   33.1560 O.3   302  ADP302     -0.3111
     10  C5'        8.6330   66.6790   34.1000 C.3   302  ADP302      0.1813
     11  C4'        8.7410   65.6610   35.2970 C.3   302  ADP302      0.1821
     12  O4'        7.5340   65.7080   36.0110 O.3   302  ADP302     -0.3135
     13  C3'        8.9670   64.2190   34.8650 C.3   302  ADP302      0.2184
     14  O3'        9.7320   63.5520   35.8880 O.3   302  ADP302     -0.2174
     15  C2'        7.5420   63.6630   34.9020 C.3   302  ADP302      0.2570
     16  O2'        7.4100   62.2780   35.1140 O.3   302  ADP302     -0.2130
     17  C1'        6.9040   64.4470   36.0420 C.3   302  ADP302      0.3186
     18  N9         5.4510   64.6120   35.7930 N.pl3 302  ADP302     -0.1439
     19  C8         4.8190   64.8440   34.5450 C.3   302  ADP302      0.3377
     20  N7         3.4990   65.0270   34.7160 N.2   302  ADP302     -0.2095
     21  C5         3.2810   64.8700   36.1010 C.2   302  ADP302      0.2526
     22  C6         2.1240   64.9510   36.8640 C.2   302  ADP302      0.4393
     23  N6         0.9360   65.1840   36.4000 N.pl3 302  ADP302      0.2180
     24  N1         2.3310   64.8150   38.1790 N.2   302  ADP302      0.0021
     25  C2         3.5060   64.5950   38.7700 C.3   302  ADP302      0.5254
     26  N3         4.6530   64.5040   38.0890 N.2   302  ADP302     -0.0055
     27  C4         4.4510   64.6750   36.7870 C.2   302  ADP302      0.3518
@<TRIPOS>BOND
     1     3     1    2
     2     1     2    1
     3     1     4    1
     4     1     8    1
     5     7     5    2
     6     6     5    1
     7     5     8    1
     8     5     9    1
     9     9    10    1
    10    10    11    1
    11    19    20    1
    12    19    18    1
    13    20    21    2
    14    13    15    1
    15    13    11    1
    16    13    14    1
    17    15    16    1
    18    15    17    1
    19    11    12    1
    20    18    17    1
    21    18    27    1
    22    12    17    1
    23    21    27    1
    24    21    22    1
    25    23    22    1
    26    27    26    2
    27    22    24    2
    28    26    25    1
    29    24    25    1
