@<TRIPOS>MOLECULE
1e9f_TMP_A_1.pdb
 21 22 0 0 0
SMALL
GASTEIGER

@<TRIPOS>ATOM
      1  P         12.3570   71.5290   26.1670 P.3   301  TMP301      0.5327
      2  O1P       12.6460   71.3040   27.6040 O.3   301  TMP301     -0.1145
      3  O2P       10.9630   71.4880   25.6630 O.3   301  TMP301     -0.1145
      4  O3P       13.3400   70.6260   25.2550 O.2   301  TMP301     -0.2224
      5  O5'       12.8860   72.9800   25.7340 O.3   301  TMP301     -0.2675
      6  C5'       14.2480   73.3720   26.0700 C.3   301  TMP301      0.1858
      7  C4'       14.2730   74.9060   26.2080 C.3   301  TMP301      0.1774
      8  O4'       14.2380   75.7090   25.0230 O.3   301  TMP301     -0.3339
      9  C3'       13.3220   75.4530   27.2520 C.3   301  TMP301      0.1857
     10  O3'       13.9710   76.1410   28.3020 O.3   301  TMP301     -0.2203
     11  C2'       12.4640   76.4370   26.4110 C.3   301  TMP301      0.0874
     12  C1'       13.3860   76.7890   25.2360 C.3   301  TMP301      0.2090
     13  N1        12.9030   77.3530   24.0030 N.am  301  TMP301     -0.1794
     14  C2        13.3550   78.6340   23.5730 C.1   301  TMP301      0.2844
     15  O2        14.0410   79.3280   24.3290 O.2   301  TMP301     -0.1918
     16  N3        12.9060   78.9770   22.3270 N.2   301  TMP301     -0.2455
     17  C4        12.1540   78.1770   21.5000 C.1   301  TMP301      0.2134
     18  O4        11.6750   78.4820   20.2320 O.2   301  TMP301     -0.2088
     19  C5        11.7080   76.8260   22.0510 C.2   301  TMP301      0.0891
     20  C5M       10.8620   75.9410   21.2020 C.3   301  TMP301      0.0462
     21  C6        12.1500   76.5140   23.2780 C.2   301  TMP301      0.0877
@<TRIPOS>BOND
     1    18    17    2
     2    20    19    1
     3    17    19    1
     4    17    16    2
     5    19    21    2
     6    16    14    2
     7    21    13    1
     8    14    13   am
     9    14    15    2
    10    13    12    1
    11     8    12    1
    12     8     7    1
    13    12    11    1
    14     4     1    2
    15     3     1    1
    16     5     6    1
    17     5     1    1
    18     6     7    1
    19     1     2    1
    20     7     9    1
    21    11     9    1
    22     9    10    1
