@<TRIPOS>MOLECULE
1e9h_INR_A_1.pdb
 24 27 0 0 0
SMALL
GASTEIGER

@<TRIPOS>ATOM
      1  C1         5.4790   42.2880   49.5910 C.2   1298  INR1298     0.1341
      2  C2         4.4740   42.6430   50.5070 C.2   1298  INR1298     0.0672
      3  C6         5.2510   41.3070   48.5890 C.2   1298  INR1298     0.0279
      4  N7         6.5960   42.9910   49.8150 N.2   1298  INR1298    -0.3978
      5  C3         3.1850   42.0410   50.4880 C.2   1298  INR1298    -0.0156
      6  C8         5.1390   43.6880   51.3530 C.2   1298  INR1298     0.2278
      7  C4         2.9390   41.0520   49.4890 C.3   1298  INR1298     0.0523
      8  C5         3.9620   40.6880   48.5490 C.2   1298  INR1298    -0.0188
      9  O10        4.6080   44.2600   52.2820 O.2   1298  INR1298    -0.2837
     10  C9         6.5140   43.8280   50.8300 C.2   1298  INR1298     0.1820
     11  C11        7.5750   44.6090   51.1860 C.2   1298  INR1298     0.1298
     12  C12        8.8950   44.5920   50.5140 C.1   1298  INR1298     0.2074
     13  C15        7.7760   45.6320   52.3030 C.ar  1298  INR1298     0.0464
     14  O13        9.1670   43.8860   49.5430 O.2   1298  INR1298    -0.2092
     15  N14        9.6940   45.4290   51.1040 N.2   1298  INR1298    -0.3328
     16  C16        9.1110   46.0470   52.1340 C.ar  1298  INR1298     0.1452
     17  C20        6.9910   46.1870   53.3550 C.ar  1298  INR1298     0.0223
     18  C19        7.5910   47.1560   54.2230 C.ar  1298  INR1298     0.1125
     19  C18        8.9410   47.5580   54.0400 C.ar  1298  INR1298     0.0215
     20  S21        6.5850   47.8190   55.5250 S.3   1298  INR1298     0.0421
     21  C17        9.7160   47.0060   52.9840 C.ar  1298  INR1298     0.0344
     22  O24        7.4830   48.7510   56.2540 O.3   1298  INR1298    -0.0650
     23  O23        6.1900   46.7450   56.4090 O.3   1298  INR1298    -0.0650
     24  O22        5.5630   48.6270   54.8910 O.3   1298  INR1298    -0.0650
@<TRIPOS>BOND
     1     8     3    2
     2     8     7    1
     3     3     1    1
     4     7     5    1
     5    14    12    2
     6     1     4    2
     7     1     2    1
     8     4    10    2
     9     5     2    2
    10     2     6    1
    11    12    15    2
    12    12    11    1
    13    10    11    1
    14    10     6    1
    15    15    16    2
    16    11    13    2
    17     6     9    2
    18    16    13   ar
    19    16    21   ar
    20    13    17   ar
    21    21    19   ar
    22    17    18   ar
    23    19    18   ar
    24    18    20    1
    25    24    20    1
    26    20    22    1
    27    20    23    1
