@<TRIPOS>MOLECULE
1e9j_NAG_A_1.pdb
 23 23 0 0 0
SMALL
GASTEIGER

@<TRIPOS>ATOM
      1  C1       -18.1120   -1.5940    3.3370 C.3   1078  NAG1078     0.1079
      2  C2       -19.6220   -1.5910    3.5410 C.3   1078  NAG1078     0.0801
      3  C3       -20.0500   -0.3260    4.2640 C.3   1078  NAG1078     0.1043
      4  C4       -19.2590   -0.1600    5.5490 C.3   1078  NAG1078     0.1118
      5  C5       -17.7620   -0.2390    5.2730 C.3   1078  NAG1078     0.1219
      6  C6       -16.9310   -0.2170    6.5410 C.3   1078  NAG1078     0.1622
      7  C7       -21.1010   -2.6670    1.9680 C.2   1078  NAG1078     0.2228
      8  C8       -21.7690   -2.6630    0.6030 C.3   1078  NAG1078     0.0946
      9  N2       -20.2860   -1.6560    2.2520 N.am  1078  NAG1078    -0.3068
     10  O3       -21.4330   -0.4100    4.5720 O.3   1078  NAG1078    -0.3872
     11  O4       -19.5610    1.1050    6.1220 O.3   1078  NAG1078    -0.3865
     12  O5       -17.4300   -1.4560    4.5910 O.3   1078  NAG1078    -0.3631
     13  O6       -17.2460   -1.3170    7.3820 O.3   1078  NAG1078    -0.3798
     14  O7       -21.3250   -3.5860    2.7570 O.2   1078  NAG1078    -0.2751
     15  H1       -17.8020   -0.7500    2.6910 H     1078  NAG1078     0.0642
     16  H2       -19.8990   -2.4800    4.1310 H     1078  NAG1078     0.0551
     17  H3       -19.8760    0.5350    3.5980 H     1078  NAG1078     0.0639
     18  H4       -19.5600   -0.9580    6.2480 H     1078  NAG1078     0.0647
     19  H5       -17.4650    0.6100    4.6430 H     1078  NAG1078     0.0654
     20  HN2      -20.1420   -0.9510    1.5860 H     1078  NAG1078     0.1492
     21  HO3      -21.7110    0.3990    5.0060 H     1078  NAG1078     0.2100
     22  HO4      -19.2370    1.8010    5.5450 H     1078  NAG1078     0.2100
     23  HO6      -18.1850   -1.3090    7.5800 H     1078  NAG1078     0.2105
@<TRIPOS>BOND
     1     8     7    1
     2    20     9    1
     3     7     9   am
     4     7    14    2
     5     9     2    1
     6    15     1    1
     7     1     2    1
     8     1    12    1
     9     2    16    1
    10     2     3    1
    11    17     3    1
    12     3    10    1
    13     3     4    1
    14    10    21    1
    15    12     5    1
    16    19     5    1
    17     5     4    1
    18     5     6    1
    19    22    11    1
    20     4    11    1
    21     4    18    1
    22     6    13    1
    23    13    23    1
