@<TRIPOS>MOLECULE
1e9l_GCS_A_1.pdb
 12 12 0 0 0
SMALL
GASTEIGER

@<TRIPOS>ATOM
      1  C1        43.2190   11.5710   10.1940 C.3   800  GCS800      0.2893
      2  C2        41.7520   11.0900   10.3230 C.3   800  GCS800      0.1836
      3  C3        41.5790    9.9410   11.3680 C.3   800  GCS800      0.2071
      4  C4        42.8310    9.2110   11.8850 C.3   800  GCS800      0.2133
      5  C5        43.9730   10.2490   11.9470 C.3   800  GCS800      0.1835
      6  C6        45.3050    9.7850   12.4270 C.3   800  GCS800      0.2142
      7  N2        40.9800   12.2960   10.7660 N.3   800  GCS800     -0.1247
      8  O1        43.3730   12.2130    9.0220 O.3   800  GCS800     -0.1882
      9  O3        40.6530    8.9030   10.8160 O.3   800  GCS800     -0.2186
     10  O4        42.4100    8.7700   13.2480 O.3   800  GCS800     -0.2176
     11  O5        44.1860   10.6580   10.6370 O.3   800  GCS800     -0.3244
     12  O6        45.5770    8.6890   11.4880 O.3   800  GCS800     -0.2176
@<TRIPOS>BOND
     1     8     1    1
     2     1     2    1
     3     1    11    1
     4     2     7    1
     5     2     3    1
     6    11     5    1
     7     9     3    1
     8     3     4    1
     9    12     6    1
    10     4     5    1
    11     4    10    1
    12     5     6    1
