@<TRIPOS>MOLECULE
1e9x_PIM_A_1.pdb
 11 12 0 0 0
SMALL
GASTEIGER

@<TRIPOS>ATOM
      1  N1       -15.2350   -3.0390   65.0420 N.2   470  PIM470     -0.2267
      2  C2       -15.4300   -3.9170   63.9790 C.2   470  PIM470      0.1943
      3  N3       -16.3410   -4.6900   64.2730 N.2   470  PIM470     -0.2436
      4  C4       -16.8060   -4.4170   65.4790 C.3   470  PIM470      0.1726
      5  C5       -16.1270   -3.3830   65.9860 C.2   470  PIM470      0.0853
      6  C6       -16.2610   -2.6770   67.3150 C.ar  470  PIM470      0.0156
      7  C7       -15.9760   -1.2740   67.3780 C.ar  470  PIM470      0.0012
      8  C8       -16.1070   -0.5960   68.6510 C.ar  470  PIM470      0.0000
      9  C9       -16.5130   -1.3420   69.7850 C.ar  470  PIM470      0.0000
     10  C10      -16.7950   -2.7320   69.7140 C.ar  470  PIM470      0.0000
     11  C11      -16.6550   -3.3720   68.4430 C.ar  470  PIM470      0.0012
@<TRIPOS>BOND
     1     2     3    2
     2     2     1    1
     3     3     4    1
     4     1     5    2
     5     4     5    1
     6     5     6    1
     7     6     7   ar
     8     6    11   ar
     9     7     8   ar
    10    11    10   ar
    11     8     9   ar
    12    10     9   ar
