@<TRIPOS>MOLECULE
1e9x_HEM_A_1.pdb
 43 50 0 0 0
SMALL
GASTEIGER

@<TRIPOS>ATOM
      1 FE        -16.8250   -6.6750   63.0150 Fe    460  HEM460      0.0000
      2  CHA      -18.2840   -7.7410   65.8960 C.2   460  HEM460      0.0000
      3  CHB      -13.8750   -8.0790   63.9700 C.2   460  HEM460      0.0000
      4  CHC      -15.3800   -5.6550   60.0780 C.2   460  HEM460      0.0000
      5  CHD      -19.7620   -5.2570   62.0370 C.2   460  HEM460      0.0000
      6  NA       -16.1870   -7.7180   64.6420 N.2   460  HEM460      0.0000
      7  C1A      -16.9500   -8.0590   65.7360 C.2   460  HEM460      0.0000
      8  C2A      -16.1150   -8.8010   66.6770 C.2   460  HEM460      0.0000
      9  C3A      -14.8870   -8.8850   66.1440 C.2   460  HEM460      0.0000
     10  C4A      -14.9120   -8.2150   64.8540 C.2   460  HEM460      0.0000
     11  CMA      -13.6470   -9.5600   66.7450 C.3   460  HEM460      0.0000
     12  CAA      -16.6030   -9.3680   68.0270 C.3   460  HEM460      0.0000
     13  CBA      -16.8290   -8.3060   69.1090 C.3   460  HEM460      0.0000
     14  CGA      -17.3380   -8.8730   70.4340 C.2   460  HEM460      0.0000
     15  O1A      -17.2840  -10.1450   70.5500 O.co2 460  HEM460      0.0000
     16  O2A      -17.7540   -8.0980   71.2870 O.co2 460  HEM460      0.0000
     17  NB       -14.9910   -6.8240   62.1750 N.ar  460  HEM460      0.0000
     18  C1B      -13.8920   -7.4560   62.7480 C.ar  460  HEM460      0.0000
     19  C2B      -12.7480   -7.3680   61.8510 C.ar  460  HEM460      0.0000
     20  C3B      -13.1650   -6.6870   60.7480 C.ar  460  HEM460      0.0000
     21  C4B      -14.5610   -6.3480   60.9540 C.ar  460  HEM460      0.0000
     22  CMB      -11.3650   -7.9580   62.1490 C.3   460  HEM460      0.0000
     23  CAB      -12.3750   -6.3010   59.4730 C.3   460  HEM460      0.0000
     24  CBB      -11.6980   -7.4670   58.7350 C.3   460  HEM460      0.0000
     25  NC       -17.4580   -5.6580   61.3890 N.2   460  HEM460      0.0000
     26  C1C      -16.7130   -5.3350   60.2770 C.2   460  HEM460      0.0000
     27  C2C      -17.5350   -4.5890   59.3050 C.2   460  HEM460      0.0000
     28  C3C      -18.7640   -4.4630   59.8520 C.2   460  HEM460      0.0000
     29  C4C      -18.7190   -5.1320   61.1490 C.2   460  HEM460      0.0000
     30  CMC      -16.9940   -4.0860   57.9370 C.3   460  HEM460      0.0000
     31  CAC      -20.0450   -3.7660   59.3120 C.3   460  HEM460      0.0000
     32  CBC      -20.4380   -4.0640   57.8590 C.3   460  HEM460      0.0000
     33  ND       -18.6440   -6.5270   63.8010 N.ar  460  HEM460      0.0000
     34  C1D      -19.7630   -5.8910   63.2530 C.ar  460  HEM460      0.0000
     35  C2D      -20.8960   -6.0060   64.1550 C.ar  460  HEM460      0.0000
     36  C3D      -20.4860   -6.7070   65.2320 C.ar  460  HEM460      0.0000
     37  C4D      -19.0870   -7.0300   65.0170 C.ar  460  HEM460      0.0000
     38  CMD      -22.3040   -5.4240   63.8960 C.3   460  HEM460      0.0000
     39  CAD      -21.3400   -7.0840   66.4500 C.3   460  HEM460      0.0000
     40  CBD      -21.9270   -8.5210   66.2920 C.3   460  HEM460      0.0000
     41  CGD      -22.7750   -8.9530   67.4720 C.2   460  HEM460      0.0000
     42  O1D      -23.7060   -9.7500   67.2900 O.co2 460  HEM460      0.0000
     43  O2D      -22.4550   -8.4730   68.5830 O.co2 460  HEM460      0.0000
@<TRIPOS>BOND
     1    32    31    1
     2    30    27    1
     3    24    23    1
     4    27    28    2
     5    27    26    1
     6    31    28    1
     7    23    20    1
     8    28    29    1
     9     4    26    2
    10     4    21    1
    11    26    25    1
    12    20    21   ar
    13    20    19   ar
    14    21    17   ar
    15    29    25    2
    16    29     5    1
    17    25     1    1
    18    19    22    1
    19    19    18   ar
    20     5    34    2
    21    17    18   ar
    22    17     1    1
    23    18     3    1
    24     1    33    1
    25     1     6    1
    26    34    33   ar
    27    34    35   ar
    28    33    37   ar
    29    38    35    1
    30     3    10    2
    31    35    36   ar
    32     6    10    1
    33     6     7    2
    34    10     9    1
    35    37    36   ar
    36    37     2    2
    37    36    39    1
    38     7     2    1
    39     7     8    1
    40     9     8    2
    41     9    11    1
    42    40    39    1
    43    40    41    1
    44     8    12    1
    45    42    41   ar
    46    41    43   ar
    47    12    13    1
    48    13    14    1
    49    14    15   ar
    50    14    16   ar
