@<TRIPOS>MOLECULE
1ea0_OMT_A_1.pdb
 11 10 0 0 0
SMALL
GASTEIGER

@<TRIPOS>ATOM
      1  N         58.9290  132.8770  104.2250 N.3   2473  OMT2473    -0.1208
      2  CA        60.2420  133.4230  103.9680 C.3   2473  OMT2473     0.1961
      3  CB        60.4360  134.8980  104.1810 C.3   2473  OMT2473     0.0559
      4  CG        60.8910  135.3850  105.4660 C.3   2473  OMT2473     0.1530
      5  SD        60.3740  136.9420  105.8750 S.O2  2473  OMT2473    -0.0082
      6  CE        61.3820  138.3300  106.4100 C.3   2473  OMT2473     0.1760
      7  C         61.3000  132.6940  104.7260 C.2   2473  OMT2473     0.3819
      8  O         60.9720  131.7010  105.5700 O.co2 2473  OMT2473    -0.2441
      9  OXT       62.5680  133.0070  104.4490 O.co2 2473  OMT2473    -0.2441
     10  OD1       59.4700  137.4920  104.7560 O.2   2473  OMT2473    -0.1729
     11  OD2       59.5580  136.7750  107.1910 O.2   2473  OMT2473    -0.1729
@<TRIPOS>BOND
     1     2     3    1
     2     2     1    1
     3     2     7    1
     4     3     4    1
     5     9     7   ar
     6     7     8   ar
     7    10     5    2
     8     4     5    1
     9     5     6    1
    10     5    11    2
