@<TRIPOS>MOLECULE
1ea0_FMN_A_1.pdb
 31 33 0 0 0
SMALL
GASTEIGER

@<TRIPOS>ATOM
      1  N1        36.0230  136.4110  120.6560 N.2   2474  FMN2474    -0.2887
      2  C2        36.5410  137.6700  120.3840 C.1   2474  FMN2474     0.3669
      3  O2        37.7150  137.8720  120.1820 O.2   2474  FMN2474    -0.1744
      4  N3        35.8140  138.8280  120.3280 N.2   2474  FMN2474    -0.2300
      5  C4        34.4610  138.7600  120.5120 C.1   2474  FMN2474     0.2513
      6  O4        33.7880  139.7950  120.4410 O.2   2474  FMN2474    -0.2057
      7  C4A       33.9000  137.5160  120.7720 C.2   2474  FMN2474     0.2703
      8  N5        32.5540  137.4710  120.9810 N.2   2474  FMN2474    -0.3882
      9  C5A       31.9290  136.3340  121.3860 C.2   2474  FMN2474     0.1277
     10  C6        30.5740  136.3160  121.6700 C.3   2474  FMN2474     0.0820
     11  C7        29.9640  135.1320  122.0030 C.2   2474  FMN2474    -0.0408
     12  C7M       28.5160  135.0200  122.2280 C.3   2474  FMN2474     0.0265
     13  C8        30.6820  133.9820  122.0620 C.2   2474  FMN2474    -0.0280
     14  C8M       30.0030  132.7180  122.4450 C.3   2474  FMN2474     0.0304
     15  C9        32.0370  134.0060  121.7990 C.2   2474  FMN2474     0.0123
     16  C9A       32.6670  135.1920  121.4680 C.2   2474  FMN2474     0.0793
     17  N10       34.0220  135.2180  121.2910 N.pl3 2474  FMN2474    -0.2545
     18  C10       34.6650  136.3690  120.9080 C.2   2474  FMN2474     0.2449
     19  C1'       34.7630  134.0310  121.8270 C.3   2474  FMN2474     0.1336
     20  C2'       35.0920  134.0570  123.3110 C.3   2474  FMN2474     0.2048
     21  O2'       35.7610  135.2650  123.4970 O.3   2474  FMN2474    -0.2185
     22  C3'       35.9940  132.8830  123.7050 C.3   2474  FMN2474     0.2165
     23  O3'       37.0880  132.7710  122.8330 O.3   2474  FMN2474    -0.2175
     24  C4'       35.1260  131.6550  123.6060 C.3   2474  FMN2474     0.2147
     25  O4'       33.9390  132.3220  123.8030 O.3   2474  FMN2474    -0.2176
     26  C5'       35.0330  130.8080  124.8390 C.3   2474  FMN2474     0.1892
     27  O5'       34.5190  129.5620  124.4740 O.3   2474  FMN2474    -0.2674
     28  P         33.6770  128.7120  125.5030 P.3   2474  FMN2474     0.5327
     29  O1P       32.4930  129.4680  124.9320 O.2   2474  FMN2474    -0.2224
     30  O2P       33.3960  127.2920  125.2360 O.3   2474  FMN2474    -0.1145
     31  O3P       33.4820  129.1800  126.9530 O.3   2474  FMN2474    -0.1145
@<TRIPOS>BOND
     1     3     2    2
     2     4     2    2
     3     4     5    2
     4     2     1    2
     5     6     5    2
     6     5     7    1
     7     1    18    2
     8     7    18    1
     9     7     8    2
    10    18    17    1
    11     8     9    2
    12    17    16    1
    13    17    19    1
    14     9    16    1
    15     9    10    1
    16    16    15    2
    17    10    11    1
    18    15    13    1
    19    19    20    1
    20    11    13    2
    21    11    12    1
    22    13    14    1
    23    23    22    1
    24    20    21    1
    25    20    22    1
    26    24    22    1
    27    24    25    1
    28    24    26    1
    29    27    26    1
    30    27    28    1
    31    29    28    2
    32    30    28    1
    33    28    31    1
