@<TRIPOS>MOLECULE
1ea0_AKG_A_1.pdb
 10 9 0 0 0
SMALL
GASTEIGER

@<TRIPOS>ATOM
      1  C1        30.9670  136.5260  117.6170 C.2   2475  AKG2475     0.3946
      2  O1        31.0360  135.3150  117.0380 O.co2 2475  AKG2475    -0.2428
      3  O2        30.6090  136.6540  118.8650 O.co2 2475  AKG2475    -0.2428
      4  C2        31.2390  137.8950  116.9510 C.3   2475  AKG2475     0.2545
      5  O5        31.8560  137.8470  115.7540 O.3   2475  AKG2475    -0.2109
      6  C3        30.7550  139.2170  117.5730 C.3   2475  AKG2475     0.0565
      7  C4        31.2200  140.1890  116.4880 C.3   2475  AKG2475     0.1173
      8  C5        30.6530  141.5730  116.5350 C.2   2475  AKG2475     0.3650
      9  O3        31.0770  142.4740  115.6120 O.co2 2475  AKG2475    -0.2457
     10  O4        29.8220  141.8460  117.5480 O.co2 2475  AKG2475    -0.2457
@<TRIPOS>BOND
     1     9     8   ar
     2     5     4    1
     3     7     8    1
     4     7     6    1
     5     8    10   ar
     6     4     6    1
     7     4     1    1
     8     2     1   ar
     9     1     3   ar
