@<TRIPOS>MOLECULE
1ea1_HEM_A_1.pdb
 43 50 0 0 0
SMALL
GASTEIGER

@<TRIPOS>ATOM
      1 FE        -16.7940   -7.0070   62.7810 Fe    460  HEM460      0.0000
      2  CHA      -18.2070   -7.9600   65.7150 C.2   460  HEM460      0.0000
      3  CHB      -13.7500   -8.0930   63.9010 C.2   460  HEM460      0.0000
      4  CHC      -15.3280   -6.0240   59.8370 C.2   460  HEM460      0.0000
      5  CHD      -19.8060   -5.8800   61.6520 C.2   460  HEM460      0.0000
      6  NA       -16.1030   -7.8780   64.4960 N.2   460  HEM460      0.0000
      7  C1A      -16.8540   -8.1940   65.6000 C.2   460  HEM460      0.0000
      8  C2A      -15.9780   -8.8100   66.6100 C.2   460  HEM460      0.0000
      9  C3A      -14.7370   -8.8390   66.0960 C.2   460  HEM460      0.0000
     10  C4A      -14.7900   -8.2580   64.7670 C.2   460  HEM460      0.0000
     11  CMA      -13.4590   -9.3780   66.7570 C.3   460  HEM460      0.0000
     12  CAA      -16.4390   -9.3190   68.0010 C.3   460  HEM460      0.0000
     13  CBA      -16.8000   -8.2040   69.0020 C.3   460  HEM460      0.0000
     14  CGA      -17.1920   -8.7050   70.3990 C.2   460  HEM460      0.0000
     15  O1A      -17.1560   -9.9780   70.5730 O.co2 460  HEM460      0.0000
     16  O2A      -17.5060   -7.8800   71.2540 O.co2 460  HEM460      0.0000
     17  NB       -14.9180   -7.0430   62.0060 N.ar  460  HEM460      0.0000
     18  C1B      -13.7860   -7.5440   62.6470 C.ar  460  HEM460      0.0000
     19  C2B      -12.6290   -7.3990   61.7910 C.ar  460  HEM460      0.0000
     20  C3B      -13.0610   -6.8120   60.6400 C.ar  460  HEM460      0.0000
     21  C4B      -14.4840   -6.5960   60.7750 C.ar  460  HEM460      0.0000
     22  CMB      -11.2140   -7.8370   62.1690 C.3   460  HEM460      0.0000
     23  CAB      -12.2490   -6.4130   59.3830 C.3   460  HEM460      0.0000
     24  CBB      -11.4890   -7.5640   58.7100 C.3   460  HEM460      0.0000
     25  NC       -17.4510   -6.1320   61.0840 N.2   460  HEM460      0.0000
     26  C1C      -16.6940   -5.8090   59.9780 C.2   460  HEM460      0.0000
     27  C2C      -17.5380   -5.1890   58.9420 C.2   460  HEM460      0.0000
     28  C3C      -18.7910   -5.1430   59.4350 C.2   460  HEM460      0.0000
     29  C4C      -18.7450   -5.7300   60.7750 C.2   460  HEM460      0.0000
     30  CMC      -16.9960   -4.7080   57.5650 C.3   460  HEM460      0.0000
     31  CAC      -20.0880   -4.5980   58.7790 C.3   460  HEM460      0.0000
     32  CBC      -20.0370   -3.1160   58.3580 C.3   460  HEM460      0.0000
     33  ND       -18.6260   -6.9350   63.5260 N.ar  460  HEM460      0.0000
     34  C1D      -19.7830   -6.4250   62.9180 C.ar  460  HEM460      0.0000
     35  C2D      -20.9190   -6.5600   63.8220 C.ar  460  HEM460      0.0000
     36  C3D      -20.4690   -7.1450   64.9590 C.ar  460  HEM460      0.0000
     37  C4D      -19.0480   -7.3780   64.7760 C.ar  460  HEM460      0.0000
     38  CMD      -22.3660   -6.1030   63.5160 C.3   460  HEM460      0.0000
     39  CAD      -21.3120   -7.4830   66.2040 C.3   460  HEM460      0.0000
     40  CBD      -21.6490   -9.0060   66.3020 C.3   460  HEM460      0.0000
     41  CGD      -22.4800   -9.3470   67.5320 C.2   460  HEM460      0.0000
     42  O1D      -23.2800  -10.3040   67.4790 O.co2 460  HEM460      0.0000
     43  O2D      -22.2890   -8.6270   68.5460 O.co2 460  HEM460      0.0000
@<TRIPOS>BOND
     1    30    27    1
     2    32    31    1
     3    24    23    1
     4    31    28    1
     5    27    28    2
     6    27    26    1
     7    23    20    1
     8    28    29    1
     9     4    26    2
    10     4    21    1
    11    26    25    1
    12    20    21   ar
    13    20    19   ar
    14    29    25    2
    15    29     5    1
    16    21    17   ar
    17    25     1    1
    18     5    34    2
    19    19    22    1
    20    19    18   ar
    21    17    18   ar
    22    17     1    1
    23    18     3    1
    24     1    33    1
    25     1     6    1
    26    34    33   ar
    27    34    35   ar
    28    38    35    1
    29    33    37   ar
    30    35    36   ar
    31     3    10    2
    32     6    10    1
    33     6     7    2
    34    10     9    1
    35    37    36   ar
    36    37     2    2
    37    36    39    1
    38     7     2    1
    39     7     8    1
    40     9     8    2
    41     9    11    1
    42    39    40    1
    43    40    41    1
    44     8    12    1
    45    42    41   ar
    46    41    43   ar
    47    12    13    1
    48    13    14    1
    49    14    15   ar
    50    14    16   ar
