@<TRIPOS>MOLECULE
1ea1_TPF_A_1.pdb
 22 24 0 0 0
SMALL
GASTEIGER

@<TRIPOS>ATOM
      1  O        -16.9510   -4.2080   67.8460 O.3   470  TPF470     -0.2169
      2  C1       -17.0960   -2.8500   67.4040 C.3   470  TPF470      0.1922
      3  C2       -16.9380   -1.9320   68.6540 C.3   470  TPF470      0.1658
      4  C5       -15.9830   -2.5480   66.3790 C.3   470  TPF470      0.1658
      5  C8       -18.5370   -2.6850   66.7860 C.ar  470  TPF470      0.0365
      6  N1       -15.5810   -2.0330   69.2360 N.ar  470  TPF470     -0.2271
      7  C3       -15.2040   -2.7320   70.3240 C.ar  470  TPF470      0.1973
      8  N3       -14.4060   -1.4040   68.7540 N.ar  470  TPF470     -0.1451
      9  N2       -13.9070   -2.5540   70.5040 N.ar  470  TPF470     -0.2007
     10  C4       -13.4240   -1.7510   69.5550 C.ar  470  TPF470      0.2210
     11  N4       -16.1180   -3.3700   65.1910 N.ar  470  TPF470     -0.2271
     12  C6       -15.9260   -4.6900   65.0740 C.ar  470  TPF470      0.1973
     13  N6       -16.4840   -2.9070   63.9180 N.ar  470  TPF470     -0.1451
     14  N5       -16.1550   -5.0180   63.8370 N.ar  470  TPF470     -0.2007
     15  C7       -16.4920   -3.9390   63.1340 C.ar  470  TPF470      0.2210
     16  C9       -19.4230   -3.8020   66.7540 C.ar  470  TPF470      0.0027
     17  C13      -19.0080   -1.4230   66.2390 C.ar  470  TPF470      0.1408
     18  C10      -20.7230   -3.6800   66.2060 C.ar  470  TPF470      0.0295
     19  C11      -21.1710   -2.4430   65.6770 C.ar  470  TPF470      0.1424
     20  F1       -22.4240   -2.3370   65.1550 F     470  TPF470     -0.2041
     21  C12      -20.3140   -1.3210   65.6940 C.ar  470  TPF470      0.0590
     22  F2       -18.2280   -0.3310   66.2370 F     470  TPF470     -0.2043
@<TRIPOS>BOND
     1    15    14   ar
     2    15    13   ar
     3    14    12   ar
     4    13    11   ar
     5    12    11   ar
     6    20    19    1
     7    11     4    1
     8    19    21   ar
     9    19    18   ar
    10    21    17   ar
    11    18    16   ar
    12    22    17    1
    13    17     5   ar
    14     4     2    1
    15    16     5   ar
    16     5     2    1
    17     2     1    1
    18     2     3    1
    19     3     6    1
    20     8     6   ar
    21     8    10   ar
    22     6     7   ar
    23    10     9   ar
    24     7     9   ar
