@<TRIPOS>MOLECULE
1ea6_ADP_A_1.pdb
 27 29 0 0 0
SMALL
GASTEIGER

@<TRIPOS>ATOM
      1  PB        28.5260   60.0670   37.2170 P.3   1366  ADP1366     0.5373
      2  O1B       29.3620   59.4020   36.0310 O.2   1366  ADP1366    -0.2221
      3  O2B       27.6100   59.0990   37.9720 O.3   1366  ADP1366    -0.1143
      4  O3B       29.4700   60.9150   38.1940 O.3   1366  ADP1366    -0.1143
      5  PA        27.6010   62.3200   35.3770 P.3   1366  ADP1366     0.2231
      6  O1A       28.9080   63.0540   35.1920 O.2   1366  ADP1366    -0.5169
      7  O2A       26.3950   63.1700   35.4810 O.3   1366  ADP1366    -0.4370
      8  O3A       27.6090   61.2270   36.6770 O.3   1366  ADP1366    -0.2261
      9  O5'       27.3960   61.2560   34.2660 O.3   1366  ADP1366    -0.3111
     10  C5'       26.1560   60.5700   34.5290 C.3   1366  ADP1366     0.1813
     11  C4'       25.7740   59.5330   33.5940 C.3   1366  ADP1366     0.1821
     12  O4'       25.8400   60.1700   32.2730 O.3   1366  ADP1366    -0.3135
     13  C3'       26.6690   58.3130   33.5250 C.3   1366  ADP1366     0.2184
     14  O3'       26.1480   57.2850   34.4270 O.3   1366  ADP1366    -0.2174
     15  C2'       26.5750   57.9010   32.0060 C.3   1366  ADP1366     0.2570
     16  O2'       25.5070   56.9270   31.7700 O.3   1366  ADP1366    -0.2130
     17  C1'       26.2690   59.2650   31.2890 C.3   1366  ADP1366     0.3186
     18  N9        27.4940   59.8550   30.5730 N.pl3 1366  ADP1366    -0.1439
     19  C8        28.1650   60.9840   30.8350 C.3   1366  ADP1366     0.3377
     20  N7        29.1580   61.1660   30.0310 N.2   1366  ADP1366    -0.2095
     21  C5        29.1320   60.0570   29.1780 C.2   1366  ADP1366     0.2526
     22  C6        29.9250   59.5910   28.0430 C.2   1366  ADP1366     0.4393
     23  N6        31.0210   60.2720   27.5530 N.pl3 1366  ADP1366     0.2180
     24  N1        29.5590   58.4100   27.4440 N.2   1366  ADP1366     0.0021
     25  C2        28.5040   57.7300   27.9020 C.3   1366  ADP1366     0.5254
     26  N3        27.7210   58.0760   28.9360 N.2   1366  ADP1366    -0.0055
     27  C4        28.0850   59.2510   29.5240 C.2   1366  ADP1366     0.3518
@<TRIPOS>BOND
     1    24    25    1
     2    24    22    2
     3    23    22    1
     4    25    26    1
     5    22    21    1
     6    26    27    2
     7    21    27    1
     8    21    20    2
     9    27    18    1
    10    20    19    1
    11    18    19    1
    12    18    17    1
    13    17    15    1
    14    17    12    1
    15    16    15    1
    16    15    13    1
    17    12    11    1
    18    13    11    1
    19    13    14    1
    20    11    10    1
    21     9    10    1
    22     9     5    1
    23     6     5    2
    24     5     7    1
    25     5     8    1
    26     2     1    2
    27     8     1    1
    28     1     3    1
    29     1     4    1
