@<TRIPOS>MOLECULE
1eah_SC4_1_1.pdb
 27 29 0 0 0
SMALL
GASTEIGER

@<TRIPOS>ATOM
      1  C1        23.6750   85.8530   94.0490 C.ar  999  SC4999      0.0401
      2  C2        22.4410   86.4070   94.3180 C.ar  999  SC4999      0.0409
      3  C3        21.8840   86.3440   95.6250 C.ar  999  SC4999      0.1497
      4  C4        22.6040   85.7030   96.6800 C.ar  999  SC4999      0.0945
      5 CL1        21.9570   85.6240   98.3270 Cl    999  SC4999     -0.0790
      6 CL2        11.3450   86.2760   95.4600 Cl    999  SC4999     -0.0791
      7 CL3        14.5980   85.5730   99.9620 Cl    999  SC4999     -0.0791
      8  C5        23.8600   85.1390   96.3910 C.ar  999  SC4999      0.0513
      9  C6        24.4060   85.2140   95.0570 C.ar  999  SC4999      0.1398
     10  O1        20.6450   86.9170   95.8310 O.3   999  SC4999     -0.4698
     11  C7        19.8170   87.1470   94.6740 C.3   999  SC4999      0.2320
     12  C10       16.1120   87.9250   94.7920 C.ar  999  SC4999     -0.0009
     13  C11       15.7500   87.2930   95.9810 C.ar  999  SC4999      0.0211
     14  C12       16.7030   86.6200   96.7310 C.ar  999  SC4999     -0.0009
     15  C13       18.0140   86.5740   96.3050 C.ar  999  SC4999     -0.0009
     16  C8        18.3860   87.2060   95.1150 C.ar  999  SC4999      0.0211
     17  C9        17.4350   87.8800   94.3590 C.ar  999  SC4999     -0.0009
     18  O3        25.6480   84.6170   94.8700 O.3   999  SC4999     -0.4714
     19  C21       26.4980   84.8840   93.7350 C.3   999  SC4999      0.2525
     20  C14       14.3400   87.3370   96.4550 C.3   999  SC4999      0.2321
     21  O2        14.0050   86.0570   96.9950 O.3   999  SC4999     -0.4689
     22  C16       11.5600   86.0750   97.1920 C.ar  999  SC4999      0.0924
     23  C17       10.4210   85.9920   98.0130 C.ar  999  SC4999      0.0145
     24  C18       10.5600   85.7970   99.4180 C.ar  999  SC4999      0.0019
     25  C19       11.8550   85.6830  100.0100 C.ar  999  SC4999      0.0145
     26  C20       13.0160   85.7620   99.2080 C.ar  999  SC4999      0.0924
     27  C15       12.8810   85.9670   97.7860 C.ar  999  SC4999      0.1599
@<TRIPOS>BOND
     1    19    18    1
     2     1     2   ar
     3     1     9   ar
     4     2     3   ar
     5    17    12   ar
     6    17    16   ar
     7    11    16    1
     8    11    10    1
     9    12    13   ar
    10    18     9    1
    11     9     8   ar
    12    16    15   ar
    13     6    22    1
    14     3    10    1
    15     3     4   ar
    16    13    20    1
    17    13    14   ar
    18    15    14   ar
    19     8     4   ar
    20    20    21    1
    21     4     5    1
    22    21    27    1
    23    22    27   ar
    24    22    23   ar
    25    27    26   ar
    26    23    24   ar
    27    26     7    1
    28    26    25   ar
    29    24    25   ar
