@<TRIPOS>MOLECULE
1eak_III_P_1.pdb
 44 45 0 0 0
SMALL
GASTEIGER

@<TRIPOS>ATOM
      1  N         42.9910   65.4970    0.8500 N.3   746  GLY746     -0.1210
      2  CA        42.4200   66.3460   -0.1880 C.3   746  GLY746      0.1940
      3  C         41.9040   67.3640    0.8400 C.2   746  GLY746      0.2454
      4  O         41.9250   67.1080    2.0450 O.2   746  GLY746     -0.2732
      5  N         41.4150   68.5700    0.6500 N.am  747  PRO747     -0.2717
      6  CA        40.9970   69.3300    1.8320 C.3   747  PRO747      0.1535
      7  C         39.9380   68.5530    2.6130 C.2   747  PRO747      0.2598
      8  O         40.2590   67.6330    3.3710 O.2   747  PRO747     -0.2715
      9  CB        40.4210   70.6050    1.2390 C.3   747  PRO747      0.0310
     10  CG        41.0600   70.7060   -0.1050 C.3   747  PRO747      0.0237
     11  CD        41.2370   69.2920   -0.6020 C.3   747  PRO747      0.0939
     12  N         38.6830   68.9320    2.4070 N.am  748  ALA748     -0.1964
     13  CA        37.5470   68.2810    3.0540 C.3   748  ALA748      0.1728
     14  C         37.9850   67.3590    4.1850 C.2   748  ALA748      0.2617
     15  O         37.9080   67.7220    5.3600 O.2   748  ALA748     -0.2715
     16  CB        36.7390   67.4980    2.0300 C.3   748  ALA748      0.0334
     17  N         38.4330   66.1630    3.8240 N.am  749  GLY749     -0.1941
     18  CA        38.8900   65.2000    4.8010 C.3   749  GLY749      0.1998
     19  C         38.3460   63.8090    4.5160 C.2   749  GLY749      0.2481
     20  O         37.2660   63.6510    3.9440 O.2   749  GLY749     -0.2729
     21  N         39.1010   62.7810    4.9080 N.am  750  PRO750     -0.2715
     22  CA        38.6760   61.4020    4.7360 C.3   750  PRO750      0.1521
     23  C         37.4430   61.1960    5.5730 C.2   750  PRO750      0.2440
     24  O         37.4010   61.5790    6.7350 O.2   750  PRO750     -0.2731
     25  CB        39.8370   60.5980    5.3370 C.3   750  PRO750      0.0310
     26  CG        40.9910   61.5370    5.3190 C.3   750  PRO750      0.0237
     27  CD        40.4100   62.8930    5.5530 C.3   750  PRO750      0.0939
     28  N         36.3870   60.5990    5.0490 N.am  751  PRO751     -0.2716
     29  CA        35.1710   60.4280    5.8380 C.3   751  PRO751      0.1536
     30  C         35.4590   59.6210    7.1090 C.2   751  PRO751      0.2599
     31  O         36.2020   58.6420    7.0720 O.2   751  PRO751     -0.2715
     32  CB        34.2580   59.6520    4.8830 C.3   751  PRO751      0.0310
     33  CG        34.8030   59.9360    3.5200 C.3   751  PRO751      0.0237
     34  CD        36.2850   60.0570    3.6910 C.3   751  PRO751      0.0939
     35  N         34.8870   60.0370    8.2560 N.am  752  GLY752     -0.1941
     36  CA        35.0810   59.3070    9.5200 C.3   752  GLY752      0.2014
     37  C         35.3330   60.2330   10.7330 C.2   752  GLY752      0.2638
     38  O         35.9290   61.3020   10.5940 O.2   752  GLY752     -0.2714
     39  N         34.8760   59.7940   11.9330 N.am  753  ALA753     -0.1977
     40  CA        35.0350   60.5610   13.1970 C.3   753  ALA753      0.1597
     41  C         35.4370   59.6630   14.3590 C.2   753  ALA753      0.2287
     42  O         34.9060   58.6620   14.6630 O.2   753  ALA753     -0.2864
     43  CB        33.7520   61.3070   13.5320 C.3   753  ALA753      0.0319
     44  OXT       36.0000   59.0000   19.0000 O.3   753  ALA753      0.0000
@<TRIPOS>BOND
     1    11    10    1
     2    11     5    1
     3     2     3    1
     4     2     1    1
     5    10     9    1
     6     5     3   am
     7     5     6    1
     8     3     4    2
     9     9     6    1
    10     6     7    1
    11    16    13    1
    12    12     7   am
    13    12    13    1
    14     7     8    2
    15    13    14    1
    16    33    34    1
    17    33    32    1
    18    34    28    1
    19    17    14   am
    20    17    18    1
    21    20    19    2
    22    14    15    2
    23    19    18    1
    24    19    21   am
    25    22    21    1
    26    22    25    1
    27    22    23    1
    28    32    29    1
    29    21    27    1
    30    28    23   am
    31    28    29    1
    32    26    25    1
    33    26    27    1
    34    23    24    2
    35    29    30    1
    36    31    30    2
    37    30    35   am
    38    35    36    1
    39    36    37    1
    40    38    37    2
    41    37    39   am
    42    39    40    1
    43    40    43    1
    44    40    41    1
    45    41    42    2
