@<TRIPOS>MOLECULE
1eam_SAH_A_1.pdb
 30 32 0 0 0
SMALL
GASTEIGER

@<TRIPOS>ATOM
      1  N         -4.2650   12.8110   24.1710 N.3   400  SAH400     -0.2362
      2  CA        -4.3610   11.7950   25.2090 C.3   400  SAH400      0.1728
      3  CB        -3.0900   10.9390   25.2530 C.3   400  SAH400      0.0403
      4  CG        -2.7360   10.2740   23.9190 C.3   400  SAH400      0.0596
      5  SD        -1.3880    9.0460   23.9410 S.3   400  SAH400     -0.1375
      6  C         -4.6250   12.4260   26.5780 C.2   400  SAH400      0.3800
      7  O         -5.0120   13.6080   26.6100 O.co2 400  SAH400     -0.2441
      8  OXT       -4.5500   11.7120   27.6100 O.co2 400  SAH400     -0.2441
      9  C5'       -1.4490    8.4800   22.2140 C.3   400  SAH400      0.0899
     10  C4'       -2.7770    7.8320   21.8810 C.3   400  SAH400      0.1629
     11  O4'       -2.9440    7.7190   20.4470 O.3   400  SAH400     -0.3154
     12  C3'       -2.9010    6.4150   22.5030 C.3   400  SAH400      0.2132
     13  O3'       -4.0470    6.4190   23.4700 O.3   400  SAH400     -0.2176
     14  C2'       -3.1550    5.5770   21.2160 C.3   400  SAH400      0.2171
     15  O2'       -4.1530    4.5430   21.3410 O.3   400  SAH400     -0.3762
     16  C1'       -3.7300    6.5640   20.2860 C.3   400  SAH400      0.3149
     17  N9        -3.6670    6.1520   18.8610 N.pl3 400  SAH400     -0.1440
     18  C8        -2.6250    5.5680   18.1490 C.3   400  SAH400      0.3377
     19  N7        -2.9380    5.3470   16.9200 N.2   400  SAH400     -0.2098
     20  C5        -4.2720    5.8090   16.7910 C.2   400  SAH400      0.2438
     21  C6        -5.2020    5.8200   15.7420 C.2   400  SAH400      0.3428
     22  N6        -4.8440    5.4060   14.5250 N.pl3 400  SAH400     -0.2449
     23  N1        -6.4530    6.2960   15.9760 N.2   400  SAH400     -0.0059
     24  C2        -6.7790    6.7460   17.1510 C.3   400  SAH400      0.5252
     25  N3        -5.9930    6.7910   18.1990 N.2   400  SAH400     -0.0055
     26  C4        -4.7310    6.2980   17.9580 C.2   400  SAH400      0.3515
     27  HN2       -4.3490   12.4970   23.2440 H     400  SAH400      0.1419
     28 HO2'       -3.8250    3.8600   20.7730 H     400  SAH400      0.2107
     29 HN61       -3.9040    5.0850   14.3680 H     400  SAH400      0.2885
     30 HN62       -5.5210    5.4200   13.7690 H     400  SAH400      0.2885
@<TRIPOS>BOND
     1    30    22    1
     2    29    22    1
     3    22    21    1
     4    21    23    2
     5    21    20    1
     6    23    24    1
     7    20    19    2
     8    20    26    1
     9    19    18    1
    10    24    25    1
    11    26    25    2
    12    26    17    1
    13    18    17    1
    14    17    16    1
    15    16    11    1
    16    16    14    1
    17    11    10    1
    18    28    15    1
    19    14    15    1
    20    14    12    1
    21    10     9    1
    22    10    12    1
    23     9     5    1
    24    12    13    1
    25    27     1    1
    26     4     5    1
    27     4     3    1
    28     1     2    1
    29     2     3    1
    30     2     6    1
    31     6     7   ar
    32     6     8   ar
