@<TRIPOS>MOLECULE
1eap_HEP_B_1.pdb
 23 23 0 0 0
SMALL
GASTEIGER

@<TRIPOS>ATOM
      1  C1         7.8530    5.2390   35.1210 C.3   222  HEP222      0.2125
      2  C2         8.5450    5.7130   33.8560 C.3   222  HEP222      0.0355
      3  C3         7.6660    6.3750   32.8520 C.3   222  HEP222      0.0025
      4  C4         8.5180    6.4400   31.6050 C.3   222  HEP222      0.0001
      5  C5         7.7250    5.7440   30.4690 C.3   222  HEP222      0.0000
      6  C6        10.4200    2.5370   33.4950 C.ar  222  HEP222      0.0374
      7  C7        11.3770    1.7760   32.8530 C.ar  222  HEP222      0.0031
      8  C8        11.6470    0.4940   33.2620 C.ar  222  HEP222      0.0002
      9  C9        10.9350   -0.0380   34.3270 C.ar  222  HEP222      0.0031
     10  C10        9.9670    0.7110   34.9780 C.ar  222  HEP222      0.0374
     11  C11        9.7110    2.0010   34.5560 C.ar  222  HEP222      0.1468
     12  C12        6.4100    6.7620   36.3520 C.2   222  HEP222      0.2425
     13  C13        5.4910    8.8890   37.5170 C.3   222  HEP222      0.1237
     14  C14        6.5300    7.7670   37.4920 C.3   222  HEP222      0.0986
     15  C15        5.9390   10.1520   36.7810 C.2   222  HEP222      0.3654
     16  O1P       10.3370    4.6320   35.5930 O.2   222  HEP222     -0.2393
     17  O2P        8.6230    4.0820   37.3710 O.3   222  HEP222     -0.1284
     18  O3P        8.7080    2.7510   35.2110 O.3   222  HEP222     -0.4198
     19  O4         5.4450    6.0060   36.2770 O.2   222  HEP222     -0.2733
     20  O5         5.8530   10.2040   35.5440 O.co2 222  HEP222     -0.2456
     21  O6         6.2550   11.1360   37.4650 O.co2 222  HEP222     -0.2456
     22  N1         7.6130    6.3160   36.0620 N.am  222  HEP222     -0.1934
     23  P          8.9740    4.2010   35.9270 P.3   222  HEP222      0.4369
@<TRIPOS>BOND
     1     5     4    1
     2     4     3    1
     3     3     2    1
     4     7     8   ar
     5     7     6   ar
     6     8     9   ar
     7     6    11   ar
     8     2     1    1
     9     9    10   ar
    10    11    10   ar
    11    11    18    1
    12     1    23    1
    13     1    22    1
    14    18    23    1
    15    20    15   ar
    16    16    23    2
    17    23    17    1
    18    22    12   am
    19    19    12    2
    20    12    14    1
    21    15    21   ar
    22    15    13    1
    23    14    13    1
