@<TRIPOS>MOLECULE
1eas_TFK_A_1.pdb
 33 34 0 0 0
SMALL
GASTEIGER

@<TRIPOS>ATOM
      1  C1        -8.3400   22.4230   36.7220 C.3     1  TFK1        0.4269
      2  C2        -8.8880   23.5270   37.6530 C.3     1  TFK1        0.2656
      3  C3       -10.4230   23.4460   37.8420 C.3     1  TFK1        0.1342
      4  C4       -11.1980   24.6910   38.3120 C.3     1  TFK1        0.0229
      5  C5       -12.6810   24.6170   38.0350 C.3     1  TFK1        0.0019
      6  C6       -10.9280   25.0600   39.7590 C.3     1  TFK1        0.0019
      7  C7       -11.3620   21.2110   38.3310 C.2     1  TFK1        0.2646
      8  C8       -11.3880   20.0850   39.3690 C.3     1  TFK1        0.1958
      9  C9       -13.8070   19.5320   39.3490 C.ar    1  TFK1        0.2781
     10  C10      -14.8280   18.4950   39.3560 C.ar    1  TFK1        0.1481
     11  C11      -14.5020   17.2190   39.0310 C.ar    1  TFK1        0.0244
     12  C12      -13.1670   16.9040   38.6660 C.ar    1  TFK1        0.0188
     13  C13      -12.1500   17.8120   38.6680 C.ar    1  TFK1        0.0630
     14  C14      -10.7510   17.4390   38.2980 C.ar    1  TFK1        0.0159
     15  C15      -10.0880   18.1000   37.2530 C.ar    1  TFK1        0.0014
     16  C16       -8.8160   17.7100   36.8920 C.ar    1  TFK1        0.0000
     17  C17       -8.2390   16.6210   37.4780 C.ar    1  TFK1        0.0000
     18  C18       -8.9130   15.9020   38.4540 C.ar    1  TFK1        0.0000
     19  C19      -10.1490   16.3270   38.8940 C.ar    1  TFK1        0.0014
     20  C20      -17.4200   17.8550   42.8080 C.3     1  TFK1        0.1378
     21  N1       -10.6950   22.2880   38.7240 N.am    1  TFK1       -0.2026
     22  N2       -12.4850   19.1310   39.1000 N.ar    1  TFK1       -0.2855
     23  N3       -16.1160   18.9320   39.7660 N.pl3   1  TFK1       -0.0798
     24  N4       -16.9550   17.3180   41.5230 N.3     1  TFK1       -0.0606
     25  O1        -8.5290   24.7280   37.0890 O.3     1  TFK1       -0.2121
     26  O2       -11.9670   21.1210   37.2790 O.2     1  TFK1       -0.2712
     27  O3       -14.0950   20.7020   39.6150 O.2     1  TFK1       -0.2655
     28  O4       -18.4840   18.8030   40.3310 O.2     1  TFK1       -0.1350
     29  O5       -17.4370   16.9860   39.0870 O.2     1  TFK1       -0.1350
     30  F1        -8.6140   21.2120   37.1680 F       1  TFK1       -0.1673
     31  F2        -7.0230   22.4560   36.5790 F       1  TFK1       -0.1673
     32  F3        -8.8530   22.5120   35.4990 F       1  TFK1       -0.1673
     33  S1       -17.3840   17.9740   40.0930 S.O2    1  TFK1        0.1465
@<TRIPOS>BOND
     1    32     1    1
     2    31     1    1
     3     1    30    1
     4     1     2    1
     5    16    15   ar
     6    16    17   ar
     7    25     2    1
     8    15    14   ar
     9    26     7    2
    10    17    18   ar
    11     2     3    1
    12     3     4    1
    13     3    21    1
    14     5     4    1
    15    14    13    1
    16    14    19   ar
    17     4     6    1
    18     7    21   am
    19     7     8    1
    20    18    19   ar
    21    12    13   ar
    22    12    11   ar
    23    13    22   ar
    24    11    10   ar
    25    29    33    2
    26    22     9   ar
    27    22     8    1
    28     9    10   ar
    29     9    27    2
    30    10    23    1
    31    23    33    1
    32    33    28    2
    33    33    24    1
    34    24    20    1
