@<TRIPOS>MOLECULE
1eat_TFI_A_1.pdb
 33 34 0 0 0
SMALL
GASTEIGER

@<TRIPOS>ATOM
      1  C1        -8.2040   22.4010   36.7880 C.3     1  TFI1        0.4269
      2  C2        -8.7890   23.5050   37.7160 C.3     1  TFI1        0.2656
      3  C3       -10.3040   23.4010   37.8790 C.3     1  TFI1        0.1342
      4  C4       -11.1400   24.6340   38.2900 C.3     1  TFI1        0.0229
      5  C5       -12.6170   24.4600   38.0110 C.3     1  TFI1        0.0019
      6  C6       -10.9110   25.0880   39.7170 C.3     1  TFI1        0.0019
      7  C7       -11.3540   21.2360   38.4010 C.2     1  TFI1        0.2646
      8  C8       -11.4600   20.1430   39.4620 C.3     1  TFI1        0.1971
      9  C9       -13.8800   19.6170   39.3700 C.ar    1  TFI1        0.2807
     10  C10      -14.8990   18.5650   39.2610 C.ar    1  TFI1        0.1656
     11  C11      -14.4860   17.3190   38.9440 C.ar    1  TFI1        0.1233
     12  C12      -12.2340   17.9170   38.7430 C.ar    1  TFI1        0.1465
     13  C13      -10.8370   17.4790   38.4100 C.ar    1  TFI1        0.0343
     14  C14      -10.1170   18.0820   37.3630 C.ar    1  TFI1        0.0044
     15  C15       -8.8520   17.6470   37.0630 C.ar    1  TFI1        0.0182
     16  C16       -8.3080   16.5610   37.7550 C.ar    1  TFI1        0.0891
     17  C17       -9.0600   15.8830   38.7070 C.ar    1  TFI1        0.0182
     18  C18      -10.3000   16.3570   39.0490 C.ar    1  TFI1        0.0044
     19  C19      -16.5730   18.1200   42.0370 C.3     1  TFI1        0.2016
     20  N1       -10.5670   22.2490   38.7670 N.am    1  TFI1       -0.2026
     21  N2       -12.5550   19.2090   39.1760 N.ar    1  TFI1       -0.2703
     22  N3       -13.1710   17.0010   38.6600 N.ar    1  TFI1       -0.2251
     23  N4       -16.2420   18.9510   39.5160 N.pl3   1  TFI1       -0.0941
     24  N5        -6.9670   16.1770   37.5120 N.pl3   1  TFI1       -0.1281
     25  O1        -8.4550   24.7180   37.1560 O.3     1  TFI1       -0.2121
     26  O2       -12.0050   21.1960   37.3630 O.2     1  TFI1       -0.2712
     27  O3       -14.1720   20.7850   39.6380 O.2     1  TFI1       -0.2654
     28  O4       -18.4720   18.8100   40.5070 O.2     1  TFI1       -0.1528
     29  O5       -17.2400   16.7790   40.0020 O.2     1  TFI1       -0.1528
     30  F1        -8.4420   21.1710   37.2250 F       1  TFI1       -0.1673
     31  F2        -6.8910   22.4790   36.6400 F       1  TFI1       -0.1673
     32  F3        -8.7120   22.4680   35.5710 F       1  TFI1       -0.1673
     33  S1       -17.2630   18.1010   40.4550 S.O2    1  TFI1        0.0752
@<TRIPOS>BOND
     1    32     1    1
     2    31     1    1
     3     1    30    1
     4     1     2    1
     5    15    14   ar
     6    15    16   ar
     7    25     2    1
     8    14    13   ar
     9    26     7    2
    10    24    16    1
    11     2     3    1
    12    16    17   ar
    13     3     4    1
    14     3    20    1
    15     5     4    1
    16     4     6    1
    17     7    20   am
    18     7     8    1
    19    13    12    1
    20    13    18   ar
    21    22    12   ar
    22    22    11   ar
    23    17    18   ar
    24    12    21   ar
    25    11    10   ar
    26    21     9   ar
    27    21     8    1
    28    10     9   ar
    29    10    23    1
    30     9    27    2
    31    23    33    1
    32    29    33    2
    33    33    28    2
    34    33    19    1
