@<TRIPOS>MOLECULE
1eau_BDK_A_1.pdb
 37 39 0 0 0
SMALL
GASTEIGER

@<TRIPOS>ATOM
      1  C1        -7.3830   22.5490   36.5190 C.3     1  BDK1        0.3607
      2  C2        -8.0520   23.7200   37.3260 C.3     1  BDK1        0.2411
      3  C3        -9.5680   23.6090   37.4330 C.3     1  BDK1        0.1316
      4  C4       -10.3850   24.8500   37.8060 C.3     1  BDK1        0.0228
      5  C5       -11.8400   24.7280   37.4410 C.3     1  BDK1        0.0019
      6  C6       -10.2110   25.2880   39.2470 C.3     1  BDK1        0.0019
      7  C7       -10.5450   21.3740   37.8710 C.2     1  BDK1        0.2646
      8  C8       -10.7640   20.2850   38.9340 C.3     1  BDK1        0.1971
      9  C9       -13.2280   20.1930   38.6500 C.ar    1  BDK1        0.2807
     10  C10      -14.4120   19.3820   38.3750 C.ar    1  BDK1        0.1641
     11  C11      -14.2660   18.0520   38.2990 C.ar    1  BDK1        0.1234
     12  C12      -11.9440   18.1330   38.4610 C.ar    1  BDK1        0.1525
     13  C13      -10.6620   17.3760   38.3280 C.ar    1  BDK1        0.0637
     14  C14      -10.3030   16.1480   38.8640 C.ar    1  BDK1        0.0100
     15  C15       -9.0090   15.7490   38.4800 C.ar    1  BDK1        0.0076
     16  C16       -8.3880   16.6510   37.5820 C.ar    1  BDK1        0.0355
     17  C17       -7.4210   22.8610   34.9990 C.2     1  BDK1        0.3053
     18  C18       -6.0630   23.0190   32.9770 C.3     1  BDK1        0.1326
     19  C19       -6.2200   24.3690   32.3140 C.3     1  BDK1        0.0959
     20  C20       -5.0720   25.0200   30.3350 C.3     1  BDK1        0.1047
     21  C21       -5.0880   25.0050   28.8180 C.3     1  BDK1        0.1595
     22  C22       -7.4000   24.9400   28.8270 C.3     1  BDK1        0.1595
     23  C23       -7.4210   24.9440   30.3430 C.3     1  BDK1        0.1047
     24  N1        -9.9110   22.4610   38.3170 N.am    1  BDK1       -0.2027
     25  N2       -12.0130   19.5170   38.6840 N.ar    1  BDK1       -0.2699
     26  N3       -13.0450   17.4310   38.3340 N.ar    1  BDK1       -0.2246
     27  N4       -15.6340   20.0550   38.2110 N.pl3   1  BDK1       -0.1214
     28  N5        -6.2520   23.1770   34.4380 N.am    1  BDK1       -0.1993
     29  N6        -6.2240   24.2950   30.8630 N.3     1  BDK1       -0.2669
     30  O1        -7.7230   24.8900   36.6670 O.3     1  BDK1       -0.2148
     31  O2       -10.9680   21.2530   36.7310 O.2     1  BDK1       -0.2712
     32  O3       -13.3100   21.4000   38.8280 O.2     1  BDK1       -0.2654
     33  O4        -8.4730   22.9170   34.4080 O.2     1  BDK1       -0.2673
     34  O5        -6.2670   25.6130   28.3080 O.3     1  BDK1       -0.3508
     35  F1        -6.1300   22.3610   36.9000 F       1  BDK1       -0.1917
     36  F2        -7.9480   21.3620   36.7930 F       1  BDK1       -0.1917
     37  S1        -9.3970   18.0170   37.3350 S.2     1  BDK1       -0.0834
@<TRIPOS>BOND
     1    34    21    1
     2    34    22    1
     3    21    20    1
     4    22    23    1
     5    20    29    1
     6    23    29    1
     7    29    19    1
     8    19    18    1
     9    18    28    1
    10    33    17    2
    11    28    17   am
    12    17     1    1
    13     1    36    1
    14     1    35    1
    15     1     2    1
    16    30     2    1
    17    31     7    2
    18     2     3    1
    19    37    16   ar
    20    37    13   ar
    21     3     4    1
    22     3    24    1
    23     5     4    1
    24    16    15   ar
    25     4     6    1
    26     7    24   am
    27     7     8    1
    28    27    10    1
    29    11    26   ar
    30    11    10   ar
    31    13    12    1
    32    13    14   ar
    33    26    12   ar
    34    10     9   ar
    35    12    25   ar
    36    15    14   ar
    37     9    25   ar
    38     9    32    2
    39    25     8    1
