@<TRIPOS>MOLECULE
1eaz_CIT_A_1.pdb
 13 12 0 0 0
SMALL
GASTEIGER

@<TRIPOS>ATOM
      1  C1         9.9390   20.6160   -3.6500 C.2   3001  CIT3001     0.3680
      2  O1         9.9810   20.4510   -2.4210 O.co2 3001  CIT3001    -0.2455
      3  O2         9.1940   21.4750   -4.2230 O.co2 3001  CIT3001    -0.2455
      4  C2        10.8310   19.6870   -4.4600 C.3   3001  CIT3001     0.1560
      5  C3        10.2090   18.5970   -5.3580 C.3   3001  CIT3001     0.2402
      6  O7         8.9230   19.0510   -5.8290 O.3   3001  CIT3001    -0.2129
      7  C4        10.0440   17.3210   -4.5270 C.3   3001  CIT3001     0.1560
      8  C5         9.0550   16.2470   -4.9500 C.2   3001  CIT3001     0.3680
      9  O3         9.5070   15.1100   -5.2350 O.co2 3001  CIT3001    -0.2455
     10  O4         7.8220   16.5370   -4.9890 O.co2 3001  CIT3001    -0.2455
     11  C6        11.1240   18.3470   -6.5760 C.2   3001  CIT3001     0.3927
     12  O5        10.6250   18.6660   -7.6830 O.co2 3001  CIT3001    -0.2429
     13  O6        12.2750   17.8560   -6.3940 O.co2 3001  CIT3001    -0.2429
@<TRIPOS>BOND
     1    12    11   ar
     2    11    13   ar
     3    11     5    1
     4     6     5    1
     5     5     7    1
     6     5     4    1
     7     9     8   ar
     8    10     8   ar
     9     8     7    1
    10     4     1    1
    11     3     1   ar
    12     1     2   ar
