@<TRIPOS>MOLECULE
1eb1_III_B_1.pdb
 30 31 0 0 0
SMALL
GASTEIGER

@<TRIPOS>ATOM
      1  C1         8.8990  -14.0360   11.1750 C.3     1  ZAL1        0.0019
      2  C2         7.8010  -15.0800   11.5890 C.3     1  ZAL1        0.0001
      3  C3         6.4030  -14.3930   11.7500 C.3     1  ZAL1        0.0000
      4  C4         6.0590  -13.3390   10.6350 C.3     1  ZAL1        0.0000
      5  C5         7.0140  -13.4050    9.3990 C.3     1  ZAL1        0.0000
      6  C6         8.5320  -13.3880    9.7890 C.3     1  ZAL1        0.0001
      7  N         12.2100  -15.7630   12.3640 N.3     1  ZAL1       -0.1231
      8  CA        10.9020  -15.0710   12.4930 C.3     1  ZAL1        0.1678
      9  CB        10.3040  -14.7310   11.0910 C.3     1  ZAL1        0.0284
     10  C         11.1540  -13.8100   13.3130 C.2     1  ZAL1        0.2434
     11  O         12.1280  -13.1170   12.9260 O.2     1  ZAL1       -0.2733
     12  N         10.4050  -13.4240   14.4200 N.am    2  PRO2       -0.2718
     13  CA        10.7690  -12.2110   15.1620 C.3     2  PRO2        0.1520
     14  C         12.1820  -12.4010   15.7560 C.2     2  PRO2        0.2441
     15  O         12.4100  -13.5470   16.1550 O.2     2  PRO2       -0.2731
     16  CB         9.7050  -12.1460   16.2770 C.3     2  PRO2        0.0310
     17  CG         8.5630  -13.0440   15.7610 C.3     2  PRO2        0.0237
     18  CD         9.2630  -14.1580   14.9380 C.3     2  PRO2        0.0939
     19  N         13.1330  -11.4010   15.8370 N.am    3  ARG3       -0.2710
     20  CA        14.4610  -11.7250   16.4440 C.3     3  ARG3        0.1403
     21  C         14.7310  -10.7620   17.6100 C.2     3  ARG3        0.2269
     22  O         15.6220   -9.9100   17.5350 O.2     3  ARG3       -0.2865
     23  CB        15.6000  -11.6970   15.3610 C.3     3  ARG3        0.0316
     24  CG        15.3020  -12.6980   14.2110 C.3     3  ARG3        0.0491
     25  CD        16.4340  -12.7300   13.1600 C.3     3  ARG3        0.2205
     26  NE        16.6630  -11.4090   12.5440 N.pl3   3  ARG3       -0.0865
     27  CZ        17.6630  -11.1790   11.7110 C.cat   3  ARG3        0.5346
     28  NH2       18.5360  -12.1100   11.3610 N.pl3   3  ARG3        0.1354
     29  NH1       17.8000   -9.9510   11.1830 N.pl3   3  ARG3        0.1354
     30  CN        12.8090  -10.0430   15.3320 C.3     3  ARG3        0.1153
@<TRIPOS>BOND
     1     5     6    1
     2     5     4    1
     3     6     1    1
     4     4     3    1
     5     9     1    1
     6     9     8    1
     7     1     2    1
     8    29    27    1
     9    28    27    1
    10     2     3    1
    11    27    26    2
    12     7     8    1
    13     8    10    1
    14    26    25    1
    15    11    10    2
    16    25    24    1
    17    10    12   am
    18    24    23    1
    19    12    18    1
    20    12    13    1
    21    18    17    1
    22    13    14    1
    23    13    16    1
    24    30    19    1
    25    23    20    1
    26    14    19   am
    27    14    15    2
    28    17    16    1
    29    19    20    1
    30    20    21    1
    31    22    21    2
