@<TRIPOS>MOLECULE
1eb2_BPO_A_1.pdb
 35 38 0 0 0
SMALL
GASTEIGER

@<TRIPOS>ATOM
      1  C22       12.5690  -12.7510   24.1120 C.ar  1248  BPO1248     0.0347
      2  C1        12.8710   -3.7820   24.2480 C.ar  1248  BPO1248     0.0046
      3  N1        12.1740   -2.9340   29.2690 N.pl3 1248  BPO1248     0.2047
      4  C2        13.1970   -3.0100   26.5470 C.ar  1248  BPO1248     0.0080
      5  C7         8.7610   -6.3070   23.0030 C.3   1248  BPO1248     0.1937
      6  C6         8.0310   -7.6200   23.4610 C.2   1248  BPO1248     0.2498
      7  C5        11.5950   -4.2710   24.6230 C.ar  1248  BPO1248     0.0553
      8  C4        11.1310   -4.1530   25.9410 C.ar  1248  BPO1248     0.0126
      9  C3        11.9420   -3.5110   26.9100 C.ar  1248  BPO1248     0.0976
     10  C11        7.4290   -4.1700   23.1940 C.ar  1248  BPO1248    -0.0021
     11  C10        7.6680   -5.3640   22.5020 C.ar  1248  BPO1248     0.0062
     12  C9        11.3810   -3.4090   28.2850 C.2   1248  BPO1248     0.4766
     13  C8        10.7130   -4.9350   23.5830 C.2   1248  BPO1248     0.2655
     14  C12        6.4390   -3.2870   22.7710 C.ar  1248  BPO1248    -0.0003
     15  C17        9.5540  -11.0470   24.2180 C.3   1248  BPO1248     0.0292
     16  C16        8.5510   -9.9030   24.1580 C.3   1248  BPO1248     0.0939
     17  C14        5.8950   -4.8230   20.9640 C.ar  1248  BPO1248    -0.0003
     18  C13        5.6670   -3.6330   21.6510 C.ar  1248  BPO1248    -0.0000
     19  C15        6.8930   -5.7200   21.3800 C.ar  1248  BPO1248    -0.0021
     20  C18       10.9980  -10.6760   23.8290 C.3   1248  BPO1248     0.0653
     21  C19       11.6300  -11.9640   23.2460 C.2   1248  BPO1248     0.1727
     22  C20       11.0150   -9.7630   22.5630 C.3   1248  BPO1248     0.0292
     23  C         13.6590   -3.1610   25.2330 C.ar  1248  BPO1248     0.0004
     24  O          6.8780   -7.6790   23.8250 O.2   1248  BPO1248    -0.2726
     25  O1        11.0060   -4.7500   22.4000 O.2   1248  BPO1248    -0.2683
     26  N          9.5970   -5.6890   24.0250 N.am  1248  BPO1248    -0.1895
     27  N2        10.0410   -3.5030   28.3310 N.pl3 1248  BPO1248     0.2047
     28  N3         8.8270   -8.7720   23.2810 N.am  1248  BPO1248    -0.2779
     29  O2        11.3480  -12.2870   22.1100 O.2   1248  BPO1248    -0.2913
     30  C21       10.2140   -8.4980   22.8570 C.3   1248  BPO1248     0.0939
     31  C23       13.3920  -13.7170   23.4900 C.ar  1248  BPO1248     0.0028
     32  C24       14.2490  -14.4420   24.3040 C.ar  1248  BPO1248     0.0001
     33  C25       14.3430  -14.2730   25.6880 C.ar  1248  BPO1248     0.0000
     34  C26       13.5370  -13.3150   26.2830 C.ar  1248  BPO1248     0.0001
     35  C27       12.6610  -12.5670   25.4920 C.ar  1248  BPO1248     0.0028
@<TRIPOS>BOND
     1    17    19   ar
     2    17    18   ar
     3    19    11   ar
     4    18    14   ar
     5    29    21    2
     6    25    13    2
     7    11     5    1
     8    11    10   ar
     9    22    30    1
    10    22    20    1
    11    14    10   ar
    12    30    28    1
    13     5     6    1
    14     5    26    1
    15    21    20    1
    16    21     1    1
    17    28     6   am
    18    28    16    1
    19     6    24    2
    20    31     1   ar
    21    31    32   ar
    22    13    26   am
    23    13     7    1
    24    20    15    1
    25     1    35   ar
    26    16    15    1
    27     2     7   ar
    28     2    23   ar
    29    32    33   ar
    30     7     8   ar
    31    23     4   ar
    32    35    34   ar
    33    33    34   ar
    34     8     9   ar
    35     4     9   ar
    36     9    12    1
    37    12    27    2
    38    12     3    1
