@<TRIPOS>MOLECULE
1eb3_DSB_A_1.pdb
 14 13 0 0 0
SMALL
GASTEIGER

@<TRIPOS>ATOM
      1  C1        21.8290   26.8950   13.5920 C.2   1341  DSB1341     0.3649
      2  O2        22.9770   26.7160   13.0600 O.co2 1341  DSB1341    -0.2457
      3  C2        21.3910   25.8870   14.6350 C.3   1341  DSB1341     0.1141
      4  C3        19.9270   26.0740   15.0430 C.3   1341  DSB1341     0.0118
      5  C5        19.3530   25.3380   17.4340 C.3   1341  DSB1341     0.0000
      6  O1        21.0800   27.8750   13.2890 O.co2 1341  DSB1341    -0.2457
      7  C6        18.9720   24.1260   18.2580 C.3   1341  DSB1341     0.0000
      8  C8        21.0610   22.6430   18.4490 C.3   1341  DSB1341     0.0118
      9  C9        22.0390   23.4110   17.5850 C.3   1341  DSB1341     0.1141
     10  C10       23.4800   23.0770   17.8880 C.2   1341  DSB1341     0.3649
     11  O11       23.8360   21.8660   18.0490 O.co2 1341  DSB1341    -0.2457
     12  O12       24.3290   24.0320   17.9660 O.co2 1341  DSB1341    -0.2457
     13  C7        19.6240   22.7950   17.9920 C.3   1341  DSB1341     0.0006
     14  C4        19.5850   24.9340   15.9850 C.3   1341  DSB1341     0.0006
@<TRIPOS>BOND
     1     2     1   ar
     2     6     1   ar
     3     1     3    1
     4     3     4    1
     5     4    14    1
     6    14     5    1
     7     5     7    1
     8     9    10    1
     9     9     8    1
    10    10    12   ar
    11    10    11   ar
    12    13     7    1
    13    13     8    1
