@<TRIPOS>MOLECULE
1eb7_HEC_A_1.pdb
 43 50 0 0 0
SMALL
GASTEIGER

@<TRIPOS>ATOM
      1 FE         41.8190   45.6280   36.0850 Fe    401  HEC401      0.0000
      2  CHA       43.8700   43.9070   38.0390 C.2   401  HEC401      0.0000
      3  CHB       44.2380   47.5960   35.0290 C.2   401  HEC401      0.0000
      4  CHC       39.8390   46.6940   33.5480 C.2   401  HEC401      0.0000
      5  CHD       39.1540   44.2580   37.5470 C.2   401  HEC401      0.0000
      6  NA        43.6720   45.6860   36.3660 N.ar  401  HEC401      0.0000
      7  C1A       44.4190   44.8480   37.1730 C.ar  401  HEC401      0.0000
      8  C2A       45.8210   45.2400   37.1730 C.ar  401  HEC401      0.0000
      9  C3A       45.8870   46.3220   36.4110 C.ar  401  HEC401      0.0000
     10  C4A       44.5670   46.6000   35.9080 C.ar  401  HEC401      0.0000
     11  CMA       47.0910   47.1790   36.3380 C.3   401  HEC401      0.0000
     12  CAA       47.0240   44.6160   37.8870 C.3   401  HEC401      0.0000
     13  CBA       47.3220   45.3860   39.1870 C.3   401  HEC401      0.0000
     14  CGA       48.8130   45.5650   39.4670 C.2   401  HEC401      0.0000
     15  O1A       49.1570   46.1270   40.5310 O.co2 401  HEC401      0.0000
     16  O2A       49.6450   45.1840   38.6120 O.co2 401  HEC401      0.0000
     17  NB        41.9860   46.8290   34.6240 N.2   401  HEC401      0.0000
     18  C1B       43.0320   47.6940   34.3670 C.2   401  HEC401      0.0000
     19  C2B       42.8690   48.4350   33.1200 C.2   401  HEC401      0.0000
     20  C3B       41.6660   48.0700   32.6350 C.2   401  HEC401      0.0000
     21  C4B       41.1500   47.0560   33.5690 C.2   401  HEC401      0.0000
     22  CMB       43.8750   49.3330   32.4340 C.3   401  HEC401      0.0000
     23  CAB       40.9530   48.5960   31.4230 C.3   401  HEC401      0.0000
     24  CBB       41.6340   48.3150   30.0740 C.3   401  HEC401      0.0000
     25  NC        39.9280   45.6560   35.7450 N.ar  401  HEC401      0.0000
     26  C1C       39.2540   46.1340   34.6580 C.ar  401  HEC401      0.0000
     27  C2C       37.8130   45.9520   34.7900 C.ar  401  HEC401      0.0000
     28  C3C       37.6310   45.3610   35.9800 C.ar  401  HEC401      0.0000
     29  C4C       38.9350   45.1260   36.5050 C.ar  401  HEC401      0.0000
     30  CMC       36.7690   46.3140   33.7380 C.3   401  HEC401      0.0000
     31  CAC       36.3350   44.9950   36.6660 C.3   401  HEC401      0.0000
     32  CBC       35.3250   44.1660   35.8760 C.3   401  HEC401      0.0000
     33  ND        41.5800   44.3940   37.4910 N.2   401  HEC401      0.0000
     34  C1D       40.3990   43.8990   37.9790 C.2   401  HEC401      0.0000
     35  C2D       40.5930   42.8700   38.9640 C.2   401  HEC401      0.0000
     36  C3D       41.9190   42.7050   39.0710 C.2   401  HEC401      0.0000
     37  C4D       42.5230   43.7080   38.1940 C.2   401  HEC401      0.0000
     38  CMD       39.5240   42.0890   39.6920 C.3   401  HEC401      0.0000
     39  CAD       42.6250   41.5680   39.7970 C.3   401  HEC401      0.0000
     40  CBD       42.7560   40.3620   38.8930 C.3   401  HEC401      0.0000
     41  CGD       43.6640   39.2960   39.4700 C.2   401  HEC401      0.0000
     42  O1D       43.2560   38.1160   39.5250 O.co2 401  HEC401      0.0000
     43  O2D       44.7930   39.6450   39.8670 O.co2 401  HEC401      0.0000
@<TRIPOS>BOND
     1    24    23    1
     2    23    20    1
     3    22    19    1
     4    20    19    2
     5    20    21    1
     6    19    18    1
     7     4    21    2
     8     4    26    1
     9    21    17    1
    10    30    27    1
    11    18    17    2
    12    18     3    1
    13    17     1    1
    14    26    27   ar
    15    26    25   ar
    16    27    28   ar
    17     3    10    2
    18    25     1    1
    19    25    29   ar
    20    32    31    1
    21    10     6   ar
    22    10     9   ar
    23    28    29   ar
    24    28    31    1
    25     1     6    1
    26     1    33    1
    27    11     9    1
    28     6     7   ar
    29     9     8   ar
    30    29     5    1
    31     8     7   ar
    32     8    12    1
    33     7     2    2
    34    33    34    1
    35    33    37    2
    36     5    34    2
    37    12    13    1
    38    34    35    1
    39     2    37    1
    40    37    36    1
    41    16    14   ar
    42    40    41    1
    43    40    39    1
    44    35    36    2
    45    35    38    1
    46    36    39    1
    47    13    14    1
    48    14    15   ar
    49    41    42   ar
    50    41    43   ar
