@<TRIPOS>MOLECULE
1ebc_HEM_A_1.pdb
 43 50 0 0 0
SMALL
GASTEIGER

@<TRIPOS>ATOM
      1 FE         12.5610   -6.9580   13.3430 Fe    154  HEM154      0.0000
      2  CHA       11.0360  -10.0570   12.8320 C.2   154  HEM154      0.0000
      3  CHB       11.4710   -6.9190   16.5440 C.2   154  HEM154      0.0000
      4  CHC       13.9330   -3.7880   13.7910 C.2   154  HEM154      0.0000
      5  CHD       13.6420   -6.9470   10.1530 C.2   154  HEM154      0.0000
      6  NA        11.4520   -8.1490   14.4250 N.2   154  HEM154      0.0000
      7  C1A       10.9640   -9.3970   14.0530 C.2   154  HEM154      0.0000
      8  C2A       10.3350   -9.9840   15.2130 C.2   154  HEM154      0.0000
      9  C3A       10.4300   -9.1420   16.2400 C.2   154  HEM154      0.0000
     10  C4A       11.1190   -7.9790   15.7570 C.2   154  HEM154      0.0000
     11  CMA        9.9780   -9.2990   17.7230 C.3   154  HEM154      0.0000
     12  CAA        9.7000  -11.3790   15.1480 C.3   154  HEM154      0.0000
     13  CBA       10.5390  -12.4040   15.8900 C.3   154  HEM154      0.0000
     14  CGA       11.9700  -12.2500   15.5120 C.2   154  HEM154      0.0000
     15  O1A       12.7830  -11.4810   16.0880 O.co2 154  HEM154      0.0000
     16  O2A       12.1630  -12.8970   14.4940 O.co2 154  HEM154      0.0000
     17  NB        12.6520   -5.5950   14.8580 N.ar  154  HEM154      0.0000
     18  C1B       12.1460   -5.7990   16.1270 C.ar  154  HEM154      0.0000
     19  C2B       12.3700   -4.6310   16.9110 C.ar  154  HEM154      0.0000
     20  C3B       13.0580   -3.7600   16.1570 C.ar  154  HEM154      0.0000
     21  C4B       13.2750   -4.3670   14.8720 C.ar  154  HEM154      0.0000
     22  CMB       11.8390   -4.5220   18.3470 C.3   154  HEM154      0.0000
     23  CAB       13.5470   -2.3410   16.4520 C.2   154  HEM154      0.0000
     24  CBB       12.7630   -1.4920   17.1180 C.2   154  HEM154      0.0000
     25  NC        13.6300   -5.6330   12.1920 N.2   154  HEM154      0.0000
     26  C1C       13.9860   -4.3380   12.5220 C.2   154  HEM154      0.0000
     27  C2C       14.4170   -3.6480   11.3290 C.2   154  HEM154      0.0000
     28  C3C       14.3320   -4.5310   10.2990 C.2   154  HEM154      0.0000
     29  C4C       13.8900   -5.7900   10.8580 C.2   154  HEM154      0.0000
     30  CMC       14.8640   -2.1770   11.4290 C.3   154  HEM154      0.0000
     31  CAC       14.6590   -4.3870    8.7950 C.2   154  HEM154      0.0000
     32  CBC       14.8590   -3.1540    8.3210 C.2   154  HEM154      0.0000
     33  ND        12.4320   -8.2880   11.7920 N.ar  154  HEM154      0.0000
     34  C1D       12.8460   -8.0220   10.5110 C.ar  154  HEM154      0.0000
     35  C2D       12.5050   -9.1710    9.6770 C.ar  154  HEM154      0.0000
     36  C3D       11.8360  -10.0290   10.4270 C.ar  154  HEM154      0.0000
     37  C4D       11.7030   -9.4810   11.7590 C.ar  154  HEM154      0.0000
     38  CMD       12.8920   -9.3600    8.1990 C.3   154  HEM154      0.0000
     39  CAD       11.0610  -11.2430    9.9560 C.3   154  HEM154      0.0000
     40  CBD        9.6950  -10.7470    9.4340 C.3   154  HEM154      0.0000
     41  CGD        8.8750  -11.9140    9.0180 C.2   154  HEM154      0.0000
     42  O1D        9.1560  -12.5550    7.9760 O.co2 154  HEM154      0.0000
     43  O2D        8.0400  -12.3000    9.8290 O.co2 154  HEM154      0.0000
@<TRIPOS>BOND
     1    42    41   ar
     2    38    35    1
     3    32    31    2
     4    31    28    1
     5    41    40    1
     6    41    43   ar
     7    40    39    1
     8    35    36   ar
     9    35    34   ar
    10    39    36    1
    11     5    34    2
    12     5    29    1
    13    28    29    1
    14    28    27    2
    15    36    37   ar
    16    34    33   ar
    17    29    25    2
    18    27    30    1
    19    27    26    1
    20    37    33   ar
    21    37     2    2
    22    33     1    1
    23    25    26    1
    24    25     1    1
    25    26     4    2
    26     2     7    1
    27     1     6    1
    28     1    17    1
    29     4    21    1
    30     7     6    2
    31     7     8    1
    32     6    10    1
    33    16    14   ar
    34    17    21   ar
    35    17    18   ar
    36    21    20   ar
    37    12     8    1
    38    12    13    1
    39     8     9    2
    40    14    13    1
    41    14    15   ar
    42    10     9    1
    43    10     3    2
    44    18     3    1
    45    18    19   ar
    46    20    23    1
    47    20    19   ar
    48     9    11    1
    49    23    24    2
    50    19    22    1
