@<TRIPOS>MOLECULE
1ebe_HEM_A_1.pdb
 43 50 0 0 0
SMALL
GASTEIGER

@<TRIPOS>ATOM
      1 FE         28.1280   93.2290   52.7670 Fe    1295  HEM1295     0.0000
      2  CHA       27.9970   95.2190   49.9480 C.2   1295  HEM1295     0.0000
      3  CHB       30.5180   95.2020   54.0990 C.2   1295  HEM1295     0.0000
      4  CHC       28.6090   90.9750   55.3410 C.2   1295  HEM1295     0.0000
      5  CHD       25.5950   91.4320   51.5850 C.2   1295  HEM1295     0.0000
      6  NA        29.0250   94.8900   52.1930 N.2   1295  HEM1295     0.0000
      7  C1A       28.8780   95.5740   50.9800 C.2   1295  HEM1295     0.0000
      8  C2A       29.7770   96.6910   50.9100 C.2   1295  HEM1295     0.0000
      9  C3A       30.5030   96.7020   52.0720 C.2   1295  HEM1295     0.0000
     10  C4A       30.0050   95.5950   52.8690 C.2   1295  HEM1295     0.0000
     11  CMA       31.6410   97.6550   52.4160 C.3   1295  HEM1295     0.0000
     12  CAA       29.7880   97.7180   49.7810 C.3   1295  HEM1295     0.0000
     13  CBA       28.5950   98.6240   49.8800 C.3   1295  HEM1295     0.0000
     14  CGA       28.6440   99.7390   48.8980 C.2   1295  HEM1295     0.0000
     15  O1A       29.6940  100.3310   48.6960 O.co2 1295  HEM1295     0.0000
     16  O2A       27.6180  100.0150   48.2940 O.co2 1295  HEM1295     0.0000
     17  NB        29.3160   93.0860   54.3730 N.ar  1295  HEM1295     0.0000
     18  C1B       30.2330   94.0170   54.7920 C.ar  1295  HEM1295     0.0000
     19  C2B       30.9470   93.5730   55.9830 C.ar  1295  HEM1295     0.0000
     20  C3B       30.4810   92.3570   56.3090 C.ar  1295  HEM1295     0.0000
     21  C4B       29.4500   92.0590   55.3000 C.ar  1295  HEM1295     0.0000
     22  CMB       31.9720   94.3960   56.7460 C.3   1295  HEM1295     0.0000
     23  CAB       30.8030   91.6180   57.4460 C.3   1295  HEM1295     0.0000
     24  CBB       32.1610   91.3150   57.9130 C.3   1295  HEM1295     0.0000
     25  NC        27.2320   91.6380   53.4140 N.2   1295  HEM1295     0.0000
     26  C1C       27.5460   90.8010   54.4840 C.2   1295  HEM1295     0.0000
     27  C2C       26.5780   89.7510   54.6230 C.2   1295  HEM1295     0.0000
     28  C3C       25.6390   89.9260   53.5990 C.2   1295  HEM1295     0.0000
     29  C4C       26.1070   91.0790   52.8480 C.2   1295  HEM1295     0.0000
     30  CMC       26.5520   88.7810   55.7950 C.3   1295  HEM1295     0.0000
     31  CAC       24.4060   89.2990   53.3430 C.3   1295  HEM1295     0.0000
     32  CBC       24.1120   87.8800   53.4070 C.3   1295  HEM1295     0.0000
     33  ND        27.0440   93.2820   51.0710 N.ar  1295  HEM1295     0.0000
     34  C1D       26.0310   92.4310   50.7300 C.ar  1295  HEM1295     0.0000
     35  C2D       25.4850   92.7570   49.4390 C.ar  1295  HEM1295     0.0000
     36  C3D       26.1420   93.8240   48.9670 C.ar  1295  HEM1295     0.0000
     37  C4D       27.1120   94.1630   49.9870 C.ar  1295  HEM1295     0.0000
     38  CMD       24.3960   92.0050   48.6990 C.3   1295  HEM1295     0.0000
     39  CAD       25.9540   94.4340   47.5820 C.2   1295  HEM1295     0.0000
     40  CBD       25.4310   95.8690   47.5050 C.2   1295  HEM1295     0.0000
     41  CGD       25.1660   96.4470   46.1120 C.2   1295  HEM1295     0.0000
     42  O1D       24.3250   97.3420   45.9920 O.co2 1295  HEM1295     0.0000
     43  O2D       25.7890   96.0450   45.1280 O.co2 1295  HEM1295     0.0000
@<TRIPOS>BOND
     1    43    41   ar
     2    42    41   ar
     3    41    40    1
     4    40    39    2
     5    39    36    1
     6    16    14   ar
     7    15    14   ar
     8    38    35    1
     9    14    13    1
    10    36    35   ar
    11    36    37   ar
    12    35    34   ar
    13    12    13    1
    14    12     8    1
    15     2    37    2
    16     2     7    1
    17    37    33   ar
    18    34    33   ar
    19    34     5    2
    20     8     7    1
    21     8     9    2
    22     7     6    2
    23    33     1    1
    24     5    29    1
    25     9    11    1
    26     9    10    1
    27     6     1    1
    28     6    10    1
    29     1    25    1
    30     1    17    1
    31    29    25    2
    32    29    28    1
    33    10     3    2
    34    31    32    1
    35    31    28    1
    36    25    26    1
    37    28    27    2
    38     3    18    1
    39    17    18   ar
    40    17    21   ar
    41    26    27    1
    42    26     4    2
    43    27    30    1
    44    18    19   ar
    45    21     4    1
    46    21    20   ar
    47    19    20   ar
    48    19    22    1
    49    20    23    1
    50    23    24    1
