@<TRIPOS>MOLECULE
1ebf_NAD_A_1.pdb
 44 48 0 0 0
SMALL
GASTEIGER

@<TRIPOS>ATOM
      1  PA        71.6540   25.8190  -14.0980 P.3   2109  NAD2109     0.2189
      2  O1A       71.4630   24.8100  -15.1940 O.2   2109  NAD2109    -0.5170
      3  O2A       71.2890   27.2400  -14.3700 O.3   2109  NAD2109    -0.4371
      4  O5B       73.1870   25.7910  -13.6340 O.3   2109  NAD2109    -0.3112
      5  C5B       73.8970   24.5390  -13.5030 C.3   2109  NAD2109     0.1813
      6  C4B       75.3780   24.7700  -13.7970 C.3   2109  NAD2109     0.1821
      7  O4B       76.0030   23.4860  -13.6160 O.3   2109  NAD2109    -0.3135
      8  C3B       75.7300   25.1850  -15.2640 C.3   2109  NAD2109     0.2184
      9  O3B       76.6190   26.3250  -15.2470 O.3   2109  NAD2109    -0.2174
     10  C2B       76.3320   23.8890  -15.8290 C.3   2109  NAD2109     0.2570
     11  O2B       77.2650   24.1580  -16.9080 O.3   2109  NAD2109    -0.2130
     12  C1B       76.9860   23.3370  -14.5970 C.3   2109  NAD2109     0.3186
     13  N9A       77.3290   21.9290  -14.6580 N.pl3 2109  NAD2109    -0.1439
     14  C8A       76.4940   20.8880  -14.9000 C.3   2109  NAD2109     0.3377
     15  N7A       77.0800   19.7100  -14.8440 N.2   2109  NAD2109    -0.2095
     16  C5A       78.3930   20.0170  -14.5470 C.2   2109  NAD2109     0.2526
     17  C6A       79.5200   19.1930  -14.3440 C.2   2109  NAD2109     0.4393
     18  N6A       79.5410   17.8800  -14.4320 N.pl3 2109  NAD2109     0.2180
     19  N1A       80.7180   19.8250  -14.1460 N.2   2109  NAD2109     0.0021
     20  C2A       80.6990   21.1900  -13.9950 C.3   2109  NAD2109     0.5254
     21  N3A       79.7110   22.0470  -14.1370 N.2   2109  NAD2109    -0.0055
     22  C4A       78.5630   21.3890  -14.4130 C.2   2109  NAD2109     0.3518
     23  O3        70.8860   25.3770  -12.8130 O.3   2109  NAD2109    -0.2703
     24  PN        70.5500   26.2640  -11.4490 P.3   2109  NAD2109     0.2189
     25  O1N       69.2540   26.9300  -11.6680 O.2   2109  NAD2109    -0.5170
     26  O2N       71.6540   27.2370  -11.2690 O.3   2109  NAD2109    -0.4371
     27  O5D       70.3630   25.1330  -10.3790 O.3   2109  NAD2109    -0.3112
     28  C5D       71.4070   24.9860   -9.4400 C.3   2109  NAD2109     0.1813
     29  C4D       71.0220   23.9570   -8.4390 C.3   2109  NAD2109     0.1799
     30  O4D       70.0760   24.6360   -7.5420 O.3   2109  NAD2109    -0.3327
     31  C3D       70.2930   22.7340   -8.8870 C.3   2109  NAD2109     0.2158
     32  O3D       70.6770   21.6950   -7.9810 O.3   2109  NAD2109    -0.2175
     33  C2D       68.8090   23.1410   -8.7000 C.3   2109  NAD2109     0.2309
     34  O2D       67.9560   21.9800   -8.5760 O.3   2109  NAD2109    -0.2158
     35  C1D       68.8970   23.8940   -7.4300 C.3   2109  NAD2109     0.2263
     36  N1N       67.7760   24.7830   -7.1560 N.pl3 2109  NAD2109    -0.2787
     37  C2N       67.2610   25.6680   -8.0980 C.3   2109  NAD2109     0.1244
     38  C3N       66.1910   26.6530   -7.7400 C.2   2109  NAD2109     0.0544
     39  C7N       65.7810   27.5770   -8.8120 C.2   2109  NAD2109     0.2818
     40  O7N       64.8860   28.4570   -8.5410 O.2   2109  NAD2109    -0.2670
     41  N7N       66.3280   27.5230  -10.0800 N.am  2109  NAD2109    -0.0839
     42  C4N       65.5590   26.6010   -6.3460 C.2   2109  NAD2109     0.0033
     43  C5N       66.1830   25.5570   -5.4730 C.2   2109  NAD2109     0.0157
     44  C6N       67.1920   24.7550   -5.8460 C.2   2109  NAD2109     0.0633
@<TRIPOS>BOND
     1    11    10    1
     2    10     8    1
     3    10    12    1
     4     8     9    1
     5     8     6    1
     6     2     1    2
     7    14    15    1
     8    14    13    1
     9    15    16    2
    10    13    12    1
    11    13    22    1
    12    12     7    1
    13    16    22    1
    14    16    17    1
    15    18    17    1
    16    22    21    2
    17     3     1    1
    18    17    19    2
    19    19    20    1
    20    21    20    1
    21     1     4    1
    22     1    23    1
    23     6     7    1
    24     6     5    1
    25     4     5    1
    26    23    24    1
    27    25    24    2
    28    24    26    1
    29    24    27    1
    30    27    28    1
    31    41    39   am
    32    28    29    1
    33    31    33    1
    34    31    29    1
    35    31    32    1
    36    39    40    2
    37    39    38    1
    38    33    34    1
    39    33    35    1
    40    29    30    1
    41    37    38    1
    42    37    36    1
    43    38    42    2
    44    30    35    1
    45    35    36    1
    46    36    44    1
    47    42    43    1
    48    44    43    2
