@<TRIPOS>MOLECULE
1ebt_HEM_A_1.pdb
 43 50 0 0 0
SMALL
GASTEIGER

@<TRIPOS>ATOM
      1 FE          6.5260   -4.2360   19.7810 Fe    144  HEM144      0.0000
      2  CHA        5.0870   -6.8820   21.2470 C.2   144  HEM144      0.0000
      3  CHB        3.4950   -3.2150   18.5510 C.2   144  HEM144      0.0000
      4  CHC        7.8850   -1.3840   18.5500 C.2   144  HEM144      0.0000
      5  CHD        9.6450   -5.4000   20.5750 C.2   144  HEM144      0.0000
      6  NA         4.6930   -4.8190   19.8750 N.ar  144  HEM144      0.0000
      7  C1A        4.2790   -5.9370   20.6390 C.ar  144  HEM144      0.0000
      8  C2A        2.8560   -6.0270   20.5900 C.ar  144  HEM144      0.0000
      9  C3A        2.4050   -5.0360   19.8530 C.ar  144  HEM144      0.0000
     10  C4A        3.5300   -4.2770   19.4050 C.ar  144  HEM144      0.0000
     11  CMA        0.9410   -4.7230   19.5040 C.3   144  HEM144      0.0000
     12  CAA        2.0030   -7.1050   21.2750 C.3   144  HEM144      0.0000
     13  CBA        1.4700   -6.6300   22.6250 C.3   144  HEM144      0.0000
     14  CGA        2.5350   -6.6530   23.6950 C.2   144  HEM144      0.0000
     15  O1A        3.0000   -7.7540   24.0600 O.co2 144  HEM144      0.0000
     16  O2A        3.0590   -5.5740   24.0000 O.co2 144  HEM144      0.0000
     17  NB         5.8270   -2.5800   18.7750 N.2   144  HEM144      0.0000
     18  C1B        4.5860   -2.4570   18.2630 C.2   144  HEM144      0.0000
     19  C2B        4.5000   -1.2600   17.4610 C.2   144  HEM144      0.0000
     20  C3B        5.6990   -0.6940   17.4650 C.2   144  HEM144      0.0000
     21  C4B        6.5610   -1.5580   18.2550 C.2   144  HEM144      0.0000
     22  CMB        3.1680   -0.8800   16.7800 C.3   144  HEM144      0.0000
     23  CAB        6.1470    0.5960   16.7340 C.2   144  HEM144      0.0000
     24  CBB        7.1190    1.2950   17.2890 C.2   144  HEM144      0.0000
     25  NC         8.3320   -3.5710   19.6570 N.ar  144  HEM144      0.0000
     26  C1C        8.7290   -2.3570   19.0780 C.ar  144  HEM144      0.0000
     27  C2C       10.1550   -2.2680   19.1020 C.ar  144  HEM144      0.0000
     28  C3C       10.6290   -3.3780   19.6400 C.ar  144  HEM144      0.0000
     29  C4C        9.5260   -4.1710   19.9940 C.ar  144  HEM144      0.0000
     30  CMC       10.9820   -1.0870   18.5450 C.3   144  HEM144      0.0000
     31  CAC       12.1040   -3.7910   19.9330 C.2   144  HEM144      0.0000
     32  CBC       13.0460   -2.8930   20.2700 C.2   144  HEM144      0.0000
     33  ND         7.2770   -5.8140   20.7430 N.2   144  HEM144      0.0000
     34  C1D        8.5620   -6.1560   20.9320 C.2   144  HEM144      0.0000
     35  C2D        8.6130   -7.4800   21.5770 C.2   144  HEM144      0.0000
     36  C3D        7.3580   -7.8840   21.7930 C.2   144  HEM144      0.0000
     37  C4D        6.4680   -6.8730   21.2220 C.2   144  HEM144      0.0000
     38  CMD        9.9540   -8.1340   21.9690 C.3   144  HEM144      0.0000
     39  CAD        6.8780   -9.1960   22.4200 C.3   144  HEM144      0.0000
     40  CBD        7.0480  -10.4020   21.4530 C.3   144  HEM144      0.0000
     41  CGD        6.7450  -11.7670   22.0330 C.2   144  HEM144      0.0000
     42  O1D        5.5360  -12.0930   22.0550 O.co2 144  HEM144      0.0000
     43  O2D        7.7100  -12.4330   22.5120 O.co2 144  HEM144      0.0000
@<TRIPOS>BOND
     1    23    24    2
     2    23    20    1
     3    22    19    1
     4    19    20    2
     5    19    18    1
     6    20    21    1
     7    21     4    2
     8    21    17    1
     9    18     3    1
    10    18    17    2
    11    30    27    1
    12     4    26    1
    13     3    10    2
    14    17     1    1
    15    26    27   ar
    16    26    25   ar
    17    27    28   ar
    18    10     9   ar
    19    10     6   ar
    20    11     9    1
    21    28    31    1
    22    28    29   ar
    23    25     1    1
    24    25    29   ar
    25     1     6    1
    26     1    33    1
    27     9     8   ar
    28     6     7   ar
    29    31    32    2
    30    29     5    1
    31     5    34    2
    32     8     7   ar
    33     8    12    1
    34     7     2    2
    35    33    34    1
    36    33    37    2
    37    34    35    1
    38    37     2    1
    39    37    36    1
    40    12    13    1
    41    40    41    1
    42    40    39    1
    43    35    36    2
    44    35    38    1
    45    36    39    1
    46    41    42   ar
    47    41    43   ar
    48    13    14    1
    49    14    16   ar
    50    14    15   ar
