@<TRIPOS>MOLECULE
1ebu_NDA_D_1.pdb
 43 47 0 0 0
SMALL
GASTEIGER

@<TRIPOS>ATOM
      1  PA        41.0670   21.1830   70.7970 P.3   1300  NDA1300     0.2189
      2  O1A       40.6090   22.5040   71.3690 O.3   1300  NDA1300    -0.4371
      3  O2A       39.9610   20.2590   70.3350 O.2   1300  NDA1300    -0.5170
      4  O5B       41.9920   20.3760   71.8900 O.3   1300  NDA1300    -0.3112
      5  C5B       42.9640   21.1110   72.6870 C.3   1300  NDA1300     0.1813
      6  C4B       43.5270   20.2430   73.8200 C.3   1300  NDA1300     0.1821
      7  O4B       44.4850   21.1100   74.4880 O.3   1300  NDA1300    -0.3135
      8  C3B       42.5200   19.8170   74.9200 C.3   1300  NDA1300     0.2184
      9  O3B       42.6170   18.4040   75.1720 O.3   1300  NDA1300    -0.2174
     10  C2B       42.9020   20.7300   76.0920 C.3   1300  NDA1300     0.2570
     11  O2B       42.5670   20.1300   77.3740 O.3   1300  NDA1300    -0.2130
     12  C1B       44.3950   20.9110   75.8730 C.3   1300  NDA1300     0.3186
     13  N9A       44.9870   22.1000   76.5290 N.pl3 1300  NDA1300    -0.1439
     14  C8A       44.7940   23.4220   76.1860 C.3   1300  NDA1300     0.3377
     15  N7A       45.5020   24.2750   76.9340 N.2   1300  NDA1300    -0.2095
     16  C5A       46.1950   23.4530   77.8210 C.2   1300  NDA1300     0.2526
     17  C6A       47.1230   23.7630   78.8560 C.2   1300  NDA1300     0.4393
     18  N6A       47.5110   24.9940   79.2040 N.pl3 1300  NDA1300     0.2180
     19  N1A       47.5790   22.7090   79.6410 N.2   1300  NDA1300     0.0021
     20  C2A       47.2290   21.4340   79.2390 C.3   1300  NDA1300     0.5254
     21  N3A       46.4080   21.0320   78.2790 N.2   1300  NDA1300    -0.0055
     22  C4A       45.9120   22.1040   77.5870 C.2   1300  NDA1300     0.3518
     23  O3        42.0840   21.4890   69.6120 O.3   1300  NDA1300    -0.2703
     24  PN        42.7660   20.5080   68.4400 P.3   1300  NDA1300     0.2189
     25  O1N       41.6410   20.0740   67.5440 O.2   1300  NDA1300    -0.5170
     26  O2N       43.4570   19.3570   69.1700 O.3   1300  NDA1300    -0.4371
     27  O5D       43.7010   21.5950   67.6830 O.3   1300  NDA1300    -0.3112
     28  C5D       45.1120   21.5290   67.9250 C.3   1300  NDA1300     0.1813
     29  C4D       45.8240   22.6090   67.1340 C.3   1300  NDA1300     0.1799
     30  O4D       45.8120   22.2310   65.7100 O.3   1300  NDA1300    -0.3327
     31  C3D       45.2470   24.0360   67.1660 C.3   1300  NDA1300     0.2158
     32  O3D       46.3250   25.0090   67.1520 O.3   1300  NDA1300    -0.2175
     33  C2D       44.4090   24.0750   65.8690 C.3   1300  NDA1300     0.2309
     34  O2D       44.1750   25.4550   65.4700 O.3   1300  NDA1300    -0.2158
     35  C1D       45.3320   23.3220   64.9400 C.3   1300  NDA1300     0.2263
     36  N1N       44.7310   22.8320   63.6730 N.pl3 1300  NDA1300    -0.2791
     37  C2N       43.5460   22.0690   63.6070 C.3   1300  NDA1300     0.1170
     38  C3N       43.0260   21.5520   62.2830 C.2   1300  NDA1300    -0.0055
     39  C7N       41.7960   20.7320   62.2990 C.3   1300  NDA1300     0.1330
     40  N7N       41.1100   20.4390   63.4250 N.3   1300  NDA1300    -0.1265
     41  C4N       43.7620   21.9180   61.0070 C.2   1300  NDA1300    -0.0041
     42  C5N       44.9750   22.7480   61.2540 C.2   1300  NDA1300     0.0153
     43  C6N       45.4090   23.1480   62.4430 C.2   1300  NDA1300     0.0633
@<TRIPOS>BOND
     1    41    42    1
     2    41    38    2
     3    42    43    2
     4    38    39    1
     5    38    37    1
     6    39    40    1
     7    43    36    1
     8    37    36    1
     9    36    35    1
    10    35    30    1
    11    35    33    1
    12    34    33    1
    13    30    29    1
    14    33    31    1
    15    29    31    1
    16    29    28    1
    17    32    31    1
    18    25    24    2
    19    27    28    1
    20    27    24    1
    21    24    26    1
    22    24    23    1
    23    23     1    1
    24     3     1    2
    25     1     2    1
    26     1     4    1
    27     4     5    1
    28     5     6    1
    29     6     7    1
    30     6     8    1
    31     7    12    1
    32     8     9    1
    33     8    10    1
    34    12    10    1
    35    12    13    1
    36    10    11    1
    37    14    13    1
    38    14    15    1
    39    13    22    1
    40    15    16    2
    41    22    16    1
    42    22    21    2
    43    16    17    1
    44    21    20    1
    45    17    18    1
    46    17    19    2
    47    20    19    1
