@<TRIPOS>MOLECULE
1ebv_SCL_A_1.pdb
 14 14 0 0 0
SMALL
GASTEIGER

@<TRIPOS>ATOM
      1  C1        25.8300   34.3910  199.2340 C.ar  700  SCL700      0.0971
      2  C2        24.9260   33.8560  198.2720 C.ar  700  SCL700      0.2002
      3  C3        24.8310   34.3930  196.9530 C.ar  700  SCL700      0.0422
      4  C4        25.6370   35.4690  196.5840 C.ar  700  SCL700      0.0033
      5  C5        26.5350   36.0170  197.5100 C.ar  700  SCL700      0.0004
      6  C6        26.6500   35.4950  198.8390 C.ar  700  SCL700      0.0079
      7  C7        25.8720   33.7700  200.6060 C.2   700  SCL700      0.3054
      8  C8        27.8610   31.5320  202.4960 C.2   700  SCL700      0.3426
      9  C9        27.7490   30.9490  203.8730 C.3   700  SCL700      0.1235
     10  N1        27.0380   33.2350  201.0470 N.am  700  SCL700     -0.0006
     11  O1        24.1030   32.7950  198.5750 O.3   700  SCL700     -0.2864
     12  O2        24.8420   33.7350  201.3190 O.2   700  SCL700     -0.2649
     13  O3        26.9850   32.6410  202.3550 O.3   700  SCL700     -0.3228
     14  O4        28.5680   31.1450  201.6160 O.2   700  SCL700     -0.2479
@<TRIPOS>BOND
     1     4     3   ar
     2     4     5   ar
     3     3     2   ar
     4     5     6   ar
     5     2    11    1
     6     2     1   ar
     7     6     1   ar
     8     1     7    1
     9     7    10   am
    10     7    12    2
    11    10    13    1
    12    14     8    2
    13    13     8    1
    14     8     9    1
