@<TRIPOS>MOLECULE
1ebv_HEM_A_1.pdb
 43 50 0 0 0
SMALL
GASTEIGER

@<TRIPOS>ATOM
      1  CHA       23.2530   44.5720  183.5080 C.2   601  HEM601      0.0000
      2  CHB       20.2520   48.2180  184.1070 C.2   601  HEM601      0.0000
      3  CHC       20.2890   47.5220  188.8940 C.2   601  HEM601      0.0000
      4  CHD       23.2580   43.7460  188.2650 C.2   601  HEM601      0.0000
      5  C1A       22.4220   45.6090  183.2470 C.ar  601  HEM601      0.0000
      6  C2A       22.1490   46.1220  181.8950 C.ar  601  HEM601      0.0000
      7  C3A       21.3140   47.1200  182.1110 C.ar  601  HEM601      0.0000
      8  C4A       21.0690   47.2460  183.5310 C.ar  601  HEM601      0.0000
      9  CMA       20.7210   48.0000  181.0430 C.3   601  HEM601      0.0000
     10  CAA       22.6500   45.7030  180.5230 C.3   601  HEM601      0.0000
     11  CBA       21.9670   44.5490  179.7790 C.3   601  HEM601      0.0000
     12  CGA       21.3490   44.9330  178.4180 C.2   601  HEM601      0.0000
     13  O1A       22.0310   45.5990  177.5800 O.co2 601  HEM601      0.0000
     14  O2A       20.1710   44.5660  178.1820 O.co2 601  HEM601      0.0000
     15  C1B       20.0150   48.3800  185.4790 C.2   601  HEM601      0.0000
     16  C2B       19.1810   49.4590  186.0470 C.2   601  HEM601      0.0000
     17  C3B       19.1830   49.2830  187.4120 C.2   601  HEM601      0.0000
     18  C4B       20.0290   48.0710  187.6420 C.2   601  HEM601      0.0000
     19  CMB       18.4830   50.5250  185.1930 C.3   601  HEM601      0.0000
     20  CAB       18.5620   50.0250  188.4240 C.3   601  HEM601      0.0000
     21  CBB       17.7220   51.2160  188.3470 C.3   601  HEM601      0.0000
     22  C1C       21.0910   46.4040  189.1250 C.ar  601  HEM601      0.0000
     23  C2C       21.3320   45.8120  190.4690 C.ar  601  HEM601      0.0000
     24  C3C       22.1640   44.7360  190.3050 C.ar  601  HEM601      0.0000
     25  C4C       22.4290   44.6880  188.8500 C.ar  601  HEM601      0.0000
     26  CMC       20.7590   46.2990  191.8130 C.3   601  HEM601      0.0000
     27  CAC       22.6310   43.8900  191.3330 C.3   601  HEM601      0.0000
     28  CBC       24.0030   43.7060  191.7690 C.3   601  HEM601      0.0000
     29  C1D       23.5300   43.6760  186.9220 C.2   601  HEM601      0.0000
     30  C2D       24.4510   42.7120  186.3770 C.2   601  HEM601      0.0000
     31  C3D       24.4470   42.9590  185.0390 C.2   601  HEM601      0.0000
     32  C4D       23.5150   44.0610  184.7730 C.2   601  HEM601      0.0000
     33  CMD       25.2520   41.6640  187.1390 C.3   601  HEM601      0.0000
     34  CAD       25.2610   42.2410  183.9750 C.3   601  HEM601      0.0000
     35  CBD       26.4410   43.1380  183.5600 C.3   601  HEM601      0.0000
     36  CGD       27.3520   42.5870  182.4800 C.2   601  HEM601      0.0000
     37  O1D       27.1360   41.4620  181.9650 O.co2 601  HEM601      0.0000
     38  O2D       28.3050   43.3010  182.1330 O.co2 601  HEM601      0.0000
     39  NA        21.7500   46.3080  184.2360 N.ar  601  HEM601      0.0000
     40  NB        20.5260   47.5440  186.4500 N.2   601  HEM601      0.0000
     41  NC        21.7700   45.7010  188.1300 N.ar  601  HEM601      0.0000
     42  ND        22.9510   44.5070  185.9470 N.2   601  HEM601      0.0000
     43 FE         21.6190   45.8960  186.1790 Fe    601  HEM601      0.0000
@<TRIPOS>BOND
     1    13    12   ar
     2    14    12   ar
     3    12    11    1
     4    11    10    1
     5    10     6    1
     6     9     7    1
     7     6     7   ar
     8     6     5   ar
     9    37    36   ar
    10     7     8   ar
    11    38    36   ar
    12    36    35    1
    13     5     1    2
    14     5    39   ar
    15     1    32    1
    16     8     2    2
    17     8    39   ar
    18    35    34    1
    19    34    31    1
    20     2    15    1
    21    39    43    1
    22    32    31    1
    23    32    42    2
    24    31    30    2
    25    19    16    1
    26    15    16    1
    27    15    40    2
    28    42    43    1
    29    42    29    1
    30    16    17    2
    31    43    40    1
    32    43    41    1
    33    30    29    1
    34    30    33    1
    35    40    18    1
    36    29     4    2
    37    17    18    1
    38    17    20    1
    39    18     3    2
    40    41    25   ar
    41    41    22   ar
    42     4    25    1
    43    21    20    1
    44    25    24   ar
    45     3    22    1
    46    22    23   ar
    47    24    23   ar
    48    24    27    1
    49    23    26    1
    50    27    28    1
