@<TRIPOS>MOLECULE
1ebw_BEI_A_1.pdb
 46 47 0 0 0
SMALL
GASTEIGER

@<TRIPOS>ATOM
      1  C34        9.9100   24.1780    2.1720 C.ar  501  BEI501      0.0073
      2  C35        9.2280   25.3590    1.8090 C.ar  501  BEI501     -0.0019
      3  C36        7.8190   25.4550    1.9400 C.ar  501  BEI501     -0.0002
      4  C37        7.0880   24.3570    2.4430 C.ar  501  BEI501     -0.0000
      5  C38        7.7540   23.1590    2.8160 C.ar  501  BEI501     -0.0002
      6  C39        9.1700   23.0730    2.6790 C.ar  501  BEI501     -0.0019
      7  C40       16.4460   22.1800    8.7940 C.ar  501  BEI501      0.0073
      8  C41       15.6340   21.2070    9.4800 C.ar  501  BEI501     -0.0019
      9  C42       16.2240   20.0240   10.0370 C.ar  501  BEI501     -0.0002
     10  C43       17.6170   19.8240    9.9050 C.ar  501  BEI501     -0.0000
     11  C44       18.4340   20.7940    9.2210 C.ar  501  BEI501     -0.0002
     12  C45       17.8460   21.9740    8.6640 C.ar  501  BEI501     -0.0019
     13  C30       15.8020   23.4140    8.2000 C.3   501  BEI501      0.1692
     14  O29       14.7140   23.0580    7.2820 O.3   501  BEI501     -0.3397
     15  C5        15.1550   22.6460    5.9370 C.3   501  BEI501      0.2258
     16  C4        14.0930   23.0280    4.9120 C.3   501  BEI501      0.2209
     17  C3        13.6800   24.4670    4.9960 C.3   501  BEI501      0.2209
     18  C2        12.2940   24.6570    4.2920 C.3   501  BEI501      0.2258
     19  C1        11.1140   24.6630    5.2640 C.2   501  BEI501      0.2716
     20  O17       10.8230   23.6230    5.8630 O.2   501  BEI501     -0.2706
     21  N18       10.4190   25.8270    5.4040 N.am  501  BEI501     -0.1957
     22  C19        9.2350   25.9870    6.2840 C.3   501  BEI501      0.1727
     23  C20        9.5850   26.6710    7.6650 C.3   501  BEI501      0.0290
     24  C21        8.2980   26.8910    8.5270 C.3   501  BEI501      0.0023
     25  C22       10.6480   25.8520    8.4900 C.3   501  BEI501      0.0022
     26  C46       11.3160   26.7570    9.5730 C.3   501  BEI501      0.0001
     27  C23        8.2700   26.8820    5.5190 C.2   501  BEI501      0.2613
     28  O24        8.6910   27.9580    5.0600 O.2   501  BEI501     -0.2715
     29  N25        6.9760   26.4220    5.3980 N.am  501  BEI501     -0.2021
     30  C26        6.0360   27.2650    4.6770 C.3   501  BEI501      0.1386
     31  O32       12.0690   23.6150    3.2490 O.3   501  BEI501     -0.3397
     32  C33       11.4240   24.0930    2.0330 C.3   501  BEI501      0.1692
     33  O27       14.7800   25.2040    4.3700 O.3   501  BEI501     -0.2171
     34  O28       14.6060   22.7820    3.5510 O.3   501  BEI501     -0.2171
     35  C6        15.3520   21.1950    5.7900 C.2   501  BEI501      0.2716
     36  O7        14.3850   20.4830    6.1080 O.2   501  BEI501     -0.2706
     37  N8        16.5460   20.7420    5.3250 N.am  501  BEI501     -0.1957
     38  C9        16.8210   19.3220    5.1510 C.3   501  BEI501      0.1727
     39  C10       16.7560   18.8890    3.6270 C.3   501  BEI501      0.0290
     40  C11       17.2260   17.3950    3.4290 C.3   501  BEI501      0.0023
     41  C12       15.3220   19.0400    3.0550 C.3   501  BEI501      0.0022
     42  C47       15.3410   19.0800    1.5130 C.3   501  BEI501      0.0001
     43  C13       18.2000   19.0980    5.7050 C.2   501  BEI501      0.2613
     44  O14       19.1520   19.7800    5.2690 O.2   501  BEI501     -0.2715
     45  N15       18.2940   18.1270    6.6760 N.am  501  BEI501     -0.2021
     46  C16       19.6250   17.8910    7.2220 C.3   501  BEI501      0.1386
@<TRIPOS>BOND
     1    42    41    1
     2     2     3   ar
     3     2     1   ar
     4     3     4   ar
     5    32     1    1
     6    32    31    1
     7     1     6   ar
     8     4     5   ar
     9     6     5   ar
    10    41    39    1
    11    31    18    1
    12    40    39    1
    13    34    16    1
    14    39    38    1
    15    18    17    1
    16    18    19    1
    17    33    17    1
    18    30    29    1
    19    16    17    1
    20    16    15    1
    21    28    27    2
    22    38    37    1
    23    38    43    1
    24    19    21   am
    25    19    20    2
    26    44    43    2
    27    37    35   am
    28    29    27   am
    29    21    22    1
    30    27    22    1
    31    43    45   am
    32    35    15    1
    33    35    36    2
    34    15    14    1
    35    22    23    1
    36    45    46    1
    37    14    13    1
    38    23    25    1
    39    23    24    1
    40    13     7    1
    41    25    26    1
    42    12     7   ar
    43    12    11   ar
    44     7     8   ar
    45    11    10   ar
    46     8     9   ar
    47    10     9   ar
