@<TRIPOS>MOLECULE
1eby_BEB_B_1.pdb
 48 53 0 0 0
SMALL
GASTEIGER

@<TRIPOS>ATOM
      1  C23        9.8440   24.2070    2.2410 C.ar  501  BEB501      0.0073
      2  C24        9.2310   25.4050    1.7950 C.ar  501  BEB501     -0.0019
      3  C25        7.8250   25.5750    1.9120 C.ar  501  BEB501     -0.0002
      4  C26        7.0260   24.5420    2.4800 C.ar  501  BEB501     -0.0000
      5  C27        7.6380   23.3390    2.9290 C.ar  501  BEB501     -0.0002
      6  C28        9.0430   23.1720    2.8100 C.ar  501  BEB501     -0.0019
      7  C33       16.6170   22.1670    8.8460 C.ar  501  BEB501      0.0073
      8  C34       15.8970   21.1820    9.5900 C.ar  501  BEB501     -0.0019
      9  C35       16.5680   20.0300   10.0940 C.ar  501  BEB501     -0.0002
     10  C36       17.9600   19.8590    9.8540 C.ar  501  BEB501     -0.0000
     11  C37       18.6810   20.8390    9.1140 C.ar  501  BEB501     -0.0002
     12  C38       18.0100   21.9900    8.6100 C.ar  501  BEB501     -0.0019
     13  C32       15.8900   23.4020    8.2880 C.3   501  BEB501      0.1692
     14  O31       14.7960   23.1160    7.3670 O.3   501  BEB501     -0.3397
     15  C9        15.1800   22.6850    6.0280 C.3   501  BEB501      0.2258
     16  C7        14.0630   23.0590    5.0310 C.3   501  BEB501      0.2209
     17  C5        13.5940   24.5130    5.1080 C.3   501  BEB501      0.2209
     18  C4        12.2210   24.7320    4.3560 C.3   501  BEB501      0.2258
     19  C2        11.0340   24.7260    5.3120 C.2   501  BEB501      0.2716
     20  O3        10.8180   23.7130    5.9610 O.2   501  BEB501     -0.2706
     21  N1        10.2610   25.8030    5.3600 N.am  501  BEB501     -0.1979
     22  O21       12.0380   23.6650    3.3570 O.3   501  BEB501     -0.3397
     23  C22       11.3620   24.0330    2.1260 C.3   501  BEB501      0.1692
     24  O6        14.6400   25.2940    4.4910 O.3   501  BEB501     -0.2171
     25  O8        14.5800   22.8360    3.6910 O.3   501  BEB501     -0.2171
     26  C10       15.3410   21.1990    5.9620 C.2   501  BEB501      0.2716
     27  O11       14.3540   20.5160    6.2110 O.2   501  BEB501     -0.2706
     28  N12       16.5050   20.7010    5.5790 N.am  501  BEB501     -0.1979
     29  C51       16.8700   19.3000    5.3590 C.3   501  BEB501      0.1478
     30  C52       16.7550   18.9200    3.8830 C.ar  501  BEB501     -0.0040
     31  C57       17.6770   17.9100    3.5290 C.ar  501  BEB501     -0.0218
     32  C53       15.8750   19.4460    2.8930 C.ar  501  BEB501     -0.0029
     33  C54       15.9380   18.9450    1.5610 C.ar  501  BEB501     -0.0003
     34  C55       16.8750   17.9240    1.2270 C.ar  501  BEB501     -0.0003
     35  C59       18.2830   18.7480    5.6730 C.3   501  BEB501      0.1802
     36  O60       19.2290   19.7990    5.3760 O.3   501  BEB501     -0.2206
     37  C56       17.7580   17.3950    2.2120 C.ar  501  BEB501     -0.0044
     38  C58       18.4980   17.5180    4.7450 C.3   501  BEB501      0.0611
     39  C41        9.0290   26.0670    6.1350 C.3   501  BEB501      0.1478
     40  C42        9.2990   26.7620    7.4770 C.ar  501  BEB501     -0.0040
     41  C47        8.1960   27.5630    7.8780 C.ar  501  BEB501     -0.0218
     42  C43       10.4560   26.7020    8.3060 C.ar  501  BEB501     -0.0029
     43  C44       10.4930   27.4460    9.5260 C.ar  501  BEB501     -0.0003
     44  C45        9.3790   28.2450    9.9180 C.ar  501  BEB501     -0.0003
     45  C49        7.9050   26.9920    5.5960 C.3   501  BEB501      0.1802
     46  O50        8.5420   28.1100    4.9260 O.3   501  BEB501     -0.2206
     47  C46        8.2070   28.3130    9.0900 C.ar  501  BEB501     -0.0044
     48  C48        7.0940   27.4690    6.8390 C.3   501  BEB501      0.0611
@<TRIPOS>BOND
     1    34    33   ar
     2    34    37   ar
     3    33    32   ar
     4     2     3   ar
     5     2     1   ar
     6     3     4   ar
     7    23     1    1
     8    23    22    1
     9    37    31   ar
    10     1     6   ar
    11     4     5   ar
    12     6     5   ar
    13    32    30   ar
    14    22    18    1
    15    31    30   ar
    16    31    38    1
    17    25    16    1
    18    30    29    1
    19    18    17    1
    20    18    19    1
    21    24    17    1
    22    38    35    1
    23    46    45    1
    24    16    17    1
    25    16    15    1
    26    19    21   am
    27    19    20    2
    28    29    28    1
    29    29    35    1
    30    21    39    1
    31    36    35    1
    32    28    26   am
    33    45    39    1
    34    45    48    1
    35    26    15    1
    36    26    27    2
    37    15    14    1
    38    39    40    1
    39    48    41    1
    40    14    13    1
    41    40    41   ar
    42    40    42   ar
    43    41    47   ar
    44    13     7    1
    45    42    43   ar
    46    12     7   ar
    47    12    11   ar
    48     7     8   ar
    49    47    44   ar
    50    11    10   ar
    51    43    44   ar
    52     8     9   ar
    53    10     9   ar
