@<TRIPOS>MOLECULE
1ebz_BEC_B_1.pdb
 46 49 0 0 0
SMALL
GASTEIGER

@<TRIPOS>ATOM
      1  C23        9.7610   24.2260    2.2630 C.ar  501  BEC501      0.0073
      2  C24        9.1790   25.4450    1.8530 C.ar  501  BEC501     -0.0019
      3  C25        7.7780   25.6490    1.9890 C.ar  501  BEC501     -0.0002
      4  C26        6.9560   24.6220    2.5410 C.ar  501  BEC501     -0.0000
      5  C27        7.5370   23.3920    2.9570 C.ar  501  BEC501     -0.0002
      6  C28        8.9420   23.1930    2.8180 C.ar  501  BEC501     -0.0019
      7  C33       16.4360   22.2180    8.7480 C.ar  501  BEC501      0.0073
      8  C34       15.7560   21.1840    9.4800 C.ar  501  BEC501     -0.0019
      9  C35       16.4880   20.0480    9.9520 C.ar  501  BEC501     -0.0002
     10  C36       17.8850   19.9480    9.6910 C.ar  501  BEC501     -0.0000
     11  C37       18.5560   20.9680    8.9670 C.ar  501  BEC501     -0.0002
     12  C38       17.8340   22.1060    8.4910 C.ar  501  BEC501     -0.0019
     13  C32       15.6530   23.4230    8.2230 C.3   501  BEC501      0.1692
     14  O31       14.6060   23.0810    7.2720 O.3   501  BEC501     -0.3397
     15  C9        15.0820   22.6700    5.9440 C.3   501  BEC501      0.2258
     16  C7        13.9900   23.0200    4.9360 C.3   501  BEC501      0.2209
     17  C5        13.5660   24.4580    4.9970 C.3   501  BEC501      0.2209
     18  C4        12.1520   24.6650    4.3340 C.3   501  BEC501      0.2258
     19  C2        11.0080   24.7130    5.3480 C.2   501  BEC501      0.2716
     20  O3        10.7460   23.6860    5.9880 O.2   501  BEC501     -0.2706
     21  N1        10.3370   25.8620    5.4890 N.am  501  BEC501     -0.1957
     22  O21       11.8960   23.5860    3.3560 O.3   501  BEC501     -0.3397
     23  C22       11.2600   24.0120    2.1290 C.3   501  BEC501      0.1692
     24  O6        14.6290   25.1940    4.3310 O.3   501  BEC501     -0.2171
     25  O8        14.4880   22.7520    3.5710 O.3   501  BEC501     -0.2171
     26  C10       15.2540   21.1910    5.8510 C.2   501  BEC501      0.2716
     27  O11       14.2730   20.5030    6.1260 O.2   501  BEC501     -0.2706
     28  N12       16.4220   20.6990    5.5050 N.am  501  BEC501     -0.1979
     29  C51       16.7770   19.2960    5.3840 C.3   501  BEC501      0.1478
     30  C52       16.7260   18.8500    3.9360 C.ar  501  BEC501     -0.0040
     31  C57       17.6880   17.8480    3.6580 C.ar  501  BEC501     -0.0218
     32  C53       15.8680   19.3060    2.8900 C.ar  501  BEC501     -0.0029
     33  C54       15.9940   18.7440    1.5810 C.ar  501  BEC501     -0.0003
     34  C55       16.9780   17.7310    1.3270 C.ar  501  BEC501     -0.0003
     35  C59       18.1720   18.8000    5.7720 C.3   501  BEC501      0.1802
     36  O60       19.0750   19.8480    5.4190 O.3   501  BEC501     -0.2206
     37  C56       17.8370   17.2720    2.3640 C.ar  501  BEC501     -0.0044
     38  C58       18.4690   17.5380    4.9150 C.3   501  BEC501      0.0611
     39  C41        9.2230   26.0330    6.4170 C.3   501  BEC501      0.1727
     40  C42        9.3910   26.4240    7.9540 C.3   501  BEC501      0.0290
     41  C43        8.6010   27.6850    8.4190 C.3   501  BEC501      0.0023
     42  C44       10.8780   26.5090    8.4220 C.3   501  BEC501      0.0023
     43  C45        8.2840   26.9760    5.6730 C.2   501  BEC501      0.2613
     44  O46        8.7460   28.0030    5.1260 O.2   501  BEC501     -0.2715
     45  N47        6.9590   26.6040    5.6740 N.am  501  BEC501     -0.2021
     46  C48        6.0160   27.4650    4.9860 C.3   501  BEC501      0.1386
@<TRIPOS>BOND
     1    34    33   ar
     2    34    37   ar
     3    33    32   ar
     4     2     3   ar
     5     2     1   ar
     6     3     4   ar
     7    23     1    1
     8    23    22    1
     9     1     6   ar
    10    37    31   ar
    11     4     5   ar
    12     6     5   ar
    13    32    30   ar
    14    22    18    1
    15    25    16    1
    16    31    30   ar
    17    31    38    1
    18    30    29    1
    19    24    17    1
    20    18    17    1
    21    18    19    1
    22    38    35    1
    23    16    17    1
    24    16    15    1
    25    46    45    1
    26    44    43    2
    27    19    21   am
    28    19    20    2
    29    29    28    1
    30    29    35    1
    31    36    35    1
    32    21    39    1
    33    28    26   am
    34    43    45   am
    35    43    39    1
    36    26    15    1
    37    26    27    2
    38    15    14    1
    39    39    40    1
    40    14    13    1
    41    40    41    1
    42    40    42    1
    43    13     7    1
    44    12     7   ar
    45    12    11   ar
    46     7     8   ar
    47    11    10   ar
    48     8     9   ar
    49    10     9   ar
