@<TRIPOS>MOLECULE
1ec0_BED_A_1.pdb
 50 55 0 0 0
SMALL
GASTEIGER

@<TRIPOS>ATOM
      1  C01       16.5600   22.0740    8.7360 C.ar  501  BED501      0.0348
      2  C02       17.9710   21.8820    8.4810 C.ar  501  BED501      0.0004
      3  C03       18.6600   20.7120    8.8980 C.ar  501  BED501     -0.0001
      4  C04       17.9510   19.6690    9.5990 C.ar  501  BED501      0.0023
      5  C05       16.5510   19.8160    9.8720 C.ar  501  BED501      0.0294
      6  C06       15.8650   21.0100    9.4430 C.ar  501  BED501      0.1385
      7  C07        9.8300   23.8680    2.2960 C.ar  501  BED501      0.0348
      8  C08        8.8110   22.9360    2.7380 C.ar  501  BED501      0.1385
      9  C09        7.4250   23.3290    2.7330 C.ar  501  BED501      0.0294
     10  C10        7.0500   24.6440    2.2880 C.ar  501  BED501      0.0023
     11  C11        8.0620   25.5710    1.8480 C.ar  501  BED501     -0.0001
     12  C12        9.4340   25.1850    1.8550 C.ar  501  BED501      0.0004
     13  C13       11.3110   23.4870    2.3030 C.3   501  BED501      0.1715
     14  O14       11.7930   23.1120    3.6080 O.3   501  BED501     -0.3397
     15  C15       11.8950   24.2250    4.5510 C.3   501  BED501      0.2258
     16  C16       12.9550   23.9760    5.5860 C.3   501  BED501      0.2209
     17  C17       14.2570   23.6220    4.9800 C.3   501  BED501      0.2209
     18  C18       15.1320   22.8490    6.0000 C.3   501  BED501      0.2258
     19  C19       15.1410   21.3470    5.8310 C.2   501  BED501      0.2716
     20  O20       14.1310   20.6550    6.0000 O.2   501  BED501     -0.2706
     21  N21       16.3590   20.7900    5.4950 N.am  501  BED501     -0.1979
     22  O22       14.7770   23.1250    7.3840 O.3   501  BED501     -0.3397
     23  C23       15.8900   23.3530    8.2520 C.3   501  BED501      0.1715
     24  O24       14.8130   24.8770    4.5610 O.3   501  BED501     -0.2171
     25  O25       13.1170   25.1020    6.4930 O.3   501  BED501     -0.2171
     26  C26       10.6800   24.3210    5.3860 C.2   501  BED501      0.2716
     27  O27       10.2950   23.3310    6.0100 O.2   501  BED501     -0.2706
     28  N28       10.0420   25.5140    5.4090 N.am  501  BED501     -0.1979
     29  C29        8.8530   25.7180    6.1840 C.3   501  BED501      0.1478
     30  C30        9.1420   26.4450    7.4680 C.ar  501  BED501     -0.0040
     31  C31        8.0410   27.2850    7.8160 C.ar  501  BED501     -0.0218
     32  C32       10.3150   26.3960    8.3190 C.ar  501  BED501     -0.0029
     33  C33       10.3540   27.2030    9.5150 C.ar  501  BED501     -0.0003
     34  C34        9.2270   28.0440    9.8480 C.ar  501  BED501     -0.0003
     35  C35        7.7630   26.6090    5.5700 C.3   501  BED501      0.1802
     36  O36        8.4140   27.6650    4.8690 O.3   501  BED501     -0.2206
     37  C37        8.0590   28.0920    8.9990 C.ar  501  BED501     -0.0044
     38  C38        6.9690   27.1580    6.7820 C.3   501  BED501      0.0611
     39  C39       16.6030   19.3700    5.2960 C.3   501  BED501      0.1478
     40  C40       16.5080   18.9380    3.8540 C.ar  501  BED501     -0.0040
     41  C41       17.4320   17.8860    3.5830 C.ar  501  BED501     -0.0218
     42  C42       15.6550   19.4350    2.8070 C.ar  501  BED501     -0.0029
     43  C43       15.7550   18.8480    1.4880 C.ar  501  BED501     -0.0003
     44  C44       16.6880   17.7930    1.2350 C.ar  501  BED501     -0.0003
     45  C45       18.0030   18.8550    5.6630 C.3   501  BED501      0.1802
     46  O46       18.9460   19.8890    5.3350 O.3   501  BED501     -0.2206
     47  C47       17.5400   17.2960    2.2760 C.ar  501  BED501     -0.0044
     48  C48       18.1950   17.5570    4.8220 C.3   501  BED501      0.0611
     49  F49       14.5850   21.0660    9.7270 F     501  BED501     -0.2044
     50  F50        9.1310   21.7320    3.1530 F     501  BED501     -0.2044
@<TRIPOS>BOND
     1    44    43   ar
     2    44    47   ar
     3    43    42   ar
     4    11    12   ar
     5    11    10   ar
     6    12     7   ar
     7    47    41   ar
     8    10     9   ar
     9     7    13    1
    10     7     8   ar
    11    13    14    1
    12     9     8   ar
    13     8    50    1
    14    42    40   ar
    15    41    40   ar
    16    41    48    1
    17    14    15    1
    18    40    39    1
    19    15    26    1
    20    15    16    1
    21    24    17    1
    22    48    45    1
    23    36    35    1
    24    17    16    1
    25    17    18    1
    26    39    21    1
    27    39    45    1
    28    46    45    1
    29    26    28   am
    30    26    27    2
    31    28    29    1
    32    21    19   am
    33    35    29    1
    34    35    38    1
    35    16    25    1
    36    19    18    1
    37    19    20    2
    38    18    22    1
    39    29    30    1
    40    38    31    1
    41    22    23    1
    42    30    31   ar
    43    30    32   ar
    44    31    37   ar
    45    23     1    1
    46    32    33   ar
    47     2     1   ar
    48     2     3   ar
    49     1     6   ar
    50     3     4   ar
    51    37    34   ar
    52     6    49    1
    53     6     5   ar
    54    33    34   ar
    55     4     5   ar
