@<TRIPOS>MOLECULE
1eca_HEM_A_1.pdb
 43 50 0 0 0
SMALL
GASTEIGER

@<TRIPOS>ATOM
      1 FE          9.3890   17.0370   25.9250 Fe    137  HEM137      0.0000
      2  CHA       12.3620   15.2890   26.3480 C.2   137  HEM137      0.0000
      3  CHB       11.1690   19.9630   25.9190 C.2   137  HEM137      0.0000
      4  CHC        6.5800   18.7020   25.1030 C.2   137  HEM137      0.0000
      5  CHD        7.7120   14.0700   25.9110 C.2   137  HEM137      0.0000
      6  NA        11.3920   17.5200   25.9690 N.ar  137  HEM137      0.0000
      7  C1A       12.4550   16.6700   26.2120 C.ar  137  HEM137      0.0000
      8  C2A       13.6550   17.4540   26.4610 C.ar  137  HEM137      0.0000
      9  C3A       13.3190   18.7440   26.3700 C.ar  137  HEM137      0.0000
     10  C4A       11.9000   18.8050   26.0610 C.ar  137  HEM137      0.0000
     11  CMA       14.2600   19.9180   26.5580 C.3   137  HEM137      0.0000
     12  CAA       15.0390   16.9220   26.7690 C.3   137  HEM137      0.0000
     13  CBA       15.6390   16.4180   25.4950 C.3   137  HEM137      0.0000
     14  CGA       17.0330   15.8750   25.8070 C.2   137  HEM137      0.0000
     15  O1A       17.5030   15.0190   25.1590 O.co2 137  HEM137      0.0000
     16  O2A       17.6730   16.3310   26.7380 O.co2 137  HEM137      0.0000
     17  NB         8.9750   18.9360   25.5540 N.2   137  HEM137      0.0000
     18  C1B        9.8200   20.0270   25.6510 C.2   137  HEM137      0.0000
     19  C2B        9.0660   21.2510   25.4270 C.2   137  HEM137      0.0000
     20  C3B        7.7980   20.9030   25.2010 C.2   137  HEM137      0.0000
     21  C4B        7.7230   19.4510   25.2780 C.2   137  HEM137      0.0000
     22  CMB        9.6020   22.6700   25.4430 C.3   137  HEM137      0.0000
     23  CAB        6.6580   21.8620   24.9190 C.2   137  HEM137      0.0000
     24  CBB        5.7350   21.5570   24.0110 C.2   137  HEM137      0.0000
     25  NC         7.5390   16.4920   25.5620 N.ar  137  HEM137      0.0000
     26  C1C        6.4830   17.3370   25.2740 C.ar  137  HEM137      0.0000
     27  C2C        5.2550   16.5620   25.1750 C.ar  137  HEM137      0.0000
     28  C3C        5.5680   15.2820   25.3980 C.ar  137  HEM137      0.0000
     29  C4C        7.0000   15.2200   25.6430 C.ar  137  HEM137      0.0000
     30  CMC        3.8690   17.0920   24.8750 C.3   137  HEM137      0.0000
     31  CAC        4.5950   14.1210   25.3930 C.2   137  HEM137      0.0000
     32  CBC        4.7160   13.1420   24.4970 C.2   137  HEM137      0.0000
     33  ND         9.9410   15.0730   26.0540 N.2   137  HEM137      0.0000
     34  C1D        9.0730   13.9960   26.0900 C.2   137  HEM137      0.0000
     35  C2D        9.8190   12.7760   26.3560 C.2   137  HEM137      0.0000
     36  C3D       11.1040   13.1130   26.4770 C.2   137  HEM137      0.0000
     37  C4D       11.1990   14.5540   26.2900 C.2   137  HEM137      0.0000
     38  CMD        9.2590   11.3720   26.4770 C.3   137  HEM137      0.0000
     39  CAD       12.2430   12.1540   26.7590 C.3   137  HEM137      0.0000
     40  CBD       12.3150   11.9590   28.2340 C.3   137  HEM137      0.0000
     41  CGD       12.7390   13.2840   28.8650 C.2   137  HEM137      0.0000
     42  O1D       13.8630   13.6240   28.8470 O.co2 137  HEM137      0.0000
     43  O2D       11.9090   14.0030   29.3960 O.co2 137  HEM137      0.0000
@<TRIPOS>BOND
     1    24    23    2
     2    32    31    2
     3    30    27    1
     4    23    20    1
     5     4    26    1
     6     4    21    2
     7    15    14   ar
     8    27    26   ar
     9    27    28   ar
    10    20    21    1
    11    20    19    2
    12    26    25   ar
    13    21    17    1
    14    31    28    1
    15    28    29   ar
    16    19    22    1
    17    19    18    1
    18    13    14    1
    19    13    12    1
    20    17    18    2
    21    17     1    1
    22    25    29   ar
    23    25     1    1
    24    29     5    1
    25    18     3    1
    26    14    16   ar
    27     5    34    2
    28     3    10    2
    29     1     6    1
    30     1    33    1
    31     6    10   ar
    32     6     7   ar
    33    33    34    1
    34    33    37    2
    35    10     9   ar
    36    34    35    1
    37     7     2    2
    38     7     8   ar
    39    37     2    1
    40    37    36    1
    41    35    36    2
    42    35    38    1
    43     9     8   ar
    44     9    11    1
    45     8    12    1
    46    36    39    1
    47    39    40    1
    48    40    41    1
    49    42    41   ar
    50    41    43   ar
