@<TRIPOS>MOLECULE
1ecb_5GP_A_1.pdb
 24 26 0 0 0
SMALL
GASTEIGER

@<TRIPOS>ATOM
      1  P         26.1420   46.1980   75.6560 P.3   505  5GP505      0.5327
      2  O1P       25.0050   46.8340   74.9500 O.3   505  5GP505     -0.1145
      3  O2P       27.2160   45.7390   74.7200 O.2   505  5GP505     -0.2224
      4  O3P       26.5380   46.9720   76.9000 O.3   505  5GP505     -0.1145
      5  O5'       25.5780   44.7680   76.3050 O.3   505  5GP505     -0.2675
      6  C5'       26.2720   43.6740   77.0540 C.3   505  5GP505      0.1859
      7  C4'       25.2650   42.5890   77.5840 C.3   505  5GP505      0.1801
      8  O4'       24.6810   42.0230   76.3860 O.3   505  5GP505     -0.3326
      9  C3'       25.7860   41.4050   78.4030 C.3   505  5GP505      0.2158
     10  O3'       25.3900   41.6090   79.7190 O.3   505  5GP505     -0.2175
     11  C2'       25.0940   40.1510   77.8250 C.3   505  5GP505      0.2310
     12  O2'       23.9920   39.6140   78.5920 O.3   505  5GP505     -0.2158
     13  C1'       24.4640   40.5960   76.4580 C.3   505  5GP505      0.2293
     14  N9        25.1250   40.0600   75.2350 N.pl3 505  5GP505     -0.2354
     15  C8        24.5660   39.5330   74.0600 C.3   505  5GP505      0.2246
     16  N7        25.4680   39.1480   73.1860 N.2   505  5GP505     -0.2322
     17  C5        26.7180   39.4380   73.8220 C.2   505  5GP505      0.2182
     18  C6        28.0690   39.2280   73.3960 C.1   505  5GP505      0.2372
     19  O6        28.3540   38.7140   72.3400 O.2   505  5GP505     -0.2069
     20  N1        29.0930   39.6350   74.3250 N.2   505  5GP505     -0.2485
     21  C2        28.8370   40.2000   75.5730 C.1   505  5GP505      0.2531
     22  N2        29.8320   40.5390   76.4020 N.pl3 505  5GP505     -0.0226
     23  N3        27.5730   40.3960   75.9740 N.2   505  5GP505     -0.3074
     24  C4        26.5470   39.9990   75.0690 C.2   505  5GP505      0.2300
@<TRIPOS>BOND
     1    19    18    2
     2    16    17    2
     3    16    15    1
     4    18    17    1
     5    18    20    2
     6    17    24    1
     7    15    14    1
     8    20    21    2
     9     3     1    2
    10     2     1    1
    11    24    14    1
    12    24    23    2
    13    14    13    1
    14    21    23    2
    15    21    22    1
    16     1     5    1
    17     1     4    1
    18     5     6    1
    19     8    13    1
    20     8     7    1
    21    13    11    1
    22     6     7    1
    23     7     9    1
    24    11     9    1
    25    11    12    1
    26     9    10    1
