@<TRIPOS>MOLECULE
1ecc_PCP_A_1.pdb
 22 22 0 0 0
SMALL
GASTEIGER

@<TRIPOS>ATOM
      1  C1        89.9830   31.6460   82.7840 C.3   505  PCP505      0.1547
      2  C2        91.0380   32.6720   82.6530 C.3   505  PCP505      0.2094
      3  C3        90.6740   33.7580   83.5770 C.3   505  PCP505      0.1870
      4  C4        89.2020   33.8220   83.2640 C.3   505  PCP505      0.0658
      5  C5        88.7590   32.4340   83.0780 C.3   505  PCP505      0.0379
      6  CP        88.8870   34.6840   81.9800 C.3   505  PCP505      0.1564
      7  O1        90.2310   30.6730   83.8990 O.3   505  PCP505     -0.3136
      8  O2        92.2620   32.1430   83.0580 O.3   505  PCP505     -0.2178
      9  O3        90.9090   33.3160   84.9350 O.3   505  PCP505     -0.2202
     10  OP        87.4560   34.6730   81.6920 O.3   505  PCP505     -0.2702
     11  P         86.0910   35.2760   82.3280 P.3   505  PCP505      0.5326
     12  O1P       85.8640   34.5380   83.5680 O.3   505  PCP505     -0.1145
     13  O2P       86.3420   36.7080   82.5260 O.3   505  PCP505     -0.1145
     14  O3P       85.0140   35.0150   81.3330 O.2   505  PCP505     -0.2224
     15  PA        89.8170   29.0380   83.6110 P.3   505  PCP505      0.2230
     16  O1A       88.5370   28.8490   84.2980 O.3   505  PCP505     -0.4370
     17  O2A       89.6330   28.9000   82.1600 O.2   505  PCP505     -0.5169
     18  O3A       90.9720   28.2170   84.1960 O.3   505  PCP505     -0.2261
     19  PB        92.5070   28.2480   84.1630 P.3   505  PCP505      0.5373
     20  O1B       93.0600   29.5700   84.6640 O.3   505  PCP505     -0.1143
     21  O2B       93.0210   27.9600   82.8020 O.2   505  PCP505     -0.2221
     22  O3B       92.9100   27.1880   85.1110 O.3   505  PCP505     -0.1143
@<TRIPOS>BOND
     1    14    11    2
     2    10     6    1
     3    10    11    1
     4     6     4    1
     5    17    15    2
     6    11    13    1
     7    11    12    1
     8     2     1    1
     9     2     8    1
    10     2     3    1
    11     1     5    1
    12     1     7    1
    13    21    19    2
    14     5     4    1
    15     4     3    1
    16     3     9    1
    17    15     7    1
    18    15    18    1
    19    15    16    1
    20    19    18    1
    21    19    20    1
    22    19    22    1
