@<TRIPOS>MOLECULE
1ecc_ONL_A_1.pdb
 10 9 0 0 0
SMALL
GASTEIGER

@<TRIPOS>ATOM
      1  N         85.8670   25.4160   63.9520 N.3   2377  ONL2377    -0.1208
      2  CA        86.4400   24.1140   64.3650 C.3   2377  ONL2377     0.1948
      3  C         85.4200   23.3610   65.2260 C.2   2377  ONL2377     0.3819
      4  O         84.4200   23.9970   65.6290 O.co2 2377  ONL2377    -0.2441
      5  OXT       85.6420   22.1570   65.4850 O.co2 2377  ONL2377    -0.2441
      6  CB        87.7390   24.3230   65.1530 C.3   2377  ONL2377     0.0384
      7  CG        87.5300   24.8510   66.5540 C.3   2377  ONL2377     0.0666
      8  CD        88.8130   24.9880   67.2880 C.2   2377  ONL2377     0.1511
      9  OD        89.8530   25.2560   66.7010 O.2   2377  ONL2377    -0.2960
     10  CE        88.8140   24.6220   68.7460 C.3   2377  ONL2377     0.0722
@<TRIPOS>BOND
     1     1     2    1
     2     2     6    1
     3     2     3    1
     4     6     7    1
     5     3     5   ar
     6     3     4   ar
     7     7     8    1
     8     9     8    2
     9     8    10    1
