@<TRIPOS>MOLECULE
1ecd_HEM_A_1.pdb
 43 50 0 0 0
SMALL
GASTEIGER

@<TRIPOS>ATOM
      1 FE          9.3910   17.0340   25.9600 Fe    137  HEM137      0.0000
      2  CHA       12.3670   15.3170   26.2760 C.2   137  HEM137      0.0000
      3  CHB       11.1550   19.9840   25.8120 C.2   137  HEM137      0.0000
      4  CHC        6.5590   18.7000   25.0750 C.2   137  HEM137      0.0000
      5  CHD        7.7130   14.0820   25.9310 C.2   137  HEM137      0.0000
      6  NA        11.3900   17.5430   25.8980 N.ar  137  HEM137      0.0000
      7  C1A       12.4430   16.7020   26.2090 C.ar  137  HEM137      0.0000
      8  C2A       13.6250   17.4970   26.5040 C.ar  137  HEM137      0.0000
      9  C3A       13.2890   18.7840   26.3720 C.ar  137  HEM137      0.0000
     10  C4A       11.8870   18.8310   25.9920 C.ar  137  HEM137      0.0000
     11  CMA       14.2130   19.9660   26.5860 C.3   137  HEM137      0.0000
     12  CAA       14.9940   16.9790   26.8910 C.3   137  HEM137      0.0000
     13  CBA       15.7520   16.6830   25.6350 C.3   137  HEM137      0.0000
     14  CGA       17.0740   16.0210   26.0220 C.2   137  HEM137      0.0000
     15  O1A       17.3310   14.9360   25.6600 O.co2 137  HEM137      0.0000
     16  O2A       17.8780   16.6190   26.7140 O.co2 137  HEM137      0.0000
     17  NB         8.9640   18.9450   25.4640 N.2   137  HEM137      0.0000
     18  C1B        9.8030   20.0400   25.5580 C.2   137  HEM137      0.0000
     19  C2B        9.0350   21.2620   25.3670 C.2   137  HEM137      0.0000
     20  C3B        7.7650   20.9080   25.1630 C.2   137  HEM137      0.0000
     21  C4B        7.7020   19.4540   25.2210 C.2   137  HEM137      0.0000
     22  CMB        9.5620   22.6850   25.3910 C.3   137  HEM137      0.0000
     23  CAB        6.6130   21.8610   24.9180 C.2   137  HEM137      0.0000
     24  CBB        5.6060   21.5070   24.1240 C.2   137  HEM137      0.0000
     25  NC         7.5270   16.5000   25.5610 N.ar  137  HEM137      0.0000
     26  C1C        6.4680   17.3370   25.2630 C.ar  137  HEM137      0.0000
     27  C2C        5.2440   16.5550   25.1690 C.ar  137  HEM137      0.0000
     28  C3C        5.5630   15.2790   25.4060 C.ar  137  HEM137      0.0000
     29  C4C        6.9950   15.2260   25.6540 C.ar  137  HEM137      0.0000
     30  CMC        3.8560   17.0740   24.8610 C.3   137  HEM137      0.0000
     31  CAC        4.5960   14.1120   25.4100 C.2   137  HEM137      0.0000
     32  CBC        4.7240   13.1260   24.5240 C.2   137  HEM137      0.0000
     33  ND         9.9400   15.0940   26.0350 N.2   137  HEM137      0.0000
     34  C1D        9.0780   14.0130   26.0840 C.2   137  HEM137      0.0000
     35  C2D        9.8330   12.7940   26.3290 C.2   137  HEM137      0.0000
     36  C3D       11.1190   13.1360   26.4250 C.2   137  HEM137      0.0000
     37  C4D       11.2050   14.5780   26.2430 C.2   137  HEM137      0.0000
     38  CMD        9.2810   11.3880   26.4560 C.3   137  HEM137      0.0000
     39  CAD       12.2670   12.1800   26.6780 C.3   137  HEM137      0.0000
     40  CBD       12.3240   11.9210   28.1440 C.3   137  HEM137      0.0000
     41  CGD       12.7540   13.2130   28.8350 C.2   137  HEM137      0.0000
     42  O1D       13.8750   13.5630   28.8080 O.co2 137  HEM137      0.0000
     43  O2D       11.9330   13.8950   29.4250 O.co2 137  HEM137      0.0000
@<TRIPOS>BOND
     1    24    23    2
     2    32    31    2
     3    30    27    1
     4    23    20    1
     5     4    21    2
     6     4    26    1
     7    20    21    1
     8    20    19    2
     9    27    26   ar
    10    27    28   ar
    11    21    17    1
    12    26    25   ar
    13    19    22    1
    14    19    18    1
    15    28    31    1
    16    28    29   ar
    17    17    18    2
    18    17     1    1
    19    18     3    1
    20    25    29   ar
    21    25     1    1
    22    13    14    1
    23    13    12    1
    24    29     5    1
    25    15    14   ar
    26     3    10    2
    27     6     1    1
    28     6    10   ar
    29     6     7   ar
    30     5    34    2
    31     1    33    1
    32    10     9   ar
    33    14    16   ar
    34    33    34    1
    35    33    37    2
    36    34    35    1
    37     7     2    2
    38     7     8   ar
    39    37     2    1
    40    37    36    1
    41    35    36    2
    42    35    38    1
    43     9     8   ar
    44     9    11    1
    45    36    39    1
    46     8    12    1
    47    39    40    1
    48    40    41    1
    49    42    41   ar
    50    41    43   ar
