@<TRIPOS>MOLECULE
1ece_BGC_A_1.pdb
 12 12 0 0 0
SMALL
GASTEIGER

@<TRIPOS>ATOM
      1  C2        -5.0460   81.5130   94.7410 C.3   401  BGC401      0.2434
      2  C3        -6.2290   80.8030   94.0730 C.3   401  BGC401      0.2199
      3  C4        -6.1170   80.8930   92.5560 C.3   401  BGC401      0.2144
      4  C5        -4.7190   80.5340   92.0380 C.3   401  BGC401      0.1836
      5  C6        -4.5790   80.9230   90.5640 C.3   401  BGC401      0.2142
      6  C1        -3.7520   80.9670   94.1770 C.3   401  BGC401      0.3024
      7  O1        -2.6770   81.5880   94.7940 O.3   401  BGC401     -0.1869
      8  O2        -5.0790   81.3270   96.1510 O.3   401  BGC401     -0.2148
      9  O3        -7.4480   81.4140   94.4820 O.3   401  BGC401     -0.2174
     10  O4        -7.0700   80.0070   91.9470 O.3   401  BGC401     -0.2176
     11  O5        -3.6990   81.2480   92.7780 O.3   401  BGC401     -0.3236
     12  O6        -3.3060   80.5550   90.0500 O.3   401  BGC401     -0.2176
@<TRIPOS>BOND
     1    12     5    1
     2     5     4    1
     3    10     3    1
     4     4     3    1
     5     4    11    1
     6     3     2    1
     7    11     6    1
     8     2     9    1
     9     2     1    1
    10     6     1    1
    11     6     7    1
    12     1     8    1
