@<TRIPOS>MOLECULE
1ecf_PIN_A_1.pdb
 18 18 0 0 0
SMALL
GASTEIGER

@<TRIPOS>ATOM
      1  C1        69.3450   47.0750   57.6700 C.3   505  PIN505      0.1225
      2  C2        70.5530   47.8760   58.1420 C.3   505  PIN505      0.0939
      3  N1        71.6840   47.9030   57.1300 N.3   505  PIN505     -0.2689
      4  C3        72.3320   46.6020   56.9970 C.3   505  PIN505      0.0897
      5  C4        71.2260   48.3410   55.8170 C.3   505  PIN505      0.0897
      6  C1'       75.0750   46.0940   53.6710 C.3   505  PIN505      0.1225
      7  C2'       74.3250   47.4070   53.8200 C.3   505  PIN505      0.0939
      8  N1'       73.1120   47.2180   54.7110 N.3   505  PIN505     -0.2689
      9  C3'       72.3970   48.4890   54.8780 C.3   505  PIN505      0.0897
     10  C4'       73.5030   46.6790   56.0350 C.3   505  PIN505      0.0897
     11  S1        67.9540   47.4080   58.7600 S.3   505  PIN505     -0.1946
     12  S1'       75.6690   45.8640   51.9830 S.3   505  PIN505     -0.1946
     13  O1        67.1340   46.2150   58.7750 O.3   505  PIN505     -0.3074
     14  O2        67.2650   48.5460   58.1800 O.3   505  PIN505     -0.3074
     15  O3        68.5390   47.6940   60.0600 O.3   505  PIN505     -0.3074
     16  O1'       76.4260   44.6280   52.0060 O.3   505  PIN505     -0.3074
     17  O2'       74.4780   45.7790   51.1530 O.3   505  PIN505     -0.3074
     18  O3'       76.4860   47.0270   51.6920 O.3   505  PIN505     -0.3074
@<TRIPOS>BOND
     1    17    12    1
     2    18    12    1
     3    12    16    1
     4    12     6    1
     5     6     7    1
     6     7     8    1
     7     8     9    1
     8     8    10    1
     9     9     5    1
    10     5     3    1
    11    10     4    1
    12     4     3    1
    13     3     2    1
    14     1     2    1
    15     1    11    1
    16    14    11    1
    17    11    13    1
    18    11    15    1
