@<TRIPOS>MOLECULE
1ecg_ONL_A_1.pdb
 10 9 0 0 0
SMALL
GASTEIGER

@<TRIPOS>ATOM
      1  N         65.4240   63.0320   44.5310 N.3   505  ONL505     -0.1208
      2  CA        65.6830   62.7530   43.1170 C.3   505  ONL505      0.1948
      3  C         64.4790   62.0100   42.5840 C.2   505  ONL505      0.3819
      4  O         64.3530   61.9320   41.3370 O.co2 505  ONL505     -0.2441
      5  OXT       63.6760   61.5350   43.4290 O.co2 505  ONL505     -0.2441
      6  CB        66.9340   61.8940   42.9690 C.3   505  ONL505      0.0384
      7  CG        66.9090   60.5940   43.7370 C.3   505  ONL505      0.0666
      8  CD        68.2890   60.0170   43.8400 C.2   505  ONL505      0.1511
      9  OD        69.2890   60.7430   43.8160 O.2   505  ONL505     -0.2960
     10  CE        68.4170   58.5220   43.8770 C.3   505  ONL505      0.0722
@<TRIPOS>BOND
     1     4     3   ar
     2     3     2    1
     3     3     5   ar
     4     6     2    1
     5     6     7    1
     6     2     1    1
     7     7     8    1
     8     9     8    2
     9     8    10    1
