@<TRIPOS>MOLECULE
1ecg_PIN_A_1.pdb
 18 18 0 0 0
SMALL
GASTEIGER

@<TRIPOS>ATOM
      1  C1        69.3780   47.1390   57.7490 C.3   506  PIN506      0.1225
      2  C2        70.5910   47.9370   58.1960 C.3   506  PIN506      0.0939
      3  N1        71.6960   47.9360   57.1700 N.3   506  PIN506     -0.2689
      4  C3        72.2600   46.6060   56.9720 C.3   506  PIN506      0.0897
      5  C4        71.2260   48.4310   55.8870 C.3   506  PIN506      0.0897
      6  C1'       74.9120   46.1000   53.5750 C.3   506  PIN506      0.1225
      7  C2'       74.2000   47.4250   53.7770 C.3   506  PIN506      0.0939
      8  N1'       73.0050   47.2520   54.6880 N.3   506  PIN506     -0.2689
      9  C3'       72.3690   48.5470   54.9220 C.3   506  PIN506      0.0897
     10  C4'       73.4070   46.6550   55.9830 C.3   506  PIN506      0.0897
     11  S1        67.9950   47.4360   58.8710 S.3   506  PIN506     -0.1946
     12  S1'       75.5920   45.9790   51.9150 S.3   506  PIN506     -0.1946
     13  O1        67.1700   46.2500   58.8150 O.3   506  PIN506     -0.3074
     14  O2        67.3050   48.6070   58.3570 O.3   506  PIN506     -0.3074
     15  O3        68.5840   47.6420   60.1840 O.3   506  PIN506     -0.3074
     16  O1'       76.3960   44.7710   51.9100 O.3   506  PIN506     -0.3074
     17  O2'       74.4450   45.9040   51.0290 O.3   506  PIN506     -0.3074
     18  O3'       76.3850   47.1750   51.7260 O.3   506  PIN506     -0.3074
@<TRIPOS>BOND
     1    17    12    1
     2    18    12    1
     3    16    12    1
     4    12     6    1
     5     6     7    1
     6     7     8    1
     7     8     9    1
     8     8    10    1
     9     9     5    1
    10     5     3    1
    11    10     4    1
    12     4     3    1
    13     3     2    1
    14     1     2    1
    15     1    11    1
    16    14    11    1
    17    13    11    1
    18    11    15    1
