@<TRIPOS>MOLECULE
1ecj_AMP_A_1.pdb
 23 25 0 0 0
SMALL
GASTEIGER

@<TRIPOS>ATOM
      1  P         38.9750   46.8710   59.0620 P.3   505  AMP505      0.5327
      2  O1P       39.1030   45.6370   59.7610 O.3   505  AMP505     -0.1145
      3  O2P       39.1360   47.9350   60.0020 O.3   505  AMP505     -0.1145
      4  O3P       37.7790   47.0070   58.3080 O.2   505  AMP505     -0.2224
      5  O5'       40.1630   47.0010   58.1060 O.3   505  AMP505     -0.2675
      6  C5'       41.5490   47.1670   58.3530 C.3   505  AMP505      0.1860
      7  C4'       42.4310   46.3340   57.3500 C.3   505  AMP505      0.1823
      8  O4'       41.9640   46.7810   56.0970 O.3   505  AMP505     -0.3135
      9  C3'       43.9690   46.5260   57.2610 C.3   505  AMP505      0.2184
     10  O3'       44.6840   45.2950   57.3820 O.3   505  AMP505     -0.2174
     11  C2'       44.2750   47.0320   55.8580 C.3   505  AMP505      0.2570
     12  O2'       44.8510   46.0570   54.9780 O.3   505  AMP505     -0.2130
     13  C1'       42.9480   47.3340   55.2520 C.3   505  AMP505      0.3186
     14  N9        42.6340   48.7730   55.0740 N.pl3 505  AMP505     -0.1439
     15  C8        43.0860   49.8860   55.7140 C.3   505  AMP505      0.3377
     16  N7        42.5210   51.0010   55.3390 N.2   505  AMP505     -0.2095
     17  C5        41.6320   50.5930   54.3870 C.2   505  AMP505      0.2526
     18  C6        40.7060   51.2760   53.6170 C.2   505  AMP505      0.4393
     19  N6        40.4560   52.5700   53.7400 N.pl3 505  AMP505      0.2180
     20  N1        39.9780   50.5740   52.7570 N.2   505  AMP505      0.0021
     21  C2        40.1580   49.2800   52.6700 C.3   505  AMP505      0.5254
     22  N3        40.9870   48.5300   53.3450 N.2   505  AMP505     -0.0055
     23  C4        41.7040   49.2540   54.2070 C.2   505  AMP505      0.3518
@<TRIPOS>BOND
     1    21    20    1
     2    21    22    1
     3    20    18    2
     4    22    23    2
     5    18    19    1
     6    18    17    1
     7    23    17    1
     8    23    14    1
     9    17    16    2
    10    12    11    1
    11    14    13    1
    12    14    15    1
    13    13    11    1
    14    13     8    1
    15    16    15    1
    16    11     9    1
    17     8     7    1
    18     9     7    1
    19     9    10    1
    20     7     6    1
    21     5     6    1
    22     5     1    1
    23     4     1    2
    24     1     2    1
    25     1     3    1
