@<TRIPOS>MOLECULE
1ecm_TSA_A_1.pdb
 26 27 0 0 0
SMALL
GASTEIGER

@<TRIPOS>ATOM
      1  C1        26.8420   31.8300   24.7000 C.3   500  TSA500      0.0807
      2  C2        26.3940   31.0370   23.4570 C.3   500  TSA500     -0.0152
      3  C3        25.6220   31.6300   22.5190 C.3   500  TSA500     -0.0029
      4  C4        24.9200   32.9720   22.7000 C.3   500  TSA500      0.0848
      5  O5        23.5540   32.6930   22.9380 O.3   500  TSA500     -0.3889
      6  C5        25.4150   33.7520   23.9120 C.3   500  TSA500      0.0869
      7  C6        25.6740   32.7690   25.0910 C.3   500  TSA500     -0.0078
      8  O7        26.6180   34.4580   23.6380 O.3   500  TSA500     -0.3594
      9  C8        27.9190   33.8600   23.5840 C.3   500  TSA500      0.1607
     10  C9        28.0630   32.7350   24.6070 C.3   500  TSA500      0.0003
     11  C10       27.3070   30.8880   25.8220 C.2   500  TSA500      0.3625
     12  O1        27.0780   31.2330   26.9910 O.co2 500  TSA500     -0.2457
     13  O2        27.9590   29.8660   25.5440 O.co2 500  TSA500     -0.2457
     14  C11       28.2450   33.3500   22.1810 C.2   500  TSA500      0.3842
     15  O3        28.9850   32.3650   21.9850 O.co2 500  TSA500     -0.2434
     16  O4        27.6240   33.9060   21.2640 O.co2 500  TSA500     -0.2434
     17  H2        26.7280   30.0090   23.3760 H     500  TSA500      0.0318
     18  H3        25.5390   31.1850   21.5430 H     500  TSA500      0.0333
     19  H4        25.0080   33.5780   21.7890 H     500  TSA500      0.0622
     20  HO5       23.3870   31.8530   22.4990 H     500  TSA500      0.2099
     21  H5        24.6680   34.4980   24.1720 H     500  TSA500      0.0622
     22  H61       25.8280   33.2800   26.0300 H     500  TSA500      0.0302
     23  H62       24.7920   32.1810   25.3010 H     500  TSA500      0.0302
     24  H8        28.6530   34.6390   23.7680 H     500  TSA500      0.0715
     25  H91       28.9730   32.1730   24.4530 H     500  TSA500      0.0306
     26  H92       28.3040   33.1760   25.5700 H     500  TSA500      0.0306
@<TRIPOS>BOND
     1    16    14   ar
     2    18     3    1
     3    19     4    1
     4    15    14   ar
     5    14     9    1
     6    20     5    1
     7     3     4    1
     8     3     2    1
     9     4     5    1
    10     4     6    1
    11    17     2    1
    12     2     1    1
    13     9     8    1
    14     9    24    1
    15     9    10    1
    16     8     6    1
    17     6    21    1
    18     6     7    1
    19    25    10    1
    20    10     1    1
    21    10    26    1
    22     1     7    1
    23     1    11    1
    24     7    23    1
    25     7    22    1
    26    13    11   ar
    27    11    12   ar
