@<TRIPOS>MOLECULE
1ecn_HEM_A_1.pdb
 43 50 0 0 0
SMALL
GASTEIGER

@<TRIPOS>ATOM
      1 FE          9.3510   17.1110   25.9160 Fe    138  HEM138      0.0000
      2  CHA       12.2670   15.3350   26.2590 C.2   138  HEM138      0.0000
      3  CHB       11.0930   20.0380   25.9790 C.2   138  HEM138      0.0000
      4  CHC        6.5140   18.8080   25.0680 C.2   138  HEM138      0.0000
      5  CHD        7.5900   14.1770   25.9550 C.2   138  HEM138      0.0000
      6  NA        11.2980   17.5940   26.0330 N.2   138  HEM138      0.0000
      7  C1A       12.3580   16.7350   26.2560 C.2   138  HEM138      0.0000
      8  C2A       13.5680   17.5100   26.4860 C.2   138  HEM138      0.0000
      9  C3A       13.2400   18.8030   26.4040 C.2   138  HEM138      0.0000
     10  C4A       11.8160   18.8750   26.1190 C.2   138  HEM138      0.0000
     11  CMA       14.1920   19.9700   26.5790 C.3   138  HEM138      0.0000
     12  CAA       14.9530   16.9680   26.7700 C.3   138  HEM138      0.0000
     13  CBA       15.5740   16.5740   25.4670 C.3   138  HEM138      0.0000
     14  CGA       16.9630   16.0040   25.7560 C.2   138  HEM138      0.0000
     15  O1A       17.3990   15.1280   25.1100 O.co2 138  HEM138      0.0000
     16  O2A       17.6340   16.4590   26.6650 O.co2 138  HEM138      0.0000
     17  NB         8.9030   19.0250   25.5520 N.ar  138  HEM138      0.0000
     18  C1B        9.7500   20.1110   25.6860 C.ar  138  HEM138      0.0000
     19  C2B        9.0020   21.3420   25.4780 C.ar  138  HEM138      0.0000
     20  C3B        7.7370   21.0030   25.2260 C.ar  138  HEM138      0.0000
     21  C4B        7.6570   19.5500   25.2690 C.ar  138  HEM138      0.0000
     22  CMB        9.5420   22.7590   25.5330 C.3   138  HEM138      0.0000
     23  CAB        6.6030   21.9710   24.9490 C.2   138  HEM138      0.0000
     24  CBB        5.8150   21.7960   23.8910 C.2   138  HEM138      0.0000
     25  NC         7.4480   16.5930   25.5500 N.2   138  HEM138      0.0000
     26  C1C        6.4010   17.4480   25.2610 C.2   138  HEM138      0.0000
     27  C2C        5.1600   16.6890   25.1950 C.2   138  HEM138      0.0000
     28  C3C        5.4580   15.4090   25.4400 C.2   138  HEM138      0.0000
     29  C4C        6.8920   15.3310   25.6660 C.2   138  HEM138      0.0000
     30  CMC        3.7770   17.2320   24.9040 C.3   138  HEM138      0.0000
     31  CAC        4.4680   14.2620   25.4730 C.2   138  HEM138      0.0000
     32  CBC        4.5620   13.2640   24.5960 C.2   138  HEM138      0.0000
     33  ND         9.8330   15.1540   26.0570 N.ar  138  HEM138      0.0000
     34  C1D        8.9550   14.0860   26.0930 C.ar  138  HEM138      0.0000
     35  C2D        9.6960   12.8500   26.2970 C.ar  138  HEM138      0.0000
     36  C3D       10.9880   13.1710   26.3810 C.ar  138  HEM138      0.0000
     37  C4D       11.0930   14.6150   26.2330 C.ar  138  HEM138      0.0000
     38  CMD        9.1240   11.4500   26.3980 C.3   138  HEM138      0.0000
     39  CAD       12.1250   12.1920   26.5940 C.3   138  HEM138      0.0000
     40  CBD       12.2310   11.9340   28.0570 C.3   138  HEM138      0.0000
     41  CGD       12.6580   13.2330   28.7360 C.2   138  HEM138      0.0000
     42  O1D       13.7570   13.6340   28.6270 O.co2 138  HEM138      0.0000
     43  O2D       11.8570   13.8690   29.4010 O.co2 138  HEM138      0.0000
@<TRIPOS>BOND
     1    24    23    2
     2    32    31    2
     3    30    27    1
     4    23    20    1
     5     4    26    2
     6     4    21    1
     7    15    14   ar
     8    27    26    1
     9    27    28    2
    10    20    21   ar
    11    20    19   ar
    12    26    25    1
    13    21    17   ar
    14    28    31    1
    15    28    29    1
    16    13    14    1
    17    13    12    1
    18    19    22    1
    19    19    18   ar
    20    25    29    2
    21    25     1    1
    22    17    18   ar
    23    17     1    1
    24    29     5    1
    25    18     3    1
    26    14    16   ar
    27     1     6    1
    28     1    33    1
    29     5    34    2
    30     3    10    2
    31     6    10    1
    32     6     7    2
    33    33    34   ar
    34    33    37   ar
    35    34    35   ar
    36    10     9    1
    37    37     2    2
    38    37    36   ar
    39     7     2    1
    40     7     8    1
    41    35    36   ar
    42    35    38    1
    43    36    39    1
    44     9     8    2
    45     9    11    1
    46     8    12    1
    47    39    40    1
    48    40    41    1
    49    42    41   ar
    50    41    43   ar
