@<TRIPOS>MOLECULE
1eco_HEM_A_1.pdb
 43 50 0 0 0
SMALL
GASTEIGER

@<TRIPOS>ATOM
      1 FE          9.2940   17.2140   25.8830 Fe    137  HEM137      0.0000
      2  CHA       12.2110   15.4230   26.2100 C.2   137  HEM137      0.0000
      3  CHB       11.0580   20.1170   25.8890 C.2   137  HEM137      0.0000
      4  CHC        6.4310   18.9180   25.2090 C.2   137  HEM137      0.0000
      5  CHD        7.5350   14.2610   25.9050 C.2   137  HEM137      0.0000
      6  NA        11.2610   17.6710   25.8960 N.2   137  HEM137      0.0000
      7  C1A       12.3050   16.8080   26.1770 C.2   137  HEM137      0.0000
      8  C2A       13.4980   17.5780   26.4900 C.2   137  HEM137      0.0000
      9  C3A       13.1790   18.8720   26.3980 C.2   137  HEM137      0.0000
     10  C4A       11.7760   18.9490   26.0260 C.2   137  HEM137      0.0000
     11  CMA       14.1200   20.0360   26.6420 C.3   137  HEM137      0.0000
     12  CAA       14.8620   17.0300   26.8540 C.3   137  HEM137      0.0000
     13  CBA       15.6000   16.7350   25.5860 C.3   137  HEM137      0.0000
     14  CGA       16.9330   16.0840   25.9520 C.2   137  HEM137      0.0000
     15  O1A       17.2730   15.0830   25.4430 O.co2 137  HEM137      0.0000
     16  O2A       17.6600   16.6010   26.7810 O.co2 137  HEM137      0.0000
     17  NB         8.8450   19.1180   25.5590 N.ar  137  HEM137      0.0000
     18  C1B        9.7020   20.1980   25.6640 C.ar  137  HEM137      0.0000
     19  C2B        8.9490   21.4360   25.5170 C.ar  137  HEM137      0.0000
     20  C3B        7.6710   21.1050   25.3290 C.ar  137  HEM137      0.0000
     21  C4B        7.5870   19.6510   25.3530 C.ar  137  HEM137      0.0000
     22  CMB        9.4970   22.8500   25.5650 C.3   137  HEM137      0.0000
     23  CAB        6.5280   22.0810   25.1290 C.2   137  HEM137      0.0000
     24  CBB        5.5750   21.8240   24.2370 C.2   137  HEM137      0.0000
     25  NC         7.3740   16.6930   25.6280 N.2   137  HEM137      0.0000
     26  C1C        6.3240   17.5510   25.3590 C.2   137  HEM137      0.0000
     27  C2C        5.0920   16.7850   25.2370 C.2   137  HEM137      0.0000
     28  C3C        5.3970   15.4980   25.4290 C.2   137  HEM137      0.0000
     29  C4C        6.8280   15.4220   25.6770 C.2   137  HEM137      0.0000
     30  CMC        3.7090   17.3290   24.9460 C.3   137  HEM137      0.0000
     31  CAC        4.4180   14.3420   25.3930 C.2   137  HEM137      0.0000
     32  CBC        4.5370   13.3860   24.4730 C.2   137  HEM137      0.0000
     33  ND         9.7780   15.2380   25.9930 N.ar  137  HEM137      0.0000
     34  C1D        8.9010   14.1690   26.0350 C.ar  137  HEM137      0.0000
     35  C2D        9.6420   12.9360   26.2500 C.ar  137  HEM137      0.0000
     36  C3D       10.9330   13.2580   26.3340 C.ar  137  HEM137      0.0000
     37  C4D       11.0380   14.7010   26.1750 C.ar  137  HEM137      0.0000
     38  CMD        9.0710   11.5350   26.3600 C.3   137  HEM137      0.0000
     39  CAD       12.0710   12.2810   26.5570 C.3   137  HEM137      0.0000
     40  CBD       12.1470   12.0020   28.0180 C.3   137  HEM137      0.0000
     41  CGD       12.6260   13.2720   28.7170 C.2   137  HEM137      0.0000
     42  O1D       13.7560   13.5880   28.6800 O.co2 137  HEM137      0.0000
     43  O2D       11.8330   13.9730   29.3240 O.co2 137  HEM137      0.0000
@<TRIPOS>BOND
     1    24    23    2
     2    32    31    2
     3    30    27    1
     4    23    20    1
     5     4    21    1
     6     4    26    2
     7    27    26    1
     8    27    28    2
     9    20    21   ar
    10    20    19   ar
    11    21    17   ar
    12    26    25    1
    13    31    28    1
    14    28    29    1
    15    15    14   ar
    16    19    22    1
    17    19    18   ar
    18    17    18   ar
    19    17     1    1
    20    13    14    1
    21    13    12    1
    22    25    29    2
    23    25     1    1
    24    18     3    1
    25    29     5    1
    26     1     6    1
    27     1    33    1
    28     3    10    2
    29     6    10    1
    30     6     7    2
    31     5    34    2
    32    14    16   ar
    33    33    34   ar
    34    33    37   ar
    35    10     9    1
    36    34    35   ar
    37    37     2    2
    38    37    36   ar
    39     7     2    1
    40     7     8    1
    41    35    36   ar
    42    35    38    1
    43    36    39    1
    44     9     8    2
    45     9    11    1
    46     8    12    1
    47    39    40    1
    48    40    41    1
    49    42    41   ar
    50    41    43   ar
