@<TRIPOS>MOLECULE
1ecv_878_A_1.pdb
 16 16 0 0 0
SMALL
GASTEIGER

@<TRIPOS>ATOM
      1  C1        12.5800   45.0950   19.1910 C.ar  301  878301      0.0071
      2  C2        11.6470   45.7120   20.0210 C.ar  301  878301      0.0173
      3  C3        10.3050   45.6960   19.6290 C.ar  301  878301      0.0803
      4  C4         9.9240   45.1170   18.4090 C.ar  301  878301      0.0955
      5  C5        10.8440   44.4610   17.6030 C.ar  301  878301      0.0137
      6  C6        12.1690   44.4310   18.0190 C.ar  301  878301      0.0304
      7  C10        8.4990   45.1420   17.9810 C.2   301  878301      0.3890
      8  O11        7.5840   45.2690   18.7380 O.co2 301  878301     -0.2405
      9  O12        8.2750   44.9050   16.6860 O.co2 301  878301     -0.2405
     10  N13        9.3060   46.1420   20.4340 N.am  301  878301     -0.1696
     11  C14        9.3470   46.8630   21.5730 C.2   301  878301      0.3491
     12  O15       10.3890   47.1340   22.1730 O.2   301  878301     -0.2607
     13  C16        7.9330   47.2600   22.1520 C.2   301  878301      0.4422
     14  O17        6.9810   46.5360   22.1490 O.co2 301  878301     -0.2353
     15  O18        7.8610   48.4170   22.7810 O.co2 301  878301     -0.2353
     16  I19       13.5490   43.3360   16.8780 I     301  878301     -0.0425
@<TRIPOS>BOND
     1     9     7   ar
     2    16     6    1
     3     5     6   ar
     4     5     4   ar
     5     7     4    1
     6     7     8   ar
     7     6     1   ar
     8     4     3   ar
     9     1     2   ar
    10     3     2   ar
    11     3    10    1
    12    10    11   am
    13    11    13    1
    14    11    12    2
    15    14    13   ar
    16    13    15   ar
