@<TRIPOS>MOLECULE
1ecx_PLP_A_1.pdb
 15 15 0 0 0
SMALL
GASTEIGER

@<TRIPOS>ATOM
      1  N1        11.8190   45.5490   49.4290 N.ar  500  PLP500     -0.2452
      2  C2        11.3290   46.7610   49.8810 C.ar  500  PLP500      0.0978
      3  C2A       10.6690   46.8390   51.2640 C.3   500  PLP500      0.0555
      4  C3        11.4380   47.8720   49.0870 C.ar  500  PLP500      0.2049
      5  O3        10.9700   49.0730   49.5300 O.3   500  PLP500     -0.2857
      6  C4        12.0650   47.7570   47.8150 C.ar  500  PLP500      0.0182
      7  C4A       12.1830   49.0230   46.9420 C.3   500  PLP500      0.0342
      8  C5        12.5610   46.4830   47.3870 C.ar  500  PLP500      0.0261
      9  C6        12.4280   45.4060   48.2130 C.ar  500  PLP500      0.0965
     10  C5A       13.2630   46.2480   46.0640 C.3   500  PLP500      0.1815
     11  O4P       14.5190   46.8380   45.7910 O.3   500  PLP500     -0.2653
     12  P         15.2410   46.6170   44.4030 P.3   500  PLP500      0.5329
     13  O1P       15.6450   45.2080   44.3240 O.3   500  PLP500     -0.1145
     14  O2P       16.5360   47.4880   44.7550 O.3   500  PLP500     -0.1145
     15  O3P       14.4930   47.2510   43.3070 O.2   500  PLP500     -0.2224
@<TRIPOS>BOND
     1    15    12    2
     2    13    12    1
     3    12    14    1
     4    12    11    1
     5    11    10    1
     6    10     8    1
     7     7     6    1
     8     8     6   ar
     9     8     9   ar
    10     6     4   ar
    11     9     1   ar
    12     4     5    1
    13     4     2   ar
    14     1     2   ar
    15     2     3    1
