@<TRIPOS>MOLECULE
1ed4_HEM_A_1.pdb
 43 50 0 0 0
SMALL
GASTEIGER

@<TRIPOS>ATOM
      1  CHA        9.2680    9.1020   35.1740 C.2   1500  HEM1500     0.0000
      2  CHB        4.6300    9.1730   33.7040 C.2   1500  HEM1500     0.0000
      3  CHC        6.1210    7.5540   29.3890 C.2   1500  HEM1500     0.0000
      4  CHD       10.5570    6.7220   31.1630 C.2   1500  HEM1500     0.0000
      5  C1A        7.8940    9.3660   35.0850 C.2   1500  HEM1500     0.0000
      6  C2A        7.1570   10.1750   36.0280 C.2   1500  HEM1500     0.0000
      7  C3A        5.8420   10.1500   35.6630 C.2   1500  HEM1500     0.0000
      8  C4A        5.7770    9.3480   34.4590 C.2   1500  HEM1500     0.0000
      9  CMA        4.6510   10.7950   36.3890 C.3   1500  HEM1500     0.0000
     10  CAA        7.7770   10.9240   37.2190 C.3   1500  HEM1500     0.0000
     11  CBA        8.0880   12.3600   36.8320 C.3   1500  HEM1500     0.0000
     12  CGA        8.7370   13.1440   37.9590 C.2   1500  HEM1500     0.0000
     13  O1A        8.2440   13.0660   39.1090 O.co2 1500  HEM1500     0.0000
     14  O2A        9.7360   13.8470   37.6870 O.co2 1500  HEM1500     0.0000
     15  C1B        4.5950    8.5750   32.4400 C.ar  1500  HEM1500     0.0000
     16  C2B        3.4580    8.6230   31.5590 C.ar  1500  HEM1500     0.0000
     17  C3B        3.8640    8.1630   30.3450 C.ar  1500  HEM1500     0.0000
     18  C4B        5.2760    7.8720   30.4720 C.ar  1500  HEM1500     0.0000
     19  CMB        2.0490    9.1150   31.9120 C.3   1500  HEM1500     0.0000
     20  CAB        3.0620    8.1040   29.1950 C.2   1500  HEM1500     0.0000
     21  CBB        3.0440    7.0930   28.2730 C.2   1500  HEM1500     0.0000
     22  C1C        7.4790    7.2570   29.4990 C.2   1500  HEM1500     0.0000
     23  C2C        8.2860    6.7990   28.3880 C.2   1500  HEM1500     0.0000
     24  C3C        9.5240    6.4910   28.8760 C.2   1500  HEM1500     0.0000
     25  C4C        9.4590    6.7940   30.3060 C.2   1500  HEM1500     0.0000
     26  CMC        7.8100    6.6510   26.9370 C.3   1500  HEM1500     0.0000
     27  CAC       10.6450    5.9670   28.2000 C.2   1500  HEM1500     0.0000
     28  CBC       10.6740    5.2050   27.0610 C.2   1500  HEM1500     0.0000
     29  C1D       10.5660    7.2010   32.4800 C.ar  1500  HEM1500     0.0000
     30  C2D       11.7580    7.3650   33.2780 C.ar  1500  HEM1500     0.0000
     31  C3D       11.4130    8.1190   34.3590 C.ar  1500  HEM1500     0.0000
     32  C4D        9.9930    8.3530   34.2540 C.ar  1500  HEM1500     0.0000
     33  CMD       13.1600    6.7830   33.0030 C.3   1500  HEM1500     0.0000
     34  CAD       12.3260    8.6780   35.4700 C.3   1500  HEM1500     0.0000
     35  CBD       13.1100    9.9030   35.0110 C.3   1500  HEM1500     0.0000
     36  CGD       13.8400   10.5960   36.1470 C.2   1500  HEM1500     0.0000
     37  O1D       14.4220    9.8920   36.9970 O.co2 1500  HEM1500     0.0000
     38  O2D       13.8420   11.8490   36.1830 O.co2 1500  HEM1500     0.0000
     39  NA         7.0560    8.8600   34.1020 N.2   1500  HEM1500     0.0000
     40  NB         5.7250    8.0490   31.7840 N.ar  1500  HEM1500     0.0000
     41  NC         8.1800    7.2430   30.6990 N.2   1500  HEM1500     0.0000
     42  ND         9.4530    7.7660   33.1060 N.ar  1500  HEM1500     0.0000
     43 FE          7.5250    7.6480   32.5780 Fe    1500  HEM1500     0.0000
@<TRIPOS>BOND
     1    26    23    1
     2    28    27    2
     3    27    24    1
     4    21    20    2
     5    23    24    2
     6    23    22    1
     7    24    25    1
     8    20    17    1
     9     3    22    2
    10     3    18    1
    11    22    41    1
    12    25    41    2
    13    25     4    1
    14    17    18   ar
    15    17    16   ar
    16    18    40   ar
    17    41    43    1
    18     4    29    2
    19    16    19    1
    20    16    15   ar
    21    40    15   ar
    22    40    43    1
    23    15     2    1
    24    29    42   ar
    25    29    30   ar
    26    43    42    1
    27    43    39    1
    28    33    30    1
    29    42    32   ar
    30    30    31   ar
    31     2     8    2
    32    39     8    1
    33    39     5    2
    34    32    31   ar
    35    32     1    2
    36    31    34    1
    37     8     7    1
    38    35    34    1
    39    35    36    1
    40     5     1    1
    41     5     6    1
    42     7     6    2
    43     7     9    1
    44     6    10    1
    45    36    38   ar
    46    36    37   ar
    47    11    10    1
    48    11    12    1
    49    14    12   ar
    50    12    13   ar
