@<TRIPOS>MOLECULE
1ed5_NRG_A_1.pdb
 15 14 0 0 0
SMALL
GASTEIGER

@<TRIPOS>ATOM
      1  N          8.1580   15.4810   35.4060 N.3   1705  NRG1705    -0.1208
      2  CA         8.6980   16.0350   34.1460 C.3   1705  NRG1705     0.1944
      3  CB         8.6540   14.9350   33.0440 C.3   1705  NRG1705     0.0343
      4  CG         9.3880   13.6470   33.4600 C.3   1705  NRG1705     0.0490
      5  CD         8.9130   12.4630   32.5890 C.3   1705  NRG1705     0.2204
      6  NE         7.4470   12.3980   32.4340 N.pl3 1705  NRG1705    -0.0874
      7  CZ         6.8170   11.8030   31.4430 C.cat 1705  NRG1705     0.5245
      8  NH1        7.5240   11.2430   30.4410 N.pl3 1705  NRG1705     0.1075
      9  NH2        5.4880   11.7570   31.4720 N.pl3 1705  NRG1705     0.1343
     10  C          7.9110   17.2600   33.6910 C.2   1705  NRG1705     0.3819
     11  OA1        8.2730   17.8170   32.6440 O.co2 1705  NRG1705    -0.2441
     12  OA2        6.9490   17.6290   34.3900 O.co2 1705  NRG1705    -0.2441
     13  N1         6.9990   10.7060   29.2010 N.pl3 1705  NRG1705     0.2221
     14  O2         7.7710   10.4000   28.3190 O.2   1705  NRG1705    -0.0910
     15  O3         5.7830   10.6420   29.0010 O.2   1705  NRG1705    -0.0910
@<TRIPOS>BOND
     1    14    13    2
     2    15    13    2
     3    13     8    1
     4     8     7    1
     5     7     9    2
     6     7     6    1
     7     6     5    1
     8     5     4    1
     9    11    10   ar
    10     3     4    1
    11     3     2    1
    12    10     2    1
    13    10    12   ar
    14     2     1    1
