@<TRIPOS>MOLECULE
1ed5_HEM_A_1.pdb
 43 50 0 0 0
SMALL
GASTEIGER

@<TRIPOS>ATOM
      1  CHA        9.3880    9.1170   34.9690 C.2   1500  HEM1500     0.0000
      2  CHB        4.7280    9.1630   33.4990 C.2   1500  HEM1500     0.0000
      3  CHC        6.1360    7.3990   29.2020 C.2   1500  HEM1500     0.0000
      4  CHD       10.6720    6.7570   30.9120 C.2   1500  HEM1500     0.0000
      5  C1A        7.9870    9.3290   34.9070 C.2   1500  HEM1500     0.0000
      6  C2A        7.2340   10.0890   35.8960 C.2   1500  HEM1500     0.0000
      7  C3A        5.9290   10.0790   35.5110 C.2   1500  HEM1500     0.0000
      8  C4A        5.8740    9.3250   34.2710 C.2   1500  HEM1500     0.0000
      9  CMA        4.7330   10.7170   36.2490 C.3   1500  HEM1500     0.0000
     10  CAA        7.8590   10.8270   37.1020 C.3   1500  HEM1500     0.0000
     11  CBA        8.0020   12.2960   36.7410 C.3   1500  HEM1500     0.0000
     12  CGA        8.7460   13.1100   37.7940 C.2   1500  HEM1500     0.0000
     13  O1A        8.4060   12.9950   38.9950 O.co2 1500  HEM1500     0.0000
     14  O2A        9.6630   13.8750   37.4090 O.co2 1500  HEM1500     0.0000
     15  C1B        4.7050    8.5610   32.2480 C.ar  1500  HEM1500     0.0000
     16  C2B        3.5320    8.5190   31.3980 C.ar  1500  HEM1500     0.0000
     17  C3B        3.8910    8.0180   30.1940 C.ar  1500  HEM1500     0.0000
     18  C4B        5.3320    7.7500   30.2970 C.ar  1500  HEM1500     0.0000
     19  CMB        2.1150    8.9530   31.7890 C.3   1500  HEM1500     0.0000
     20  CAB        3.0140    7.8530   29.1130 C.2   1500  HEM1500     0.0000
     21  CBB        3.0590    6.9320   28.1060 C.2   1500  HEM1500     0.0000
     22  C1C        7.5240    7.2050   29.2890 C.2   1500  HEM1500     0.0000
     23  C2C        8.3210    6.7770   28.1650 C.2   1500  HEM1500     0.0000
     24  C3C        9.5780    6.4960   28.6430 C.2   1500  HEM1500     0.0000
     25  C4C        9.5520    6.8260   30.0580 C.2   1500  HEM1500     0.0000
     26  CMC        7.7970    6.6570   26.7280 C.3   1500  HEM1500     0.0000
     27  CAC       10.6850    5.9560   27.9620 C.2   1500  HEM1500     0.0000
     28  CBC       10.6730    5.1340   26.8700 C.2   1500  HEM1500     0.0000
     29  C1D       10.7090    7.2900   32.2090 C.ar  1500  HEM1500     0.0000
     30  C2D       11.9120    7.4480   33.0280 C.ar  1500  HEM1500     0.0000
     31  C3D       11.5700    8.1610   34.1350 C.ar  1500  HEM1500     0.0000
     32  C4D       10.1370    8.4010   34.0220 C.ar  1500  HEM1500     0.0000
     33  CMD       13.3030    6.8860   32.7480 C.3   1500  HEM1500     0.0000
     34  CAD       12.4960    8.7180   35.2340 C.3   1500  HEM1500     0.0000
     35  CBD       13.0910   10.0880   34.9040 C.3   1500  HEM1500     0.0000
     36  CGD       13.8530   10.7060   36.0700 C.2   1500  HEM1500     0.0000
     37  O1D       14.4810    9.9530   36.8460 O.co2 1500  HEM1500     0.0000
     38  O2D       13.8370   11.9500   36.2030 O.co2 1500  HEM1500     0.0000
     39  NA         7.1540    8.8380   33.8920 N.2   1500  HEM1500     0.0000
     40  NB         5.8140    8.0240   31.5880 N.ar  1500  HEM1500     0.0000
     41  NC         8.2570    7.2700   30.4890 N.2   1500  HEM1500     0.0000
     42  ND         9.6050    7.8420   32.8520 N.ar  1500  HEM1500     0.0000
     43 FE          7.6340    7.6800   32.3580 Fe    1500  HEM1500     0.0000
@<TRIPOS>BOND
     1    26    23    1
     2    28    27    2
     3    27    24    1
     4    21    20    2
     5    23    24    2
     6    23    22    1
     7    24    25    1
     8    20    17    1
     9     3    22    2
    10     3    18    1
    11    22    41    1
    12    25    41    2
    13    25     4    1
    14    17    18   ar
    15    17    16   ar
    16    18    40   ar
    17    41    43    1
    18     4    29    2
    19    16    19    1
    20    16    15   ar
    21    40    15   ar
    22    40    43    1
    23    29    42   ar
    24    29    30   ar
    25    15     2    1
    26    43    42    1
    27    43    39    1
    28    33    30    1
    29    42    32   ar
    30    30    31   ar
    31     2     8    2
    32    39     8    1
    33    39     5    2
    34    32    31   ar
    35    32     1    2
    36    31    34    1
    37     8     7    1
    38    35    34    1
    39    35    36    1
    40     5     1    1
    41     5     6    1
    42     7     6    2
    43     7     9    1
    44     6    10    1
    45    36    38   ar
    46    36    37   ar
    47    11    10    1
    48    11    12    1
    49    14    12   ar
    50    12    13   ar
