@<TRIPOS>MOLECULE
1ed6_ILO_A_1.pdb
 12 11 0 0 0
SMALL
GASTEIGER

@<TRIPOS>ATOM
      1  N          7.5630   15.0170   35.2200 N.3   1765  ILO1765    -0.1208
      2  CA         8.0490   15.6620   33.9780 C.3   1765  ILO1765     0.1945
      3  CB         7.9900   14.6280   32.8130 C.3   1765  ILO1765     0.0350
      4  CG         8.6280   13.2350   33.1370 C.3   1765  ILO1765     0.0574
      5  CD         8.2240   12.3020   32.1560 C.3   1765  ILO1765     0.2510
      6  NE         6.7370   12.1720   32.1990 N.pl3 1765  ILO1765    -0.0316
      7  CZ         5.9610   11.5750   31.2900 C.2   1765  ILO1765     0.3901
      8  CH1        6.4320   10.9590   30.0950 C.3   1765  ILO1765     0.1388
      9  NH2        4.6960   11.5690   31.5160 N.2   1765  ILO1765     0.1917
     10  C          7.2270   16.8930   33.6580 C.2   1765  ILO1765     0.3819
     11  OA1        6.2930   17.2480   34.3760 O.co2 1765  ILO1765    -0.2441
     12  OA2        7.5160   17.5610   32.6230 O.co2 1765  ILO1765    -0.2441
@<TRIPOS>BOND
     1     8     7    1
     2     7     9    2
     3     7     6    1
     4     5     6    1
     5     5     4    1
     6    12    10   ar
     7     3     4    1
     8     3     2    1
     9    10     2    1
    10    10    11   ar
    11     2     1    1
