@<TRIPOS>MOLECULE
1ed6_HEM_A_1.pdb
 43 50 0 0 0
SMALL
GASTEIGER

@<TRIPOS>ATOM
      1  CHA        8.9000    8.9340   34.9200 C.2   1500  HEM1500     0.0000
      2  CHB        4.2810    8.9080   33.4670 C.2   1500  HEM1500     0.0000
      3  CHC        5.7160    7.3260   29.1660 C.2   1500  HEM1500     0.0000
      4  CHD       10.1900    6.5760   30.8960 C.2   1500  HEM1500     0.0000
      5  C1A        7.5240    9.1520   34.8440 C.2   1500  HEM1500     0.0000
      6  C2A        6.7730    9.9220   35.7880 C.2   1500  HEM1500     0.0000
      7  C3A        5.4670    9.8880   35.4380 C.2   1500  HEM1500     0.0000
      8  C4A        5.4310    9.0980   34.2260 C.2   1500  HEM1500     0.0000
      9  CMA        4.2810   10.4910   36.1950 C.3   1500  HEM1500     0.0000
     10  CAA        7.3720   10.6790   36.9550 C.3   1500  HEM1500     0.0000
     11  CBA        7.5280   12.1460   36.6240 C.3   1500  HEM1500     0.0000
     12  CGA        8.2030   12.9230   37.7330 C.2   1500  HEM1500     0.0000
     13  O1A        7.7740   12.8080   38.9050 O.co2 1500  HEM1500     0.0000
     14  O2A        9.1590   13.6640   37.4260 O.co2 1500  HEM1500     0.0000
     15  C1B        4.2370    8.2760   32.2350 C.ar  1500  HEM1500     0.0000
     16  C2B        3.0680    8.2630   31.4140 C.ar  1500  HEM1500     0.0000
     17  C3B        3.4290    7.7940   30.2230 C.ar  1500  HEM1500     0.0000
     18  C4B        4.8670    7.5550   30.2780 C.ar  1500  HEM1500     0.0000
     19  CMB        1.6750    8.7190   31.8030 C.3   1500  HEM1500     0.0000
     20  CAB        2.4750    7.5690   29.2200 C.2   1500  HEM1500     0.0000
     21  CBB        2.5880    6.8190   28.0840 C.2   1500  HEM1500     0.0000
     22  C1C        7.0960    7.1030   29.2380 C.2   1500  HEM1500     0.0000
     23  C2C        7.8960    6.6020   28.1460 C.2   1500  HEM1500     0.0000
     24  C3C        9.1340    6.2910   28.6100 C.2   1500  HEM1500     0.0000
     25  C4C        9.0930    6.6340   30.0260 C.2   1500  HEM1500     0.0000
     26  CMC        7.4150    6.4260   26.7040 C.3   1500  HEM1500     0.0000
     27  CAC       10.2490    5.8540   27.8880 C.2   1500  HEM1500     0.0000
     28  CBC       10.2900    5.0670   26.7800 C.2   1500  HEM1500     0.0000
     29  C1D       10.2040    7.0610   32.1890 C.ar  1500  HEM1500     0.0000
     30  C2D       11.4230    7.2800   32.9850 C.ar  1500  HEM1500     0.0000
     31  C3D       11.0850    7.9840   34.0780 C.ar  1500  HEM1500     0.0000
     32  C4D        9.6500    8.2020   33.9730 C.ar  1500  HEM1500     0.0000
     33  CMD       12.8630    6.8970   32.6750 C.3   1500  HEM1500     0.0000
     34  CAD       12.0100    8.5570   35.1490 C.3   1500  HEM1500     0.0000
     35  CBD       12.6720    9.8630   34.7230 C.3   1500  HEM1500     0.0000
     36  CGD       13.3390   10.6010   35.8820 C.2   1500  HEM1500     0.0000
     37  O1D       14.1040    9.9630   36.6410 O.co2 1500  HEM1500     0.0000
     38  O2D       13.1020   11.8230   36.0260 O.co2 1500  HEM1500     0.0000
     39  NA         6.6920    8.6410   33.8650 N.2   1500  HEM1500     0.0000
     40  NB         5.3420    7.7690   31.5650 N.ar  1500  HEM1500     0.0000
     41  NC         7.8290    7.1150   30.4190 N.2   1500  HEM1500     0.0000
     42  ND         9.1130    7.6020   32.8090 N.ar  1500  HEM1500     0.0000
     43 FE          7.1800    7.5110   32.2990 Fe    1500  HEM1500     0.0000
@<TRIPOS>BOND
     1    26    23    1
     2    28    27    2
     3    27    24    1
     4    21    20    2
     5    23    24    2
     6    23    22    1
     7    24    25    1
     8     3    22    2
     9     3    18    1
    10    20    17    1
    11    22    41    1
    12    25    41    2
    13    25     4    1
    14    17    18   ar
    15    17    16   ar
    16    18    40   ar
    17    41    43    1
    18     4    29    2
    19    16    19    1
    20    16    15   ar
    21    40    15   ar
    22    40    43    1
    23    29    42   ar
    24    29    30   ar
    25    15     2    1
    26    43    42    1
    27    43    39    1
    28    33    30    1
    29    42    32   ar
    30    30    31   ar
    31     2     8    2
    32    39     8    1
    33    39     5    2
    34    32    31   ar
    35    32     1    2
    36    31    34    1
    37     8     7    1
    38    35    34    1
    39    35    36    1
    40     5     1    1
    41     5     6    1
    42     7     6    2
    43     7     9    1
    44     6    10    1
    45    36    38   ar
    46    36    37   ar
    47    11    10    1
    48    11    12    1
    49    14    12   ar
    50    12    13   ar
