@<TRIPOS>MOLECULE
1edo_NAP_A_1.pdb
 48 52 0 0 0
SMALL
GASTEIGER

@<TRIPOS>ATOM
      1  PA       -40.6640   32.4010   18.6890 P.3   301  NAP301      0.2189
      2  O1A      -41.9590   32.7770   18.0250 O.3   301  NAP301     -0.4371
      3  O2A      -39.6410   31.7670   17.8180 O.2   301  NAP301     -0.5170
      4  O5B      -40.9090   31.5130   19.9760 O.3   301  NAP301     -0.3112
      5  C5B      -41.9280   31.8780   21.0310 C.3   301  NAP301      0.1813
      6  C4B      -42.0670   30.7820   21.9830 C.3   301  NAP301      0.1820
      7  O4B      -43.1490   31.0320   22.9490 O.3   301  NAP301     -0.3136
      8  C3B      -42.4300   29.3640   21.4160 C.3   301  NAP301      0.2157
      9  O3B      -41.4320   28.3800   21.9400 O.3   301  NAP301     -0.2175
     10  C2B      -43.8130   29.0190   21.9060 C.3   301  NAP301      0.2314
     11  O2B      -44.0320   27.7060   22.0910 O.3   301  NAP301     -0.2630
     12  C1B      -43.7750   29.8480   23.2150 C.3   301  NAP301      0.3158
     13  N9A      -45.0720   30.2450   23.6020 N.pl3 301  NAP301     -0.1439
     14  C8A      -46.0000   30.9940   22.9200 C.3   301  NAP301      0.3377
     15  N7A      -47.1130   31.2030   23.5880 N.2   301  NAP301     -0.2095
     16  C5A      -46.9640   30.5830   24.7930 C.2   301  NAP301      0.2526
     17  C6A      -47.8750   30.4840   25.9030 C.2   301  NAP301      0.4393
     18  N6A      -49.0740   31.0320   25.9500 N.pl3 301  NAP301      0.2180
     19  N1A      -47.3600   29.7950   26.9460 N.2   301  NAP301      0.0021
     20  C2A      -46.1900   29.2060   26.9900 C.3   301  NAP301      0.5254
     21  N3A      -45.2860   29.2580   25.9400 N.2   301  NAP301     -0.0055
     22  C4A      -45.7090   29.9790   24.8360 C.2   301  NAP301      0.3518
     23  O3       -40.0860   33.7180   19.3440 O.3   301  NAP301     -0.2703
     24  PN       -38.6070   34.2640   19.7660 P.3   301  NAP301      0.2189
     25  O1N      -38.1680   35.0950   18.7140 O.2   301  NAP301     -0.5170
     26  O2N      -37.8420   33.1630   20.3160 O.3   301  NAP301     -0.4371
     27  O5D      -38.3010   35.0990   21.0570 O.3   301  NAP301     -0.3112
     28  C5D      -38.7210   34.5950   22.3730 C.3   301  NAP301      0.1813
     29  C4D      -38.8700   35.6590   23.3450 C.3   301  NAP301      0.1799
     30  O4D      -37.8910   36.6920   22.8250 O.3   301  NAP301     -0.3327
     31  C3D      -40.2210   36.5480   23.3140 C.3   301  NAP301      0.2158
     32  O3D      -40.4350   37.0130   24.6190 O.3   301  NAP301     -0.2175
     33  C2D      -39.9660   37.6670   22.3190 C.3   301  NAP301      0.2309
     34  O2D      -40.7060   38.7270   22.6280 O.3   301  NAP301     -0.2158
     35  C1D      -38.5230   37.9250   22.7110 C.3   301  NAP301      0.2263
     36  N1N      -37.7370   38.7780   21.7140 N.pl3 301  NAP301     -0.2787
     37  C2N      -37.5130   38.3200   20.4230 C.3   301  NAP301      0.1244
     38  C3N      -36.8620   39.2270   19.6160 C.2   301  NAP301      0.0544
     39  C7N      -36.6420   38.6570   18.1830 C.2   301  NAP301      0.2818
     40  O7N      -36.1070   39.4030   17.4140 O.2   301  NAP301     -0.2670
     41  N7N      -37.0650   37.4000   17.8940 N.am  301  NAP301     -0.0839
     42  C4N      -36.4280   40.4910   19.9410 C.2   301  NAP301      0.0033
     43  C5N      -36.7010   40.8270   21.3150 C.2   301  NAP301      0.0157
     44  C6N      -37.3600   39.9900   22.1840 C.2   301  NAP301      0.0633
     45  P2B      -44.9020   26.6970   21.3340 P.3   301  NAP301      0.5328
     46  O1X      -44.6560   26.8440   19.8750 O.2   301  NAP301     -0.2224
     47  O2X      -44.5600   25.3210   21.8390 O.3   301  NAP301     -0.1145
     48  O3X      -46.2960   27.0060   21.5840 O.3   301  NAP301     -0.1145
@<TRIPOS>BOND
     1    40    39    2
     2     3     1    2
     3    41    39   am
     4     2     1    1
     5    39    38    1
     6     1    23    1
     7     1     4    1
     8    25    24    2
     9    23    24    1
    10    38    42    2
    11    38    37    1
    12    24    26    1
    13    24    27    1
    14    46    45    2
    15    42    43    1
    16     4     5    1
    17    37    36    1
    18     5     6    1
    19    27    28    1
    20    43    44    2
    21    45    48    1
    22    45    47    1
    23    45    11    1
    24     8    10    1
    25     8     9    1
    26     8     6    1
    27    36    44    1
    28    36    35    1
    29    10    11    1
    30    10    12    1
    31     6     7    1
    32    33    34    1
    33    33    35    1
    34    33    31    1
    35    28    29    1
    36    35    30    1
    37    30    29    1
    38    14    15    1
    39    14    13    1
    40     7    12    1
    41    12    13    1
    42    31    29    1
    43    31    32    1
    44    15    16    2
    45    13    22    1
    46    16    22    1
    47    16    17    1
    48    22    21    2
    49    17    18    1
    50    17    19    2
    51    21    20    1
    52    19    20    1
