@<TRIPOS>MOLECULE
1ee1_DND_A_1.pdb
 44 48 0 0 0
SMALL
GASTEIGER

@<TRIPOS>ATOM
      1  PN        18.7640   55.1050   35.8320 P.3   4000  DND4000     0.2189
      2  O11       19.5410   54.0130   35.1580 O.2   4000  DND4000    -0.5170
      3  O12       19.4870   56.3800   35.7330 O.3   4000  DND4000    -0.4371
      4  O3P       17.3060   55.1860   35.1310 O.3   4000  DND4000    -0.2703
      5  O5D       18.2230   54.7320   37.3180 O.3   4000  DND4000    -0.3112
      6  C5D       17.6980   55.8670   38.0170 C.3   4000  DND4000     0.1813
      7  C4D       18.8700   56.2190   38.9290 C.3   4000  DND4000     0.1799
      8  O4D       18.6490   57.4790   39.6000 O.3   4000  DND4000    -0.3327
      9  C3D       19.5450   55.2390   39.8940 C.3   4000  DND4000     0.2158
     10  O3D       20.9280   55.3420   40.3070 O.3   4000  DND4000    -0.2175
     11  C2D       18.8820   55.6160   41.1800 C.3   4000  DND4000     0.2309
     12  O2D       19.1480   55.0730   42.4960 O.3   4000  DND4000    -0.2158
     13  C1D       18.4370   56.9980   40.9320 C.3   4000  DND4000     0.2263
     14  N1N       17.4050   57.5120   41.7930 N.pl3 4000  DND4000    -0.2787
     15  C6N       16.1330   57.1890   41.3100 C.3   4000  DND4000     0.1195
     16  C5N       14.9790   57.4930   42.0240 C.2   4000  DND4000    -0.0044
     17  C4N       15.1470   58.1690   43.2140 C.2   4000  DND4000     0.0050
     18  C3N       16.4280   58.4540   43.6960 C.2   4000  DND4000     0.0940
     19  C2N       17.6230   58.1350   43.0130 C.2   4000  DND4000     0.0699
     20  C7N       16.4490   58.8560   45.1450 C.2   4000  DND4000     0.3890
     21  O7N       17.6000   58.9540   45.6810 O.co2 4000  DND4000    -0.2405
     22  O8N       15.2990   58.7430   45.6650 O.co2 4000  DND4000    -0.2405
     23  PA        16.4030   56.2950   34.4030 P.3   4000  DND4000     0.2189
     24  O13       15.3420   55.3870   33.9140 O.2   4000  DND4000    -0.5170
     25  O14       16.1810   57.4430   35.2800 O.3   4000  DND4000    -0.4371
     26  O5B       17.2550   56.7560   33.0850 O.3   4000  DND4000    -0.3112
     27  C5B       17.7290   55.7090   32.2470 C.3   4000  DND4000     0.1813
     28  C4B       16.8300   55.6880   31.0220 C.3   4000  DND4000     0.1821
     29  O4B       17.0560   56.9660   30.3350 O.3   4000  DND4000    -0.3135
     30  C3B       17.0080   54.5350   30.0910 C.3   4000  DND4000     0.2184
     31  O3B       16.4090   53.2760   30.1760 O.3   4000  DND4000    -0.2174
     32  C2B       16.5530   55.1740   28.8020 C.3   4000  DND4000     0.2570
     33  O2B       15.2860   54.6780   28.4030 O.3   4000  DND4000    -0.2130
     34  C1B       17.0030   56.5850   28.9400 C.3   4000  DND4000     0.3186
     35  N9A       18.2070   57.0710   28.3270 N.pl3 4000  DND4000    -0.1439
     36  C4A       18.2880   58.0990   27.4750 C.2   4000  DND4000     0.3518
     37  N3A       17.3960   58.8790   26.8410 N.2   4000  DND4000    -0.0055
     38  C2A       17.8380   59.7720   25.9490 C.3   4000  DND4000     0.5254
     39  N1A       19.1570   59.9270   25.7310 N.2   4000  DND4000     0.0021
     40  C6A       20.1090   59.2310   26.3610 C.2   4000  DND4000     0.4393
     41  C5A       19.6250   58.2760   27.2520 C.2   4000  DND4000     0.2526
     42  N7A       20.3800   57.4010   27.9430 N.2   4000  DND4000    -0.2095
     43  C8A       19.4820   56.6630   28.5890 C.3   4000  DND4000     0.3377
     44  N6A       21.4020   59.5320   26.2760 N.pl3 4000  DND4000     0.2180
@<TRIPOS>BOND
     1    39    38    1
     2    39    40    2
     3    38    37    1
     4    44    40    1
     5    40    41    1
     6    37    36    2
     7    41    36    1
     8    41    42    2
     9    36    35    1
    10    42    43    1
    11    35    43    1
    12    35    34    1
    13    33    32    1
    14    32    34    1
    15    32    30    1
    16    34    29    1
    17    30    31    1
    18    30    28    1
    19    29    28    1
    20    28    27    1
    21    27    26    1
    22    26    23    1
    23    24    23    2
    24    23     4    1
    25    23    25    1
    26     4     1    1
    27     2     1    2
    28     3     1    1
    29     1     5    1
    30     5     6    1
    31     6     7    1
    32     7     8    1
    33     7     9    1
    34     8    13    1
    35     9    10    1
    36     9    11    1
    37    13    11    1
    38    13    14    1
    39    11    12    1
    40    15    14    1
    41    15    16    1
    42    14    19    1
    43    16    17    2
    44    19    18    2
    45    17    18    1
    46    18    20    1
    47    20    22   ar
    48    20    21   ar
