@<TRIPOS>MOLECULE
1ee1_ATP_A_1.pdb
 31 33 0 0 0
SMALL
GASTEIGER

@<TRIPOS>ATOM
      1  PG        17.0800   62.2340   50.2260 P.3   5000  ATP5000     0.5373
      2  O1G       17.2580   62.5480   48.8040 O.2   5000  ATP5000    -0.2221
      3  O2G       17.8910   63.1060   51.1250 O.3   5000  ATP5000    -0.1143
      4  O3G       16.9880   60.7420   50.4890 O.3   5000  ATP5000    -0.1143
      5  PB        14.1350   62.3530   49.8890 P.3   5000  ATP5000     0.2277
      6  O1B       13.1090   63.2900   50.3640 O.3   5000  ATP5000    -0.4368
      7  O2B       14.0640   60.9100   50.3160 O.2   5000  ATP5000    -0.5168
      8  O3B       15.5740   62.8750   50.4290 O.3   5000  ATP5000    -0.2258
      9  PA        14.7020   61.0060   47.2420 P.3   5000  ATP5000     0.2189
     10  O1A       15.1500   59.8490   48.0890 O.3   5000  ATP5000    -0.4371
     11  O2A       15.5620   61.5670   46.1630 O.2   5000  ATP5000    -0.5170
     12  O3A       14.3180   62.2120   48.2850 O.3   5000  ATP5000    -0.2700
     13  O5'       13.2770   60.5710   46.5920 O.3   5000  ATP5000    -0.3112
     14  C5'       12.7060   61.2200   45.4390 C.3   5000  ATP5000     0.1813
     15  C4'       11.3060   61.3970   45.9560 C.3   5000  ATP5000     0.1821
     16  O4'       10.1390   60.5940   45.6300 O.3   5000  ATP5000    -0.3135
     17  C3'       11.0360   62.2200   47.2050 C.3   5000  ATP5000     0.2184
     18  O3'       11.8800   63.1990   47.7370 O.3   5000  ATP5000    -0.2174
     19  C2'        9.6430   61.8630   47.6120 C.3   5000  ATP5000     0.2570
     20  O2'        8.7980   62.9720   47.3370 O.3   5000  ATP5000    -0.2130
     21  C1'        9.5160   60.5290   46.9220 C.3   5000  ATP5000     0.3186
     22  N9         9.4800   59.2360   47.6210 N.pl3 5000  ATP5000    -0.1439
     23  C8        10.4680   58.3220   47.6220 C.3   5000  ATP5000     0.3377
     24  N7        10.1850   57.2800   48.4300 N.2   5000  ATP5000    -0.2095
     25  C5         8.9770   57.5670   48.9020 C.2   5000  ATP5000     0.2526
     26  C6         8.3870   56.8620   49.9600 C.2   5000  ATP5000     0.4393
     27  N6         8.9820   55.8170   50.5540 N.pl3 5000  ATP5000     0.2180
     28  N1         7.3230   57.4680   50.5160 N.2   5000  ATP5000     0.0021
     29  C2         6.8870   58.6520   50.0830 C.3   5000  ATP5000     0.5254
     30  N3         7.4550   59.3110   49.0630 N.2   5000  ATP5000    -0.0055
     31  C4         8.5280   58.7950   48.4430 C.2   5000  ATP5000     0.3518
@<TRIPOS>BOND
     1    14    15    1
     2    14    13    1
     3    16    15    1
     4    16    21    1
     5    15    17    1
     6    11     9    2
     7    13     9    1
     8    21    19    1
     9    21    22    1
    10    17    19    1
    11    17    18    1
    12     9    10    1
    13     9    12    1
    14    20    19    1
    15    22    23    1
    16    22    31    1
    17    23    24    1
    18    12     5    1
    19    24    25    2
    20    31    25    1
    21    31    30    2
    22     2     1    2
    23    25    26    1
    24    30    29    1
    25     5     7    2
    26     5     6    1
    27     5     8    1
    28    26    28    2
    29    26    27    1
    30    29    28    1
    31     1     8    1
    32     1     4    1
    33     1     3    1
