@<TRIPOS>MOLECULE
1ee2_NAD_A_1.pdb
 44 48 0 0 0
SMALL
GASTEIGER

@<TRIPOS>ATOM
      1  PA        -4.5520   -4.6120   43.3390 P.3   1100  NAD1100     0.2189
      2  O1A       -5.2960   -3.7090   44.2700 O.3   1100  NAD1100    -0.4371
      3  O2A       -4.4370   -6.0590   43.7400 O.2   1100  NAD1100    -0.5170
      4  O5B       -5.2200   -4.4790   41.9230 O.3   1100  NAD1100    -0.3112
      5  C5B       -5.0380   -5.5180   40.8800 C.3   1100  NAD1100     0.1813
      6  C4B       -6.3200   -5.5150   40.0730 C.3   1100  NAD1100     0.1821
      7  O4B       -6.0110   -6.4520   38.9640 O.3   1100  NAD1100    -0.3135
      8  C3B       -7.5380   -6.1440   40.7910 C.3   1100  NAD1100     0.2184
      9  O3B       -8.6870   -5.2420   40.8320 O.3   1100  NAD1100    -0.2174
     10  C2B       -7.7210   -7.5380   40.2030 C.3   1100  NAD1100     0.2570
     11  O2B       -9.0600   -7.9550   40.1400 O.3   1100  NAD1100    -0.2130
     12  C1B       -7.2180   -7.1910   38.7610 C.3   1100  NAD1100     0.3186
     13  N9A       -6.8480   -8.4110   38.0700 N.pl3 1100  NAD1100    -0.1439
     14  C8A       -6.1780   -9.5310   38.5250 C.3   1100  NAD1100     0.3377
     15  N7A       -6.0070  -10.4860   37.6120 N.2   1100  NAD1100    -0.2095
     16  C5A       -6.5620  -10.0050   36.5070 C.2   1100  NAD1100     0.2526
     17  C6A       -6.7290  -10.5220   35.1120 C.2   1100  NAD1100     0.4393
     18  N6A       -6.2370  -11.7340   34.8770 N.pl3 1100  NAD1100     0.2180
     19  N1A       -7.3490   -9.7130   34.2990 N.2   1100  NAD1100     0.0021
     20  C2A       -7.8720   -8.4790   34.5140 C.3   1100  NAD1100     0.5254
     21  N3A       -7.7530   -7.9210   35.8040 N.2   1100  NAD1100    -0.0055
     22  C4A       -7.1270   -8.6840   36.7180 C.2   1100  NAD1100     0.3518
     23  O3        -3.1210   -4.0860   43.1190 O.3   1100  NAD1100    -0.2703
     24  PN        -2.4090   -2.6250   43.1680 P.3   1100  NAD1100     0.2189
     25  O1N       -1.9860   -2.3330   44.5160 O.3   1100  NAD1100    -0.4371
     26  O2N       -3.2700   -1.6690   42.4630 O.2   1100  NAD1100    -0.5170
     27  O5D       -1.0810   -2.9110   42.3320 O.3   1100  NAD1100    -0.3112
     28  C5D       -1.2100   -3.2450   40.9020 C.3   1100  NAD1100     0.1813
     29  C4D        0.0600   -3.8550   40.3940 C.3   1100  NAD1100     0.1799
     30  O4D        1.0740   -2.7590   40.3570 O.3   1100  NAD1100    -0.3327
     31  C3D        0.6880   -4.9610   41.2810 C.3   1100  NAD1100     0.2158
     32  O3D        1.3660   -5.9430   40.4800 O.3   1100  NAD1100    -0.2175
     33  C2D        1.7240   -4.1670   42.1300 C.3   1100  NAD1100     0.2309
     34  O2D        2.7510   -4.9930   42.5670 O.3   1100  NAD1100    -0.2158
     35  C1D        2.2750   -3.1820   41.0430 C.3   1100  NAD1100     0.2263
     36  N1N        2.8570   -1.8920   41.5520 N.pl3 1100  NAD1100    -0.2787
     37  C2N        3.8900   -1.4550   40.7880 C.3   1100  NAD1100     0.1244
     38  C3N        4.4270   -0.2290   41.2170 C.2   1100  NAD1100     0.0544
     39  C7N        5.4660    0.3230   40.3690 C.2   1100  NAD1100     0.2818
     40  O7N        6.2160    1.3200   40.8320 O.2   1100  NAD1100    -0.2670
     41  N7N        5.6740    0.0170   39.0610 N.am  1100  NAD1100    -0.0839
     42  C4N        3.8600    0.5260   42.3640 C.2   1100  NAD1100     0.0033
     43  C5N        2.7190    0.0020   42.9120 C.2   1100  NAD1100     0.0157
     44  C6N        2.2420   -1.2290   42.5870 C.2   1100  NAD1100     0.0633
@<TRIPOS>BOND
     1    19    20    1
     2    19    17    2
     3    20    21    1
     4    18    17    1
     5    17    16    1
     6    21    22    2
     7    16    22    1
     8    16    15    2
     9    22    13    1
    10    15    14    1
    11    13    14    1
    12    13    12    1
    13    12     7    1
    14    12    10    1
    15     7     6    1
    16    41    39   am
    17     6     8    1
    18     6     5    1
    19    11    10    1
    20    10     8    1
    21    30    29    1
    22    30    35    1
    23    39    40    2
    24    39    38    1
    25    29    28    1
    26    29    31    1
    27    32    31    1
    28    37    38    1
    29    37    36    1
    30     8     9    1
    31     5     4    1
    32    28    27    1
    33    35    36    1
    34    35    33    1
    35    38    42    2
    36    31    33    1
    37    36    44    1
    38     4     1    1
    39    33    34    1
    40    27    24    1
    41    42    43    1
    42    26    24    2
    43    44    43    2
    44    23    24    1
    45    23     1    1
    46    24    25    1
    47     1     3    2
    48     1     2    1
