@<TRIPOS>MOLECULE
1ee2_CHD_A_1.pdb
 29 32 0 0 0
SMALL
GASTEIGER

@<TRIPOS>ATOM
      1  C1        15.3550   -2.7840   38.8450 C.3   1150  CHD1150     0.0026
      2  C2        16.5960   -2.8060   39.7710 C.3   1150  CHD1150     0.0329
      3  C3        17.2710   -4.1970   39.7100 C.3   1150  CHD1150     0.1520
      4  O3        18.3970   -4.1750   40.6390 O.3   1150  CHD1150    -0.2232
      5  C4        16.2870   -5.2980   40.1360 C.3   1150  CHD1150     0.0330
      6  C5        15.0510   -5.2630   39.2330 C.3   1150  CHD1150     0.0050
      7  C6        14.0250   -6.4040   39.5450 C.3   1150  CHD1150     0.0330
      8  C7        13.2040   -6.1430   40.7990 C.3   1150  CHD1150     0.1519
      9  O7        13.9690   -6.3550   42.0390 O.3   1150  CHD1150    -0.2232
     10  C8        12.5220   -4.7530   40.7330 C.3   1150  CHD1150     0.0306
     11  C9        13.6290   -3.7180   40.5230 C.3   1150  CHD1150     0.0050
     12  C10       14.3680   -3.9130   39.1580 C.3   1150  CHD1150     0.0004
     13  C11       13.0540   -2.2710   40.6310 C.3   1150  CHD1150     0.0330
     14  C12       12.1300   -1.9940   41.8230 C.3   1150  CHD1150     0.1519
     15  O12       12.9190   -2.2260   43.0410 O.3   1150  CHD1150    -0.2232
     16  C13       10.9950   -3.0420   41.9440 C.3   1150  CHD1150     0.0282
     17  C14       11.6820   -4.4170   41.9750 C.3   1150  CHD1150     0.0048
     18  C15       10.5040   -5.3830   42.2380 C.3   1150  CHD1150     0.0002
     19  C16        9.5960   -4.5890   43.1890 C.3   1150  CHD1150     0.0001
     20  C17       10.0870   -3.0790   43.1630 C.3   1150  CHD1150     0.0024
     21  C18       10.1740   -2.9420   40.6440 C.3   1150  CHD1150     0.0025
     22  C19       13.4030   -3.9360   37.9220 C.3   1150  CHD1150     0.0000
     23  C20        8.8970   -2.1200   43.2680 C.3   1150  CHD1150     0.0006
     24  C21        9.3070   -0.6370   43.0850 C.3   1150  CHD1150     0.0000
     25  C22        8.1740   -2.3250   44.6160 C.3   1150  CHD1150     0.0118
     26  C23        7.2320   -1.1250   44.9760 C.3   1150  CHD1150     0.1141
     27  O25        5.8540   -2.2200   43.3740 O.co2 1150  CHD1150    -0.2457
     28  C24        5.8740   -1.4340   44.4900 C.2   1150  CHD1150     0.3649
     29  O26        4.8200   -1.0930   44.9830 O.co2 1150  CHD1150    -0.2457
@<TRIPOS>BOND
     1    22    12    1
     2     1    12    1
     3     1     2    1
     4    12     6    1
     5    12    11    1
     6     6     7    1
     7     6     5    1
     8     7     8    1
     9     3     2    1
    10     3     5    1
    11     3     4    1
    12    11    13    1
    13    11    10    1
    14    13    14    1
    15    21    16    1
    16    10     8    1
    17    10    17    1
    18     8     9    1
    19    14    16    1
    20    14    15    1
    21    16    17    1
    22    16    20    1
    23    17    18    1
    24    18    19    1
    25    24    23    1
    26    20    19    1
    27    20    23    1
    28    23    25    1
    29    27    28   ar
    30    28    26    1
    31    28    29   ar
    32    25    26    1
