@<TRIPOS>MOLECULE
1ee4_III_D_1.pdb
 37 36 0 0 0
SMALL
GASTEIGER

@<TRIPOS>ATOM
      1  N          4.5700  -13.9890   37.9090 N.3   323  LYS323     -0.1231
      2  CA         4.9290  -12.7670   38.6230 C.3   323  LYS323      0.1693
      3  C          4.3180  -11.5650   37.9120 C.2   323  LYS323      0.2592
      4  O          4.6710  -11.2770   36.7710 O.2   323  LYS323     -0.2718
      5  CB         6.4490  -12.5950   38.6580 C.3   323  LYS323      0.0285
      6  CG         7.2290  -13.7000   39.3580 C.3   323  LYS323      0.0035
      7  CD         6.9910  -13.7200   40.8540 C.3   323  LYS323      0.0206
      8  CE         7.9070  -14.7310   41.5290 C.3   323  LYS323      0.1093
      9  NZ         7.7130  -14.7470   43.0010 N.3   323  LYS323     -0.1314
     10  N          3.4110  -10.8660   38.5860 N.am  324  ARG324     -0.1966
     11  CA         2.7660   -9.6890   38.0060 C.3   324  ARG324      0.1729
     12  C          3.1700   -8.4100   38.7380 C.2   324  ARG324      0.2616
     13  O          2.9370   -8.2720   39.9390 O.2   324  ARG324     -0.2715
     14  CB         1.2480   -9.8370   38.0700 C.3   324  ARG324      0.0348
     15  CG         0.6720  -10.9820   37.2560 C.3   324  ARG324      0.0492
     16  CD        -0.8250  -11.0430   37.5080 C.3   324  ARG324      0.2205
     17  NE        -1.1010  -11.4150   38.8920 N.pl3 324  ARG324     -0.0865
     18  CZ        -2.0630  -10.8820   39.6360 C.cat 324  ARG324      0.5346
     19  NH1       -2.8520   -9.9400   39.1360 N.pl3 324  ARG324      0.1354
     20  NH2       -2.2420  -11.3060   40.8790 N.pl3 324  ARG324      0.1354
     21  N          3.7650   -7.4710   38.0090 N.am  325  VAL325     -0.1963
     22  CA         4.1980   -6.2060   38.5980 C.3   325  VAL325      0.1727
     23  C          3.1690   -5.1000   38.3700 C.2   325  VAL325      0.2616
     24  O          2.3020   -5.2140   37.5020 O.2   325  VAL325     -0.2715
     25  CB         5.5540   -5.7430   38.0020 C.3   325  VAL325      0.0290
     26  CG1        6.6350   -6.7780   38.2970 C.3   325  VAL325      0.0023
     27  CG2        5.4220   -5.5310   36.5000 C.3   325  VAL325      0.0023
     28  N          3.2710   -4.0350   39.1620 N.am  326  LYS326     -0.1963
     29  CA         2.3720   -2.8920   39.0470 C.3   326  LYS326      0.1728
     30  C          2.7230   -2.0800   37.8000 C.2   326  LYS326      0.2616
     31  O          3.8170   -2.2150   37.2530 O.2   326  LYS326     -0.2715
     32  CB         2.4840   -2.0060   40.2910 C.3   326  LYS326      0.0334
     33  N          1.7960   -1.2370   37.3540 N.am  327  LEU327     -0.1977
     34  CA         2.0190   -0.4170   36.1640 C.3   327  LEU327      0.1597
     35  C          3.0420    0.6870   36.4260 C.2   327  LEU327      0.2287
     36  O          2.7790    1.6230   37.1850 O.2   327  LEU327     -0.2864
     37  CB         0.7050    0.1910   35.7020 C.3   327  LEU327      0.0319
@<TRIPOS>BOND
     1    37    34    1
     2    34    35    1
     3    34    33    1
     4    35    36    2
     5    27    25    1
     6     4     3    2
     7    31    30    2
     8    15    16    1
     9    15    14    1
    10    33    30   am
    11    24    23    2
    12    16    17    1
    13    30    29    1
    14     1     2    1
    15     3    10   am
    16     3     2    1
    17    25    26    1
    18    25    22    1
    19    11    14    1
    20    11    10    1
    21    11    12    1
    22    21    22    1
    23    21    12   am
    24    23    22    1
    25    23    28   am
    26     2     5    1
    27     5     6    1
    28    12    13    2
    29    17    18    2
    30    29    28    1
    31    29    32    1
    32    19    18    1
    33     6     7    1
    34    18    20    1
    35     7     8    1
    36     8     9    1
