@<TRIPOS>MOLECULE
1ee9_NAD_A_1.pdb
 44 48 0 0 0
SMALL
GASTEIGER

@<TRIPOS>ATOM
      1  PA         5.5290   14.1240   -2.3560 P.3   321  NAD321      0.2189
      2  O1A        6.8340   13.6880   -1.7970 O.3   321  NAD321     -0.4371
      3  O2A        4.3950   13.1680   -2.4400 O.2   321  NAD321     -0.5170
      4  O5B        5.0570   15.4390   -1.5700 O.3   321  NAD321     -0.3112
      5  C5B        3.7330   15.9390   -1.7650 C.3   321  NAD321      0.1813
      6  C4B        3.3780   16.7910   -0.5630 C.3   321  NAD321      0.1821
      7  O4B        1.9430   16.8960   -0.5780 O.3   321  NAD321     -0.3135
      8  C3B        3.7500   16.0970    0.7390 C.3   321  NAD321      0.2184
      9  O3B        3.9390   16.9900    1.8450 O.3   321  NAD321     -0.2174
     10  C2B        2.5640   15.1730    0.9220 C.3   321  NAD321      0.2570
     11  O2B        2.4640   14.7770    2.2920 O.3   321  NAD321     -0.2130
     12  C1B        1.4120   16.0620    0.4690 C.3   321  NAD321      0.3186
     13  N9A        0.2100   15.2980    0.0430 N.pl3 321  NAD321     -0.1439
     14  C8A        0.1740   14.2720   -0.8290 C.3   321  NAD321      0.3377
     15  N7A       -1.0190   13.6570   -0.8120 N.2   321  NAD321     -0.2095
     16  C5A       -1.7060   14.3370    0.0920 C.2   321  NAD321      0.2526
     17  C6A       -3.0170   14.0660    0.4620 C.2   321  NAD321      0.4393
     18  N6A       -3.7060   13.0560   -0.0570 N.pl3 321  NAD321      0.2180
     19  N1A       -3.5510   14.8680    1.4000 N.2   321  NAD321      0.0021
     20  C2A       -2.8470   15.8710    1.9350 C.3   321  NAD321      0.5254
     21  N3A       -1.5820   16.1260    1.5800 N.2   321  NAD321     -0.0055
     22  C4A       -0.9770   15.3650    0.6440 C.2   321  NAD321      0.3518
     23  O3         5.7280   14.7380   -3.8250 O.3   321  NAD321     -0.2703
     24  PN         6.3320   16.0850   -4.4660 P.3   321  NAD321      0.2189
     25  O1N        6.9530   15.6940   -5.7580 O.2   321  NAD321     -0.5170
     26  O2N        7.1650   16.8110   -3.4750 O.3   321  NAD321     -0.4371
     27  O5D        5.0220   16.9910   -4.7990 O.3   321  NAD321     -0.3112
     28  C5D        5.0820   18.3460   -5.3120 C.3   321  NAD321      0.1813
     29  C4D        4.0430   18.6770   -6.3950 C.3   321  NAD321      0.1799
     30  O4D        3.6960   20.0780   -6.3500 O.3   321  NAD321     -0.3327
     31  C3D        4.5480   18.4310   -7.8190 C.3   321  NAD321      0.2158
     32  O3D        4.2870   17.1040   -8.3030 O.3   321  NAD321     -0.2175
     33  C2D        3.7590   19.4260   -8.6620 C.3   321  NAD321      0.2309
     34  O2D        2.5350   18.8330   -9.1340 O.3   321  NAD321     -0.2158
     35  C1D        3.5640   20.5950   -7.7000 C.3   321  NAD321      0.2263
     36  N1N        4.5050   21.7100   -8.0200 N.pl3 321  NAD321     -0.2787
     37  C2N        4.1680   22.6610   -9.0160 C.3   321  NAD321      0.1244
     38  C3N        5.0360   23.7180   -9.3270 C.2   321  NAD321      0.0544
     39  C7N        4.6100   24.8880  -10.2330 C.2   321  NAD321      0.2818
     40  O7N        5.4420   25.6250  -10.7560 O.2   321  NAD321     -0.2670
     41  N7N        3.3060   25.0670  -10.3970 N.am  321  NAD321     -0.0839
     42  C4N        6.2590   23.8010   -8.6490 C.2   321  NAD321      0.0033
     43  C5N        6.6120   22.8740   -7.6620 C.2   321  NAD321      0.0157
     44  C6N        5.7360   21.8370   -7.3370 C.2   321  NAD321      0.0633
@<TRIPOS>BOND
     1    40    39    2
     2    41    39   am
     3    39    38    1
     4    38    37    1
     5    38    42    2
     6    34    33    1
     7    37    36    1
     8    33    31    1
     9    33    35    1
    10    42    43    1
    11    32    31    1
    12    36    35    1
    13    36    44    1
    14    31    29    1
    15    35    30    1
    16    43    44    2
    17    29    30    1
    18    29    28    1
    19    25    24    2
    20    28    27    1
    21    27    24    1
    22    24    23    1
    23    24    26    1
    24    23     1    1
    25     3     1    2
    26     1     2    1
    27     1     4    1
    28     5     4    1
    29     5     6    1
    30    14    15    1
    31    14    13    1
    32    15    16    2
    33     7     6    1
    34     7    12    1
    35     6     8    1
    36    18    17    1
    37    13    12    1
    38    13    22    1
    39    16    17    1
    40    16    22    1
    41    17    19    2
    42    12    10    1
    43    22    21    2
    44     8    10    1
    45     8     9    1
    46    10    11    1
    47    19    20    1
    48    21    20    1
