@<TRIPOS>MOLECULE
1eed_0EO_P_1.pdb
 45 46 0 0 0
SMALL
GASTEIGER

@<TRIPOS>ATOM
      1  O1         2.1180   27.1890   20.3310 O.2   327  0EO327     -0.2246
      2  C          2.6590   26.4090   19.4870 C.2   327  0EO327      0.4209
      3  O2         2.2040   25.0180   19.3660 O.3   327  0EO327     -0.4408
      4  CT         1.3620   24.3570   20.3580 C.3   327  0EO327      0.1379
      5  C1         0.9730   22.9710   19.8170 C.3   327  0EO327      0.0437
      6  C2         0.1070   25.1870   20.6420 C.3   327  0EO327      0.0437
      7  C3         2.1620   24.1560   21.6470 C.3   327  0EO327      0.0437
      8  C4         3.4060   32.1580   15.8780 C.2   327  0EO327      0.2415
      9  O11        3.0450   33.1230   16.5620 O.2   327  0EO327     -0.2733
     10  CA1        2.7790   30.7700   16.1010 C.3   327  0EO327      0.0895
     11  CM         3.2570   30.1720   17.4450 C.3   327  0EO327      0.0443
     12  CH         3.8500   28.7740   17.2040 C.3   327  0EO327      0.1727
     13  OH         2.8660   27.9860   16.5620 O.3   327  0EO327     -0.2213
     14  CA         4.2950   28.0940   18.5170 C.3   327  0EO327      0.1333
     15  N          3.6650   26.7350   18.6380 N.am  327  0EO327     -0.1675
     16  CB         5.8330   27.9980   18.4050 C.3   327  0EO327      0.0507
     17  CG         6.5580   27.5970   19.6950 C.ar  327  0EO327     -0.0204
     18  CD1        5.8880   26.8690   20.6830 C.ar  327  0EO327     -0.0042
     19  CD2        7.9030   27.9550   19.8770 C.ar  327  0EO327     -0.0042
     20  CE1        6.5620   26.4920   21.8510 C.ar  327  0EO327     -0.0003
     21  CE2        8.5770   27.5760   21.0440 C.ar  327  0EO327     -0.0003
     22  CZ         7.9060   26.8450   22.0310 C.ar  327  0EO327     -0.0000
     23  N1         4.3240   32.2220   14.9150 N.am  327  0EO327     -0.2046
     24  CA2        5.0780   33.4630   14.6120 C.3   327  0EO327      0.1260
     25  CB1        6.5750   33.2520   14.9320 C.3   327  0EO327      0.0243
     26  CG1        6.8280   32.5940   16.3040 C.3   327  0EO327      0.0018
     27 CD11        6.3260   33.5220   17.4150 C.3   327  0EO327      0.0001
     28 CD21        8.2110   32.3510   16.4950 C.3   327  0EO327      0.0001
     29 CE11        6.5210   32.8820   18.7930 C.3   327  0EO327      0.0000
     30 CE21        8.4670   31.6490   17.8380 C.3   327  0EO327      0.0000
     31  CZ1        7.9890   32.5210   18.9980 C.3   327  0EO327      0.0000
     32  CH1        4.9610   33.8490   13.1280 C.3   327  0EO327      0.1809
     33  OH1        5.3820   32.7690   12.3130 O.3   327  0EO327     -0.2208
     34  CM1        3.5150   34.2070   12.7690 C.3   327  0EO327      0.1214
     35  C5         3.2000   35.6310   13.2290 C.2   327  0EO327      0.2445
     36  O          2.9290   35.8620   14.4140 O.2   327  0EO327     -0.2732
     37  N2         3.4250   36.6090   12.3300 N.am  327  0EO327     -0.1955
     38  CA3        3.2460   38.0170   12.6820 C.3   327  0EO327      0.1977
     39  C6         1.7700   38.2940   12.9820 C.2   327  0EO327      0.3842
     40  O3         0.8940   38.0090   12.1660 O.co2 327  0EO327     -0.2437
     41  CB2        3.7010   38.8890   11.5240 C.3   327  0EO327      0.0333
     42  CG2        3.5780   40.3810   11.8720 C.3   327  0EO327      0.0023
     43 CD12        4.1390   40.7330   13.1560 C.3   327  0EO327      0.0001
     44 CD22        3.9130   41.3670   10.7810 C.3   327  0EO327      0.0001
     45  OXT        1.3890   38.8490   14.1050 O.co2 327  0EO327     -0.2437
@<TRIPOS>BOND
     1    44    42    1
     2    41    42    1
     3    41    38    1
     4    42    43    1
     5    40    39   ar
     6    33    32    1
     7    37    38    1
     8    37    35   am
     9    38    39    1
    10    34    32    1
    11    34    35    1
    12    39    45   ar
    13    32    24    1
    14    35    36    2
    15    24    23    1
    16    24    25    1
    17    23     8   am
    18    25    26    1
    19     8    10    1
    20     8     9    2
    21    10    11    1
    22    26    28    1
    23    26    27    1
    24    28    30    1
    25    13    12    1
    26    12    11    1
    27    12    14    1
    28    27    29    1
    29    30    31    1
    30    16    14    1
    31    16    17    1
    32    14    15    1
    33    15     2   am
    34    29    31    1
    35     3     2    1
    36     3     4    1
    37     2     1    2
    38    17    19   ar
    39    17    18   ar
    40     5     4    1
    41    19    21   ar
    42     4     6    1
    43     4     7    1
    44    18    20   ar
    45    21    22   ar
    46    20    22   ar
