@<TRIPOS>MOLECULE
1eef_I06_G_1.pdb
 20 22 0 0 0
SMALL
GASTEIGER

@<TRIPOS>ATOM
      1  C7        21.3510   19.0350   41.5780 C.ar  108  I06108      0.0002
      2  C8        20.9270   17.8980   42.2310 C.ar  108  I06108      0.0053
      3  C9        21.8200   17.1970   43.0390 C.ar  108  I06108      0.0662
      4  C10       23.1370   17.6550   43.2020 C.ar  108  I06108      0.0888
      5  C11       23.5540   18.8080   42.5260 C.ar  108  I06108      0.0118
      6  C12       22.6640   19.4960   41.7230 C.ar  108  I06108      0.0007
      7  C13       21.3610   15.9830   43.7130 C.2   108  I06108      0.2690
      8  O13       20.2450   15.5170   43.6010 O.2   108  I06108     -0.2681
      9  N14       22.2490   15.3720   44.4510 N.am  108  I06108     -0.1673
     10  N15       23.5790   15.7980   44.6400 N.2   108  I06108     -0.1007
     11  C16       24.0950   16.8920   44.0470 C.1   108  I06108      0.1692
     12  O16       25.2680   17.2080   44.2210 O.2   108  I06108     -0.2207
     13  CA        21.9340   14.2750   45.3330 C.3   108  I06108      0.1250
     14  CB        21.9430   13.0730   44.4380 C.3   108  I06108      0.0501
     15  CG        23.1260   13.0580   43.5200 C.ar  108  I06108     -0.0204
     16  CD1       24.3650   12.6190   43.9910 C.ar  108  I06108     -0.0042
     17  CD2       23.0440   13.6200   42.2410 C.ar  108  I06108     -0.0042
     18  CE1       25.5020   12.7410   43.2230 C.ar  108  I06108     -0.0003
     19  CE2       24.1840   13.7550   41.4470 C.ar  108  I06108     -0.0003
     20  CZ        25.4150   13.3190   41.9330 C.ar  108  I06108     -0.0000
@<TRIPOS>BOND
     1    19    20   ar
     2    19    17   ar
     3     1     6   ar
     4     1     2   ar
     5     6     5   ar
     6    20    18   ar
     7     2     3   ar
     8    17    15   ar
     9     5     4   ar
    10     3     4   ar
    11     3     7    1
    12     4    11    1
    13    18    16   ar
    14    15    16   ar
    15    15    14    1
    16     8     7    2
    17     7     9   am
    18    11    12    2
    19    11    10    2
    20    14    13    1
    21     9    10    1
    22     9    13    1
