@<TRIPOS>MOLECULE
1eef_GLA_D_1.pdb
 12 12 0 0 0
SMALL
GASTEIGER

@<TRIPOS>ATOM
      1  C1        20.2120  -25.4670   22.4780 C.3   104  GLA104      0.3024
      2  C2        19.3160  -26.1830   23.5090 C.3   104  GLA104      0.2434
      3  C3        17.8570  -25.7370   23.5130 C.3   104  GLA104      0.2199
      4  C4        17.7390  -24.2260   23.5420 C.3   104  GLA104      0.2144
      5  C5        18.6170  -23.6840   22.3890 C.3   104  GLA104      0.1836
      6  C6        18.5280  -22.1300   22.3580 C.3   104  GLA104      0.2142
      7  O1        19.9000  -25.8430   21.1370 O.3   104  GLA104     -0.1869
      8  O2        19.2630  -27.5760   23.2760 O.3   104  GLA104     -0.2148
      9  O3        17.2120  -26.2840   24.6900 O.3   104  GLA104     -0.2174
     10  O4        18.1800  -23.7930   24.8080 O.3   104  GLA104     -0.2176
     11  O5        19.9910  -24.0590   22.5950 O.3   104  GLA104     -0.3236
     12  O6        19.3520  -21.6060   21.3510 O.3   104  GLA104     -0.2176
@<TRIPOS>BOND
     1     7     1    1
     2    12     6    1
     3     6     5    1
     4     5    11    1
     5     5     4    1
     6     1    11    1
     7     1     2    1
     8     8     2    1
     9     2     3    1
    10     3     4    1
    11     3     9    1
    12     4    10    1
