@<TRIPOS>MOLECULE
1eeh_UMA_A_1.pdb
 49 51 0 0 0
SMALL
GASTEIGER

@<TRIPOS>ATOM
      1  N1        29.5570    1.6750   22.4650 N.am  450  UMA450     -0.1766
      2  C2        30.0760    1.2870   21.1820 C.1   450  UMA450      0.2845
      3  N3        29.8150    2.2000   20.1580 N.2   450  UMA450     -0.2452
      4  C4        29.1200    3.4000   20.2930 C.1   450  UMA450      0.2182
      5  C5        28.6140    3.7380   21.6230 C.2   450  UMA450      0.1242
      6  C6        28.8390    2.8860   22.6550 C.2   450  UMA450      0.0929
      7  O2        30.7210    0.2440   20.9610 O.2   450  UMA450     -0.1918
      8  O4        28.9890    4.0870   19.3080 O.2   450  UMA450     -0.2085
      9  C1B       29.6800    0.6770   23.5160 C.3   450  UMA450      0.2401
     10  C2B       30.5150    1.1650   24.7030 C.3   450  UMA450      0.2319
     11  O2'       31.9460    0.9290   24.3410 O.3   450  UMA450     -0.2157
     12  C3B       30.0450    0.2550   25.7700 C.3   450  UMA450      0.2158
     13  C4B       28.5470    0.0580   25.4720 C.3   450  UMA450      0.1799
     14  O4B       28.4600    0.2000   24.0250 O.3   450  UMA450     -0.3320
     15  O3B       30.6130   -1.0270   25.5740 O.3   450  UMA450     -0.2175
     16  C5B       27.5980    0.9980   26.2480 C.3   450  UMA450      0.1813
     17  O5B       27.9130    2.4160   26.0230 O.3   450  UMA450     -0.3112
     18  PA        26.8150    3.5170   26.1940 P.3   450  UMA450      0.2189
     19  O1A       27.4840    4.8460   26.2160 O.3   450  UMA450     -0.4371
     20  O2A       25.6850    3.3520   25.2770 O.2   450  UMA450     -0.5170
     21  O3A       26.2770    3.1880   27.6850 O.3   450  UMA450     -0.2703
     22  PB        24.8250    3.2640   28.3160 P.3   450  UMA450      0.2208
     23  O1B       24.0480    2.0610   28.0230 O.2   450  UMA450     -0.5170
     24  O2B       24.2020    4.6260   28.0680 O.3   450  UMA450     -0.4371
     25  O1'       25.2000    3.2260   29.8670 O.3   450  UMA450     -0.2864
     26  C1'       25.9830    4.3200   30.3980 C.3   450  UMA450      0.2632
     27  C2'       26.9880    3.7340   31.4010 C.3   450  UMA450      0.1813
     28  N2'       27.9120    2.8360   30.7220 N.am  450  UMA450     -0.1994
     29  C7'       29.0870    3.3040   30.2570 C.2   450  UMA450      0.2420
     30  O7'       29.5410    4.4550   30.5220 O.2   450  UMA450     -0.2733
     31  C8'       29.8940    2.3650   29.3630 C.3   450  UMA450      0.0964
     32  C3'       26.1700    3.0160   32.5110 C.3   450  UMA450      0.1733
     33  O3'       27.0430    2.4520   33.4530 O.3   450  UMA450     -0.3449
     34  C4'       25.2550    4.0410   33.1950 C.3   450  UMA450      0.2103
     35  O4'       24.5120    3.4290   34.2320 O.3   450  UMA450     -0.2178
     36  C5'       24.3040    4.6440   32.1630 C.3   450  UMA450      0.1833
     37  O5'       25.0740    5.2460   31.0610 O.3   450  UMA450     -0.3260
     38  C6'       23.4210    5.7430   32.7550 C.3   450  UMA450      0.2142
     39  O6'       24.2540    6.8610   33.1330 O.3   450  UMA450     -0.2176
     40  C18       27.4680    1.0730   33.5090 C.3   450  UMA450      0.1926
     41  C19       28.9740    0.9810   33.3630 C.2   450  UMA450      0.2690
     42  O18       29.5270   -0.0890   33.1210 O.2   450  UMA450     -0.2707
     43  C20       26.8570    0.3920   34.7250 C.3   450  UMA450      0.0421
     44  N4        29.6280    2.1430   33.5220 N.am  450  UMA450     -0.1936
     45  C21       31.0580    2.2270   33.7990 C.3   450  UMA450      0.1979
     46  C22       31.3950    1.8720   35.2820 C.2   450  UMA450      0.3842
     47  O19       30.5770    2.1750   36.2080 O.co2 450  UMA450     -0.2437
     48  O20       32.4600    1.2610   35.5070 O.co2 450  UMA450     -0.2437
     49  C23       31.6080    3.5990   33.4320 C.3   450  UMA450      0.0356
@<TRIPOS>BOND
     1     8     4    2
     2     3     4    2
     3     3     2    2
     4     4     5    1
     5     7     2    2
     6     2     1   am
     7     5     6    2
     8     1     6    1
     9     1     9    1
    10     9    14    1
    11     9    10    1
    12    14    13    1
    13    11    10    1
    14    10    12    1
    15    20    18    2
    16    13    12    1
    17    13    16    1
    18    15    12    1
    19    17    18    1
    20    17    16    1
    21    18    19    1
    22    18    21    1
    23    21    22    1
    24    23    22    2
    25    24    22    1
    26    22    25    1
    27    31    29    1
    28    25    26    1
    29    29    30    2
    30    29    28   am
    31    26    37    1
    32    26    27    1
    33    28    27    1
    34    37    36    1
    35    27    32    1
    36    36    38    1
    37    36    34    1
    38    32    34    1
    39    32    33    1
    40    38    39    1
    41    42    41    2
    42    34    35    1
    43    41    40    1
    44    41    44   am
    45    49    45    1
    46    33    40    1
    47    40    43    1
    48    44    45    1
    49    45    46    1
    50    46    48   ar
    51    46    47   ar
