@<TRIPOS>MOLECULE
1eei_GAA_D_1.pdb
 21 22 0 0 0
SMALL
GASTEIGER

@<TRIPOS>ATOM
      1  C1        30.7160   12.9270   23.7880 C.3   504  GAA504      0.3218
      2  C2        29.7840   12.4910   22.6700 C.3   504  GAA504      0.2542
      3  C3        28.6690   13.5590   22.4870 C.3   504  GAA504      0.2211
      4  C4        27.9330   13.7030   23.8070 C.3   504  GAA504      0.2145
      5  C5        28.9400   14.1120   24.8350 C.3   504  GAA504      0.1846
      6  C6        28.2100   14.1280   26.1070 C.3   504  GAA504      0.2142
      7  C7        32.3190   14.7310   24.1690 C.ar  504  GAA504      0.1431
      8  C8        31.9220   15.5590   25.1870 C.ar  504  GAA504      0.0610
      9  C9        32.9050   16.1220   26.0110 C.ar  504  GAA504      0.1459
     10  C10       34.2730   15.8170   25.7550 C.ar  504  GAA504      0.0243
     11  C11       34.6330   14.9660   24.6960 C.ar  504  GAA504      0.0048
     12  C12       33.6370   14.4090   23.8810 C.ar  504  GAA504      0.0371
     13  N1        32.5140   17.0010   27.1130 N.pl3 504  GAA504      0.0578
     14  O1        31.2920   14.1690   23.3400 O.3   504  GAA504     -0.4504
     15  O2        30.5540   12.4130   21.5440 O.3   504  GAA504     -0.2135
     16  O3        27.7490   13.3320   21.4380 O.3   504  GAA504     -0.2173
     17  O4        27.2950   12.4870   24.1700 O.3   504  GAA504     -0.2176
     18  O5        30.0060   13.1460   25.0030 O.3   504  GAA504     -0.3157
     19  O6        29.1170   14.7840   26.9310 O.3   504  GAA504     -0.2176
     20  O7        33.3610   17.5100   27.8780 O.2   504  GAA504     -0.1261
     21  O8        31.3020   17.2610   27.3350 O.2   504  GAA504     -0.1261
@<TRIPOS>BOND
     1    16     3    1
     2    15     2    1
     3     3     2    1
     4     3     4    1
     5     2     1    1
     6    14     1    1
     7    14     7    1
     8     1    18    1
     9     4    17    1
    10     4     5    1
    11    12     7   ar
    12    12    11   ar
    13     7     8   ar
    14    11    10   ar
    15     5    18    1
    16     5     6    1
    17     8     9   ar
    18    10     9   ar
    19     9    13    1
    20     6    19    1
    21    13    21    2
    22    13    20    2
