@<TRIPOS>MOLECULE
1eem_GSH_A_1.pdb
 20 19 0 0 0
SMALL
GASTEIGER

@<TRIPOS>ATOM
      1  N1        17.4650    4.8350   40.6900 N.3   999  GSH999     -0.1208
      2  CA1       17.8620    5.8330   39.7050 C.3   999  GSH999      0.1948
      3  C1        19.1720    6.5430   40.1130 C.2   999  GSH999      0.3819
      4  O11       19.8760    7.0590   39.2340 O.co2 999  GSH999     -0.2441
      5  O12       19.4630    6.5450   41.4080 O.co2 999  GSH999     -0.2441
      6  CB1       16.7070    6.8390   39.5330 C.3   999  GSH999      0.0402
      7  CG1       17.0510    7.9920   38.5580 C.3   999  GSH999      0.0889
      8  CD1       15.7150    8.6450   38.1290 C.2   999  GSH999      0.2418
      9  OE1       14.6410    8.2780   38.6090 O.2   999  GSH999     -0.2733
     10  N2        15.8230    9.6140   37.2140 N.am  999  GSH999     -0.1968
     11  CA2       14.6130   10.2820   36.7380 C.3   999  GSH999      0.1843
     12  C2        14.3590    9.8240   35.2870 C.2   999  GSH999      0.2627
     13  O2        15.2770    9.6080   34.4830 O.2   999  GSH999     -0.2714
     14  CB2       14.7800   11.8140   36.7030 C.3   999  GSH999      0.0997
     15  SG2       15.3770   12.5410   38.2610 S.3   999  GSH999     -0.0797
     16  N3        13.0720    9.6700   34.9290 N.am  999  GSH999     -0.1917
     17  CA3       12.6890    9.2410   33.5720 C.3   999  GSH999      0.2285
     18  C3        11.4300    8.4030   33.6560 C.2   999  GSH999      0.3865
     19  O31       11.2140    7.8060   34.7220 O.co2 999  GSH999     -0.2437
     20  O32       10.6940    8.3600   32.6490 O.co2 999  GSH999     -0.2437
@<TRIPOS>BOND
     1    20    18   ar
     2    17    18    1
     3    17    16    1
     4    18    19   ar
     5    13    12    2
     6    16    12   am
     7    12    11    1
     8    14    11    1
     9    14    15    1
    10    11    10    1
    11    10     8   am
    12     8     7    1
    13     8     9    2
    14     7     6    1
    15     4     3   ar
    16     6     2    1
    17     2     3    1
    18     2     1    1
    19     3     5   ar
