@<TRIPOS>MOLECULE
1eet_BFU_A_1.pdb
 26 28 0 0 0
SMALL
GASTEIGER

@<TRIPOS>ATOM
      1 BR         -6.2890  145.9120  174.4550 Br    2000  BFU2000    -0.0474
      2  C2        -7.0360  144.6520  173.3660 C.ar  2000  BFU2000     0.0538
      3  C3        -8.3020  144.1240  173.6560 C.ar  2000  BFU2000     0.1070
      4  N4        -8.8530  143.1780  172.8280 N.ar  2000  BFU2000    -0.2267
      5  C5        -8.2090  142.7160  171.7120 C.ar  2000  BFU2000     0.1561
      6  C6        -6.9320  143.2190  171.3800 C.ar  2000  BFU2000     0.0368
      7  C7        -6.3460  144.1930  172.2160 C.ar  2000  BFU2000     0.0112
      8  N8        -8.8390  141.7360  170.8980 N.am  2000  BFU2000    -0.1421
      9  C9       -10.0840  141.2000  170.8910 C.2   2000  BFU2000     0.3448
     10  O10      -10.3540  140.3790  170.0110 O.2   2000  BFU2000    -0.2488
     11  N11      -11.0350  141.5710  171.7980 N.am  2000  BFU2000    -0.1883
     12  C12      -12.4320  141.1270  171.8420 C.3   2000  BFU2000     0.1015
     13  C13      -12.6900  139.6160  171.9750 C.3   2000  BFU2000     0.0283
     14  C14      -13.0730  140.5580  173.1330 C.3   2000  BFU2000     0.0495
     15  C15      -12.2340  140.4700  174.4320 C.ar  2000  BFU2000     0.0456
     16  C16      -12.1110  139.2160  175.1150 C.ar  2000  BFU2000     0.1392
     17  F        -12.7050  138.1310  174.6390 F     2000  BFU2000    -0.2044
     18  C18      -11.3590  139.1140  176.3080 C.ar  2000  BFU2000     0.0296
     19  C19      -10.7230  140.2570  176.8390 C.ar  2000  BFU2000     0.0083
     20  C20      -10.8200  141.5320  176.1900 C.ar  2000  BFU2000     0.0734
     21  C21      -11.5860  141.6390  174.9700 C.ar  2000  BFU2000     0.1966
     22  O22      -11.7220  142.8610  174.2890 O.3   2000  BFU2000    -0.2867
     23  C23      -10.1200  142.7560  176.7890 C.2   2000  BFU2000     0.1761
     24  O24      -10.2310  143.8200  176.1980 O.2   2000  BFU2000    -0.2912
     25  C25       -9.3030  142.7100  178.0720 C.3   2000  BFU2000     0.0693
     26  C26       -8.3140  143.8980  178.1980 C.3   2000  BFU2000     0.0086
@<TRIPOS>BOND
     1    10     9    2
     2     9     8   am
     3     9    11   am
     4     8     5    1
     5     6     5   ar
     6     6     7   ar
     7     5     4   ar
     8    11    12    1
     9    12    13    1
    10    12    14    1
    11    13    14    1
    12     7     2   ar
    13     4     3   ar
    14    14    15    1
    15     2     3   ar
    16     2     1    1
    17    22    21    1
    18    15    21   ar
    19    15    16   ar
    20    17    16    1
    21    21    20   ar
    22    16    18   ar
    23    20    23    1
    24    20    19   ar
    25    24    23    2
    26    18    19   ar
    27    23    25    1
    28    25    26    1
