@<TRIPOS>MOLECULE
1ef3_NAP_A_1.pdb
 48 52 0 0 0
SMALL
GASTEIGER

@<TRIPOS>ATOM
      1  PA       -34.1670   17.7200  -47.1750 P.3   320  NAP320      0.2189
      2  O1A      -34.9440   17.7900  -45.9320 O.3   320  NAP320     -0.4371
      3  O2A      -32.9150   18.3770  -47.2230 O.2   320  NAP320     -0.5170
      4  O5B      -35.1630   18.2320  -48.3380 O.3   320  NAP320     -0.3112
      5  C5B      -34.8770   18.0620  -49.7330 C.3   320  NAP320      0.1813
      6  C4B      -36.0590   18.5800  -50.4500 C.3   320  NAP320      0.1820
      7  O4B      -36.1950   19.9430  -50.1000 O.3   320  NAP320     -0.3136
      8  C3B      -35.9750   18.5270  -51.9320 C.3   320  NAP320      0.2157
      9  O3B      -37.3090   18.1880  -52.4340 O.3   320  NAP320     -0.2175
     10  C2B      -35.5670   19.9290  -52.3170 C.3   320  NAP320      0.2314
     11  O2B      -36.0150   20.3040  -53.6580 O.3   320  NAP320     -0.2630
     12  C1B      -36.2540   20.7480  -51.2820 C.3   320  NAP320      0.3158
     13  N9A      -35.6080   22.0540  -50.9460 N.pl3 320  NAP320     -0.1439
     14  C8A      -34.2740   22.3460  -50.6690 C.3   320  NAP320      0.3377
     15  N7A      -34.0810   23.6020  -50.4090 N.2   320  NAP320     -0.2095
     16  C5A      -35.3280   24.1700  -50.5170 C.2   320  NAP320      0.2526
     17  C6A      -35.7680   25.4770  -50.3510 C.2   320  NAP320      0.4393
     18  N6A      -34.9380   26.4620  -50.0270 N.pl3 320  NAP320      0.2180
     19  N1A      -37.1020   25.7270  -50.5300 N.2   320  NAP320      0.0021
     20  C2A      -37.9490   24.7240  -50.8580 C.3   320  NAP320      0.5254
     21  N3A      -37.6040   23.4580  -51.0320 N.2   320  NAP320     -0.0055
     22  C4A      -36.2610   23.2500  -50.8430 C.2   320  NAP320      0.3518
     23  O3       -34.0260   16.1960  -47.5900 O.3   320  NAP320     -0.2703
     24  PN       -32.8920   15.0690  -47.4790 P.3   320  NAP320      0.2189
     25  O1N      -32.3050   14.9500  -48.8150 O.2   320  NAP320     -0.5170
     26  O2N      -33.6050   13.8180  -46.9450 O.3   320  NAP320     -0.4371
     27  O5D      -31.8360   15.4790  -46.3270 O.3   320  NAP320     -0.3112
     28  C5D      -30.7050   16.3550  -46.6270 C.3   320  NAP320      0.1813
     29  C4D      -29.3900   15.6080  -46.8560 C.3   320  NAP320      0.1799
     30  O4D      -29.0530   14.8830  -45.6830 O.3   320  NAP320     -0.3327
     31  C3D      -29.4800   14.5350  -47.8910 C.3   320  NAP320      0.2158
     32  O3D      -29.5300   15.0180  -49.2220 O.3   320  NAP320     -0.2175
     33  C2D      -28.2690   13.7120  -47.5990 C.3   320  NAP320      0.2309
     34  O2D      -27.1230   14.2890  -48.1820 O.3   320  NAP320     -0.2158
     35  C1D      -28.3030   13.7230  -46.0330 C.3   320  NAP320      0.2263
     36  N1N      -29.0100   12.5380  -45.5610 N.pl3 320  NAP320     -0.2787
     37  C2N      -28.2690   11.6440  -44.7960 C.3   320  NAP320      0.1244
     38  C3N      -28.9400   10.4570  -44.3420 C.2   320  NAP320      0.0544
     39  C7N      -28.2610    9.4620  -43.5470 C.2   320  NAP320      0.2818
     40  O7N      -28.8050    8.4390  -43.1880 O.2   320  NAP320     -0.2670
     41  N7N      -27.0520    9.6890  -43.0800 N.am  320  NAP320     -0.0839
     42  C4N      -30.2720   10.2760  -44.6630 C.2   320  NAP320      0.0033
     43  C5N      -30.9580   11.1670  -45.4050 C.2   320  NAP320      0.0157
     44  C6N      -30.3290   12.2890  -45.8530 C.2   320  NAP320      0.0633
     45  P2B      -35.0240   20.5340  -54.9010 P.3   320  NAP320      0.5328
     46  O1X      -33.8340   19.6720  -54.7760 O.3   320  NAP320     -0.1145
     47  O2X      -35.9260   20.2000  -55.9960 O.2   320  NAP320     -0.2224
     48  O3X      -34.7490   21.9590  -54.8230 O.3   320  NAP320     -0.1145
@<TRIPOS>BOND
     1    47    45    2
     2    45    48    1
     3    45    46    1
     4    45    11    1
     5    11    10    1
     6     9     8    1
     7    10     8    1
     8    10    12    1
     9     8     6    1
    10    12    13    1
    11    12     7    1
    12    21    20    1
    13    21    22    2
    14    13    22    1
    15    13    14    1
    16    20    19    1
    17    22    16    1
    18    14    15    1
    19    19    17    2
    20    16    15    2
    21    16    17    1
    22     6     7    1
    23     6     5    1
    24    17    18    1
    25     5     4    1
    26    32    31    1
    27    25    24    2
    28     4     1    1
    29    34    33    1
    30    31    33    1
    31    31    29    1
    32    33    35    1
    33    23    24    1
    34    23     1    1
    35    24    26    1
    36    24    27    1
    37     3     1    2
    38     1     2    1
    39    29    28    1
    40    29    30    1
    41    28    27    1
    42    35    30    1
    43    35    36    1
    44    44    36    1
    45    44    43    2
    46    36    37    1
    47    43    42    1
    48    37    38    1
    49    42    38    2
    50    38    39    1
    51    39    40    2
    52    39    41   am
