@<TRIPOS>MOLECULE
1ef3_FID_A_1.pdb
 20 22 0 0 0
SMALL
GASTEIGER

@<TRIPOS>ATOM
      1  C2I      -29.9890    8.6230  -47.1120 C.1   340  FID340      0.3075
      2  N4       -29.3530    7.6070  -46.5670 N.2   340  FID340     -0.2446
      3  C5       -30.0730    6.4800  -46.6120 C.1   340  FID340      0.2166
      4  C7I      -31.3990    6.8350  -47.3000 C.3   340  FID340      0.2260
      5  C12      -31.5710    6.0510  -48.5640 C.ar  340  FID340      0.0506
      6  C13      -30.7630    6.3660  -49.6590 C.ar  340  FID340      0.0313
      7  C14      -30.9000    5.6740  -50.8360 C.ar  340  FID340      0.1401
      8  F17      -30.1190    5.9940  -51.8620 F     340  FID340     -0.2042
      9  C15      -31.8350    4.6530  -50.9800 C.ar  340  FID340      0.0327
     10  C16      -32.6590    4.3360  -49.8910 C.ar  340  FID340      0.0390
     11  C11      -32.5370    5.0330  -48.6850 C.ar  340  FID340      0.1380
     12  O10      -33.4070    4.6530  -47.6730 O.3   340  FID340     -0.4699
     13  C9       -33.0230    5.0490  -46.3600 C.3   340  FID340      0.2477
     14  C19      -34.1350    4.7960  -45.3100 C.2   340  FID340      0.3010
     15  N21      -35.3410    4.4660  -45.7440 N.am  340  FID340     -0.0846
     16  O20      -33.8940    4.8980  -44.1210 O.2   340  FID340     -0.2677
     17  C8I      -32.6280    6.5700  -46.3740 C.3   340  FID340      0.0980
     18  N1I      -31.1770    8.2480  -47.5530 N.2   340  FID340     -0.1582
     19  O6I      -29.7520    5.3620  -46.1940 O.2   340  FID340     -0.2111
     20  O3I      -29.5450    9.7590  -47.2080 O.2   340  FID340     -0.1881
@<TRIPOS>BOND
     1     8     7    1
     2     9     7   ar
     3     9    10   ar
     4     7     6   ar
     5    10    11   ar
     6     6     5   ar
     7    11     5   ar
     8    11    12    1
     9     5     4    1
    10    12    13    1
    11    18     4    1
    12    18     1    2
    13     4     3    1
    14     4    17    1
    15    20     1    2
    16     1     2    2
    17     3     2    2
    18     3    19    2
    19    17    13    1
    20    13    14    1
    21    15    14   am
    22    14    16    2
