@<TRIPOS>MOLECULE
1efa_NPF_A_1.pdb
 20 21 0 0 0
SMALL
GASTEIGER

@<TRIPOS>ATOM
      1  C1       -13.4460   87.4610   32.3760 C.ar  901  NPF901      0.1637
      2  C2       -12.7560   88.6800   32.1060 C.ar  901  NPF901      0.0387
      3  C3       -11.4450   88.9690   32.5040 C.ar  901  NPF901      0.0032
      4  C4       -10.7510   87.9670   33.2110 C.ar  901  NPF901      0.0019
      5  C5       -11.3800   86.7390   33.5190 C.ar  901  NPF901      0.0272
      6  C6       -12.7300   86.4850   33.1210 C.ar  901  NPF901      0.1766
      7  N6       -13.2760   85.2310   33.4850 N.pl3 901  NPF901      0.0607
      8  O6A      -14.4160   84.8790   33.1700 O.2   901  NPF901     -0.1260
      9  O6B      -12.5370   84.4820   34.1270 O.2   901  NPF901     -0.1260
     10  O1'      -14.3510   86.9100   31.4130 O.3   901  NPF901     -0.4488
     11  C1'      -15.7170   87.2620   31.0790 C.3   901  NPF901      0.3218
     12  C2'      -16.0170   88.6250   30.3750 C.3   901  NPF901      0.2541
     13  O2'      -16.0360   89.7350   31.3030 O.3   901  NPF901     -0.2135
     14  C3'      -17.3490   88.6360   29.6330 C.3   901  NPF901      0.2210
     15  O3'      -17.4430   89.9200   28.9760 O.3   901  NPF901     -0.2173
     16  C4'      -17.3820   87.5070   28.6040 C.3   901  NPF901      0.2119
     17  O4'      -16.3710   87.8450   27.6350 O.3   901  NPF901     -0.2177
     18  C5'      -17.1260   86.1550   29.3060 C.3   901  NPF901      0.1519
     19  C6'      -17.0150   85.0480   28.2830 C.3   901  NPF901      0.0350
     20  O5'      -15.9370   86.1840   30.1310 O.3   901  NPF901     -0.3184
@<TRIPOS>BOND
     1    17    16    1
     2    19    18    1
     3    16    18    1
     4    16    14    1
     5    15    14    1
     6    18    20    1
     7    14    12    1
     8    20    11    1
     9    12    11    1
    10    12    13    1
    11    11    10    1
    12    10     1    1
    13     2     1   ar
    14     2     3   ar
    15     1     6   ar
    16     3     4   ar
    17     6     7    1
    18     6     5   ar
    19     8     7    2
    20     4     5   ar
    21     7     9    2
