@<TRIPOS>MOLECULE
1efc_GDP_A_1.pdb
 28 30 0 0 0
SMALL
GASTEIGER

@<TRIPOS>ATOM
      1  PB        38.7280   27.9070   21.9810 P.3   513  GDP513      0.5373
      2  O1B       39.7970   28.9630   21.7170 O.3   513  GDP513     -0.1143
      3  O2B       37.6960   27.7820   21.0050 O.2   513  GDP513     -0.2221
      4  O3B       39.4020   26.6270   22.4430 O.3   513  GDP513     -0.1143
      5  O3A       38.0490   28.4400   23.3590 O.3   513  GDP513     -0.2261
      6  PA        36.4730   28.4640   23.6240 P.3   513  GDP513      0.2231
      7  O1A       35.7480   29.4630   22.7870 O.2   513  GDP513     -0.5169
      8  O2A       35.9780   27.0660   23.5920 O.3   513  GDP513     -0.4370
      9  O5'       36.5410   28.9960   25.1480 O.3   513  GDP513     -0.3111
     10  C5'       37.3150   28.2700   26.1240 C.3   513  GDP513      0.1813
     11  C4'       36.6430   28.4930   27.4870 C.3   513  GDP513      0.1799
     12  O4'       36.8590   29.8810   27.8000 O.3   513  GDP513     -0.3326
     13  C3'       35.1290   28.2940   27.5820 C.3   513  GDP513      0.2158
     14  O3'       34.7810   27.9780   28.9400 O.3   513  GDP513     -0.2175
     15  C2'       34.5600   29.7130   27.3490 C.3   513  GDP513      0.2310
     16  O2'       33.2580   29.9380   27.9220 O.3   513  GDP513     -0.2158
     17  C1'       35.6160   30.5230   28.0960 C.3   513  GDP513      0.2293
     18  N9        35.6500   31.9140   27.6070 N.pl3 513  GDP513     -0.2354
     19  C8        35.7450   32.3690   26.3260 C.3   513  GDP513      0.2246
     20  N7        35.7790   33.6580   26.1800 N.2   513  GDP513     -0.2322
     21  C5        35.6920   34.1230   27.4740 C.2   513  GDP513      0.2182
     22  C6        35.6650   35.4640   27.9810 C.1   513  GDP513      0.2372
     23  O6        35.6780   36.4980   27.3540 O.2   513  GDP513     -0.2069
     24  N1        35.5600   35.5380   29.3770 N.2   513  GDP513     -0.2485
     25  C2        35.4850   34.4190   30.1770 C.1   513  GDP513      0.2531
     26  N2        35.3770   34.6490   31.4960 N.pl3 513  GDP513     -0.0226
     27  N3        35.5260   33.1620   29.7130 N.2   513  GDP513     -0.3074
     28  C4        35.6200   33.0610   28.3700 C.2   513  GDP513      0.2300
@<TRIPOS>BOND
     1     3     1    2
     2     2     1    1
     3     1     4    1
     4     1     5    1
     5     7     6    2
     6     5     6    1
     7     8     6    1
     8     6     9    1
     9     9    10    1
    10    10    11    1
    11    20    19    1
    12    20    21    2
    13    19    18    1
    14    15    13    1
    15    15    16    1
    16    15    17    1
    17    23    22    2
    18    21    22    1
    19    21    28    1
    20    11    13    1
    21    11    12    1
    22    13    14    1
    23    18    17    1
    24    18    28    1
    25    12    17    1
    26    22    24    2
    27    28    27    2
    28    24    25    2
    29    27    25    2
    30    25    26    1
