@<TRIPOS>MOLECULE
1efd_GCR_N_1.pdb
 49 47 0 0 0
SMALL
GASTEIGER

@<TRIPOS>ATOM
      1  C1        24.0570    3.2910   33.6150 C.1   503  GCR503      0.0000
      2  C2        27.5770   -1.2120   30.6920 C.1   503  GCR503      0.0000
      3  C3        24.7440    8.0690   31.8530 C.3   503  GCR503      0.0000
      4  C4        26.8920    5.2130   33.8590 C.1   503  GCR503      0.0000
      5  C5        25.9770    0.2960   32.7880 C.1   503  GCR503      0.0000
      6  C6        27.1370    9.5010   29.7810 C.2   503  GCR503      0.0000
      7  C7        28.5580    3.8050   31.5320 C.1   503  GCR503      0.0000
      8  C8        29.3940    1.0880   29.2170 C.1   503  GCR503      0.0000
      9  C9        24.6890    5.3700   27.9050 C.2   503  GCR503      0.0000
     10  C10       24.5000    4.6940   34.0320 C.3   503  GCR503      0.0000
     11  C11       27.0400   -1.7490   32.0100 C.3   503  GCR503      0.0000
     12  C13       28.0800    5.7240   33.0380 C.3   503  GCR503      0.0000
     13  C14       24.7080    1.0140   33.1330 C.3   503  GCR503      0.0000
     14  C16       28.5390    3.2310   30.1020 C.3   503  GCR503      0.0000
     15  C17       29.5250   -0.4280   29.4190 C.3   503  GCR503      0.0000
     16  C18       23.3800    5.7170   33.8280 C.3   503  GCR503      0.0000
     17  C21       27.9540    7.2500   32.8550 C.3   503  GCR503      0.0000
     18  C24       27.2050    3.5190   29.4040 C.3   503  GCR503      0.0000
     19  C25       23.6940    7.0900   34.3840 C.3   503  GCR503      0.0000
     20  C27       29.1690    7.9610   32.2040 C.3   503  GCR503      0.0000
     21  C29       25.9850    2.7650   29.9370 C.3   503  GCR503      0.0000
     22  C30       23.0890    8.2320   33.5670 C.3   503  GCR503      0.0000
     23  C32       29.1530    8.1660   30.6610 C.3   503  GCR503      0.0000
     24  C34       24.6940    3.1510   29.2090 C.3   503  GCR503      0.0000
     25  C35       27.8210   10.8780   29.6350 C.3   503  GCR503      0.0000
     26  C36       25.1040    7.3580   29.9670 C.3   503  GCR503      0.0000
     27  C37       24.8100    4.7580   26.4930 C.3   503  GCR503      0.0000
     28 GA         21.0860    8.5300   31.1170 Ga    503  GCR503      0.0000
     29  N1        25.6930    5.1240   33.2670 N.2   503  GCR503      0.0000
     30  N2        25.8710   -0.9960   32.4530 N.2   503  GCR503      0.0000
     31  N3        28.1210    5.0690   31.7070 N.2   503  GCR503      0.0000
     32  N4        28.7500    1.7770   30.1700 N.2   503  GCR503      0.0000
     33  N5        23.3840    8.1310   32.1210 N.4   503  GCR503      0.0000
     34  N6        27.8150    8.3720   30.0710 N.am  503  GCR503      0.0000
     35  N7        25.0030    2.3920   33.4730 N.2   503  GCR503      0.0000
     36  N8        24.5940    4.6090   29.0240 N.am  503  GCR503      0.0000
     37  N9        28.8960   -0.9420   30.6370 N.2   503  GCR503      0.0000
     38  O1        22.8790    3.0350   33.4190 O.2   503  GCR503      0.0000
     39  O2        26.7960   -1.0180   29.7560 O.2   503  GCR503      0.0000
     40  O3        23.0790    7.9840   29.9020 O.3   503  GCR503      0.0000
     41  O4        27.0640    4.9180   35.0420 O.2   503  GCR503      0.0000
     42  O5        27.0460    0.9160   32.7700 O.2   503  GCR503      0.0000
     43  O6        25.9630    9.3530   29.2710 O.2   503  GCR503     -0.5000
     44  O7        28.9580    3.1020   32.4660 O.2   503  GCR503      0.0000
     45  O8        24.6000    6.6470   28.0380 O.2   503  GCR503     -0.5000
     46  O10       22.5480    8.0900   31.0540 O.3   503  GCR503      0.0000
     47  O11       27.1880    7.1710   29.7700 O.3   503  GCR503     -0.5000
     48  O14       24.3780    5.2620   30.2110 O.3   503  GCR503     -0.5000
     49  O17       29.8640    1.6240   28.2110 O.2   503  GCR503      0.0000
@<TRIPOS>BOND
     1    27     9    1
     2     9    45    2
     3     9    36   am
     4    49     8    2
     5    36    24    1
     6    36    48    1
     7    24    21    1
     8     8    15    1
     9     8    32    2
    10    43     6    2
    11    18    21    1
    12    18    14    1
    13    15    37    1
    14    25     6    1
    15    39     2    2
    16    47    34    1
    17     6    34   am
    18    40    46    1
    19    34    23    1
    20    14    32    1
    21    14     7    1
    22    37     2    2
    23    23    20    1
    24     2    11    1
    25    46    33    1
    26     7    31    2
    27     7    44    2
    28    31    12    1
    29     3    33    1
    30    11    30    1
    31    33    22    1
    32    20    17    1
    33    30     5    2
    34    42     5    2
    35     5    13    1
    36    17    12    1
    37    12     4    1
    38    13    35    1
    39    29     4    2
    40    29    10    1
    41    38     1    2
    42    35     1    2
    43    22    19    1
    44     1    10    1
    45    16    10    1
    46    16    19    1
    47     4    41    2
