@<TRIPOS>MOLECULE
1efg_GDP_A_1.pdb
 28 30 0 0 0
SMALL
GASTEIGER

@<TRIPOS>ATOM
      1  PB        60.5650   49.1940   48.0080 P.3   692  GDP692      0.5373
      2  O1B       59.2230   49.1240   48.4970 O.3   692  GDP692     -0.1143
      3  O2B       60.9700   48.4770   46.7670 O.2   692  GDP692     -0.2221
      4  O3B       60.9870   50.6790   47.7720 O.3   692  GDP692     -0.1143
      5  O3A       61.3630   48.7590   49.2040 O.3   692  GDP692     -0.2261
      6  PA        61.4350   49.6220   50.3800 P.3   692  GDP692      0.2231
      7  O1A       62.8100   50.1700   50.4000 O.2   692  GDP692     -0.5169
      8  O2A       60.2750   50.4740   50.4070 O.3   692  GDP692     -0.4370
      9  O5'       61.5650   48.8340   51.6920 O.3   692  GDP692     -0.3111
     10  C5'       60.5990   47.8940   52.0480 C.3   692  GDP692      0.1813
     11  C4'       60.9500   47.1650   53.3010 C.3   692  GDP692      0.1799
     12  O4'       62.1580   46.4190   53.1590 O.3   692  GDP692     -0.3326
     13  C3'       61.0710   48.1610   54.3260 C.3   692  GDP692      0.2158
     14  O3'       60.3070   47.7690   55.3840 O.3   692  GDP692     -0.2175
     15  C2'       62.4880   48.0250   54.5910 C.3   692  GDP692      0.2310
     16  O2'       62.5080   48.5350   55.8870 O.3   692  GDP692     -0.2158
     17  C1'       62.8100   46.5430   54.3720 C.3   692  GDP692      0.2293
     18  N9        64.1760   46.2110   54.0600 N.pl3 692  GDP692     -0.2354
     19  C8        65.0070   46.7460   53.1520 C.3   692  GDP692      0.2246
     20  N7        66.2170   46.2520   53.2340 N.2   692  GDP692     -0.2322
     21  C5        66.1700   45.3230   54.2700 C.2   692  GDP692      0.2182
     22  C6        67.1950   44.4960   54.8860 C.1   692  GDP692      0.2372
     23  O6        68.3850   44.3100   54.6610 O.2   692  GDP692     -0.2069
     24  N1        66.6920   43.8030   55.9190 N.2   692  GDP692     -0.2485
     25  C2        65.3830   43.8340   56.3450 C.1   692  GDP692      0.2531
     26  N2        65.1160   43.1340   57.4530 N.pl3 692  GDP692     -0.0226
     27  N3        64.3940   44.5880   55.7630 N.2   692  GDP692     -0.3074
     28  C4        64.8920   45.3130   54.7440 C.2   692  GDP692      0.2300
@<TRIPOS>BOND
     1     3     1    2
     2     4     1    1
     3     1     2    1
     4     1     5    1
     5     5     6    1
     6     6     7    2
     7     6     8    1
     8     6     9    1
     9     9    10    1
    10    10    11    1
    11    19    20    1
    12    19    18    1
    13    12    11    1
    14    12    17    1
    15    20    21    2
    16    11    13    1
    17    18    17    1
    18    18    28    1
    19    21    28    1
    20    21    22    1
    21    13    15    1
    22    13    14    1
    23    17    15    1
    24    15    16    1
    25    23    22    2
    26    28    27    2
    27    22    24    2
    28    27    25    2
    29    24    25    2
    30    25    26    1
