@<TRIPOS>MOLECULE
1efh_A3P_A_1.pdb
 27 29 0 0 0
SMALL
GASTEIGER

@<TRIPOS>ATOM
      1  P1        16.4760   36.5750   48.1310 P.3   303  A3P303      0.5327
      2  O1P       17.3480   37.5280   47.4280 O.3   303  A3P303     -0.1145
      3  O2P       15.2490   37.2450   48.5880 O.3   303  A3P303     -0.1145
      4  O3P       16.1600   35.4120   47.2880 O.2   303  A3P303     -0.2224
      5  P2        22.4370   36.1890   52.8710 P.3   303  A3P303      0.5327
      6  O4P       23.0460   37.3650   52.1980 O.2   303  A3P303     -0.2224
      7  O5P       22.0210   36.5270   54.2560 O.3   303  A3P303     -0.1145
      8  O6P       23.3670   35.0410   52.8620 O.3   303  A3P303     -0.1145
      9  O5'       21.1230   35.7720   52.0590 O.3   303  A3P303     -0.2675
     10  C5'       20.1210   36.7200   51.6880 C.3   303  A3P303      0.1859
     11  C4'       18.8800   35.9760   51.2130 C.3   303  A3P303      0.1796
     12  O4'       18.1450   35.4960   52.3910 O.3   303  A3P303     -0.3136
     13  C3'       17.8850   36.8340   50.4220 C.3   303  A3P303      0.1928
     14  O3'       17.2670   36.0200   49.4130 O.3   303  A3P303     -0.2673
     15  C2'       16.9590   37.2900   51.5340 C.3   303  A3P303      0.2543
     16  O2'       15.6970   37.8070   51.1600 O.3   303  A3P303     -0.2131
     17  C1'       16.8300   35.9920   52.3250 C.3   303  A3P303      0.3185
     18  N9        16.2570   36.2030   53.6320 N.pl3 303  A3P303     -0.1439
     19  C8        16.6520   37.0620   54.6290 C.3   303  A3P303      0.3377
     20  N7        15.9050   37.0220   55.7060 N.2   303  A3P303     -0.2095
     21  C5        14.9440   36.0660   55.3970 C.2   303  A3P303      0.2526
     22  C6        13.8290   35.5440   56.1110 C.2   303  A3P303      0.4393
     23  N6        13.4860   35.9370   57.3440 N.pl3 303  A3P303      0.2180
     24  N1        13.0740   34.5820   55.4930 N.2   303  A3P303      0.0021
     25  C2        13.3960   34.1630   54.2450 C.3   303  A3P303      0.5254
     26  N3        14.4140   34.5850   53.4760 N.2   303  A3P303     -0.0055
     27  C4        15.1510   35.5430   54.1130 C.2   303  A3P303      0.3518
@<TRIPOS>BOND
     1     4     1    2
     2     2     1    1
     3     1     3    1
     4     1    14    1
     5    14    13    1
     6    13    11    1
     7    13    15    1
     8    16    15    1
     9    11    10    1
    10    11    12    1
    11    15    17    1
    12    10     9    1
    13     9     5    1
    14     6     5    2
    15    17    12    1
    16    17    18    1
    17     8     5    1
    18     5     7    1
    19    26    27    2
    20    26    25    1
    21    18    27    1
    22    18    19    1
    23    27    21    1
    24    25    24    1
    25    19    20    1
    26    21    20    2
    27    21    22    1
    28    24    22    2
    29    22    23    1
