@<TRIPOS>MOLECULE
1efi_GAT_D_1.pdb
 19 20 0 0 0
SMALL
GASTEIGER

@<TRIPOS>ATOM
      1  C1       -20.1020   19.8870   14.9850 C.3   104  GAT104      0.3218
      2  C2       -19.3160   21.0390   15.6030 C.3   104  GAT104      0.2542
      3  C3       -17.8880   21.1030   15.1370 C.3   104  GAT104      0.2211
      4  C4       -17.2380   19.7730   15.3920 C.3   104  GAT104      0.2145
      5  C5       -18.0800   18.6550   14.7060 C.3   104  GAT104      0.1846
      6  C6       -17.4690   17.2460   14.9760 C.3   104  GAT104      0.2142
      7  C7       -21.1930   19.3240   12.8270 C.ar  104  GAT104      0.1415
      8  C8       -20.8270   18.2720   11.9820 C.ar  104  GAT104      0.0384
      9  C9       -21.7940   17.5520   11.2680 C.ar  104  GAT104      0.0212
     10  C10      -23.1490   17.8910   11.4030 C.ar  104  GAT104      0.0893
     11  C11      -23.5220   18.9330   12.2260 C.ar  104  GAT104      0.0212
     12  C12      -22.5430   19.6430   12.9380 C.ar  104  GAT104      0.0384
     13  N1       -24.1230   17.1540   10.7630 N.pl3 104  GAT104     -0.1281
     14  O1       -20.2140   20.0540   13.5620 O.3   104  GAT104     -0.4505
     15  O2       -19.9630   22.1910   15.0880 O.3   104  GAT104     -0.2135
     16  O3       -17.1120   22.1190   15.7530 O.3   104  GAT104     -0.2173
     17  O4       -17.1430   19.6060   16.7950 O.3   104  GAT104     -0.2176
     18  O5       -19.4400   18.6730   15.2300 O.3   104  GAT104     -0.3157
     19  O6       -18.3910   16.2450   14.5310 O.3   104  GAT104     -0.2176
@<TRIPOS>BOND
     1    13    10    1
     2     9    10   ar
     3     9     8   ar
     4    10    11   ar
     5     8     7   ar
     6    11    12   ar
     7     7    12   ar
     8     7    14    1
     9    14     1    1
    10    19     6    1
    11     5     6    1
    12     5    18    1
    13     5     4    1
    14     1    18    1
    15     1     2    1
    16    15     2    1
    17     3     4    1
    18     3     2    1
    19     3    16    1
    20     4    17    1
