@<TRIPOS>MOLECULE
1efk_NAD_A_1.pdb
 44 48 0 0 0
SMALL
GASTEIGER

@<TRIPOS>ATOM
      1  PA        13.5030   32.2530   31.3190 P.3   601  NAD601      0.2189
      2  O1A       14.5370   33.2910   31.4990 O.3   601  NAD601     -0.4371
      3  O2A       13.3940   31.6100   29.9990 O.2   601  NAD601     -0.5170
      4  O5B       12.0580   32.8350   31.7670 O.3   601  NAD601     -0.3112
      5  C5B       11.9090   33.6680   32.9380 C.3   601  NAD601      0.1813
      6  C4B       10.6940   34.5820   32.7480 C.3   601  NAD601      0.1821
      7  O4B       10.4040   35.2930   33.9990 O.3   601  NAD601     -0.3135
      8  C3B       10.9680   35.6260   31.6870 C.3   601  NAD601      0.2184
      9  O3B        9.8370   35.7520   30.7870 O.3   601  NAD601     -0.2174
     10  C2B       11.1730   36.9020   32.4300 C.3   601  NAD601      0.2570
     11  O2B       10.7290   38.0350   31.6530 O.3   601  NAD601     -0.2130
     12  C1B       10.3790   36.7250   33.7060 C.3   601  NAD601      0.3186
     13  N9A       10.9140   37.5240   34.8480 N.pl3 601  NAD601     -0.1439
     14  C8A       12.2410   37.7850   35.1460 C.3   601  NAD601      0.3377
     15  N7A       12.2900   38.5980   36.2260 N.2   601  NAD601     -0.2095
     16  C5A       11.0300   38.8000   36.5430 C.2   601  NAD601      0.2526
     17  C6A       10.6550   39.6000   37.6230 C.2   601  NAD601      0.4393
     18  N6A       11.5570   40.2060   38.3980 N.pl3 601  NAD601      0.2180
     19  N1A        9.3130   39.7280   37.8650 N.2   601  NAD601      0.0021
     20  C2A        8.4050   39.0870   37.0550 C.3   601  NAD601      0.5254
     21  N3A        8.8220   38.3040   35.9960 N.2   601  NAD601     -0.0055
     22  C4A       10.1670   38.1680   35.7470 C.2   601  NAD601      0.3518
     23  O3        13.7160   31.1370   32.3950 O.3   601  NAD601     -0.2703
     24  PN        13.0960   29.7340   32.6180 P.3   601  NAD601      0.2189
     25  O1N       13.9030   28.7650   31.8500 O.2   601  NAD601     -0.5170
     26  O2N       11.6320   29.8370   32.3450 O.3   601  NAD601     -0.4371
     27  O5D       13.3400   29.4650   34.1780 O.3   601  NAD601     -0.3112
     28  C5D       13.0190   30.4530   35.1570 C.3   601  NAD601      0.1813
     29  C4D       13.2300   29.8930   36.5590 C.3   601  NAD601      0.1799
     30  O4D       12.5760   28.5820   36.6570 O.3   601  NAD601     -0.3327
     31  C3D       14.7080   29.6730   36.8690 C.3   601  NAD601      0.2158
     32  O3D       15.0590   30.2870   38.1310 O.3   601  NAD601     -0.2175
     33  C2D       14.8820   28.1770   36.9830 C.3   601  NAD601      0.2309
     34  O2D       15.8470   27.8320   38.0050 O.3   601  NAD601     -0.2158
     35  C1D       13.5140   27.6730   37.3200 C.3   601  NAD601      0.2263
     36  N1N       13.3080   26.2530   36.9030 N.pl3 601  NAD601     -0.2787
     37  C2N       12.8300   25.3360   37.8810 C.3   601  NAD601      0.1244
     38  C3N       12.6350   23.9930   37.5570 C.2   601  NAD601      0.0544
     39  C7N       12.0800   23.0000   38.6180 C.2   601  NAD601      0.2818
     40  O7N       11.9460   21.8100   38.3560 O.2   601  NAD601     -0.2670
     41  N7N       11.7840   23.5190   39.8180 N.am  601  NAD601     -0.0839
     42  C4N       12.9260   23.5570   36.2250 C.2   601  NAD601      0.0033
     43  C5N       13.4000   24.4620   35.2340 C.2   601  NAD601      0.0157
     44  C6N       13.5850   25.8090   35.5620 C.2   601  NAD601      0.0633
@<TRIPOS>BOND
     1     3     1    2
     2     9     8    1
     3     1     2    1
     4     1     4    1
     5     1    23    1
     6    11    10    1
     7     8    10    1
     8     8     6    1
     9     4     5    1
    10    25    24    2
    11    26    24    1
    12    23    24    1
    13    10    12    1
    14    24    27    1
    15     6     5    1
    16     6     7    1
    17    12     7    1
    18    12    13    1
    19    27    28    1
    20    13    14    1
    21    13    22    1
    22    14    15    1
    23    28    29    1
    24    43    44    2
    25    43    42    1
    26    44    36    1
    27    22    21    2
    28    22    16    1
    29    21    20    1
    30    42    38    2
    31    15    16    2
    32    16    17    1
    33    29    30    1
    34    29    31    1
    35    30    35    1
    36    31    33    1
    37    31    32    1
    38    36    35    1
    39    36    37    1
    40    33    35    1
    41    33    34    1
    42    20    19    1
    43    38    37    1
    44    38    39    1
    45    17    19    2
    46    17    18    1
    47    40    39    2
    48    39    41   am
