@<TRIPOS>MOLECULE
1efl_NAD_A_1.pdb
 44 48 0 0 0
SMALL
GASTEIGER

@<TRIPOS>ATOM
      1  PA        13.3430   31.9020   32.2500 P.3   601  NAD601      0.2189
      2  O1A       14.4440   32.8810   32.2880 O.3   601  NAD601     -0.4371
      3  O2A       13.0410   31.2370   30.9630 O.2   601  NAD601     -0.5170
      4  O5B       12.0050   32.5790   32.7810 O.3   601  NAD601     -0.3112
      5  C5B       12.0000   33.3580   33.9950 C.3   601  NAD601      0.1813
      6  C4B       10.7480   34.1970   33.9940 C.3   601  NAD601      0.1821
      7  O4B       10.5790   34.9120   35.2630 O.3   601  NAD601     -0.3135
      8  C3B       10.8160   35.2210   32.9200 C.3   601  NAD601      0.2184
      9  O3B        9.5660   35.2430   32.1950 O.3   601  NAD601     -0.2174
     10  C2B       11.0480   36.5270   33.6350 C.3   601  NAD601      0.2570
     11  O2B       10.5230   37.6590   32.9050 O.3   601  NAD601     -0.2130
     12  C1B       10.3710   36.3310   34.9380 C.3   601  NAD601      0.3186
     13  N9A       10.8490   37.2530   36.0070 N.pl3 601  NAD601     -0.1439
     14  C8A       12.1520   37.5870   36.3330 C.3   601  NAD601      0.3377
     15  N7A       12.1220   38.4460   37.3820 N.2   601  NAD601     -0.2095
     16  C5A       10.8430   38.5920   37.6400 C.2   601  NAD601      0.2526
     17  C6A       10.3810   39.3900   38.6770 C.2   601  NAD601      0.4393
     18  N6A       11.2040   40.0740   39.4520 N.pl3 601  NAD601      0.2180
     19  N1A        9.0300   39.4490   38.8680 N.2   601  NAD601      0.0021
     20  C2A        8.1900   38.7340   38.0460 C.3   601  NAD601      0.5254
     21  N3A        8.6970   37.9580   37.0300 N.2   601  NAD601     -0.0055
     22  C4A       10.0510   37.8920   36.8390 C.2   601  NAD601      0.3518
     23  O3        13.6300   30.8330   33.3980 O.3   601  NAD601     -0.2703
     24  PN        13.0140   29.4450   33.9060 P.3   601  NAD601      0.2189
     25  O1N       13.6010   28.3760   33.0710 O.2   601  NAD601     -0.5170
     26  O2N       11.5390   29.5450   34.0330 O.3   601  NAD601     -0.4371
     27  O5D       13.6500   29.3490   35.3480 O.3   601  NAD601     -0.3112
     28  C5D       13.2720   30.2510   36.3640 C.3   601  NAD601      0.1813
     29  C4D       13.4610   29.5760   37.7010 C.3   601  NAD601      0.1799
     30  O4D       12.7620   28.2740   37.6970 O.3   601  NAD601     -0.3327
     31  C3D       14.9100   29.3000   37.9640 C.3   601  NAD601      0.2158
     32  O3D       15.3260   29.9010   39.2030 O.3   601  NAD601     -0.2175
     33  C2D       15.0270   27.8040   38.0390 C.3   601  NAD601      0.2309
     34  O2D       15.9430   27.3910   39.0610 O.3   601  NAD601     -0.2158
     35  C1D       13.6470   27.3180   38.3120 C.3   601  NAD601      0.2263
     36  N1N       13.4150   25.9310   37.8000 N.pl3 601  NAD601     -0.2787
     37  C2N       12.9220   24.9610   38.7160 C.3   601  NAD601      0.1244
     38  C3N       12.7230   23.6350   38.3190 C.2   601  NAD601      0.0544
     39  C7N       12.1640   22.6050   39.3290 C.2   601  NAD601      0.2818
     40  O7N       11.9680   21.4290   39.0050 O.2   601  NAD601     -0.2670
     41  N7N       11.9040   23.0860   40.5530 N.am  601  NAD601     -0.0839
     42  C4N       13.0190   23.2680   36.9790 C.2   601  NAD601      0.0033
     43  C5N       13.5070   24.2300   36.0480 C.2   601  NAD601      0.0157
     44  C6N       13.7060   25.5590   36.4500 C.2   601  NAD601      0.0633
@<TRIPOS>BOND
     1     3     1    2
     2     9     8    1
     3     1     2    1
     4     1     4    1
     5     1    23    1
     6     4     5    1
     7    11    10    1
     8     8    10    1
     9     8     6    1
    10    25    24    2
    11    23    24    1
    12    10    12    1
    13    24    26    1
    14    24    27    1
    15     6     5    1
    16     6     7    1
    17    12     7    1
    18    12    13    1
    19    27    28    1
    20    13    14    1
    21    13    22    1
    22    43    44    2
    23    43    42    1
    24    14    15    1
    25    28    29    1
    26    44    36    1
    27    22    21    2
    28    22    16    1
    29    42    38    2
    30    21    20    1
    31    15    16    2
    32    16    17    1
    33    30    29    1
    34    30    35    1
    35    29    31    1
    36    36    35    1
    37    36    37    1
    38    31    33    1
    39    31    32    1
    40    33    35    1
    41    33    34    1
    42    20    19    1
    43    38    37    1
    44    38    39    1
    45    17    19    2
    46    17    18    1
    47    40    39    2
    48    39    41   am
