@<TRIPOS>MOLECULE
1efm_GDP_A_1.pdb
 28 30 0 0 0
SMALL
GASTEIGER

@<TRIPOS>ATOM
      1  PB        74.1970   59.9210   -4.1360 P.3   395  GDP395      0.5373
      2  O1B       74.2090   58.6910   -4.9420 O.3   395  GDP395     -0.1143
      3  O2B       72.8250   59.8570   -3.5940 O.3   395  GDP395     -0.1143
      4  O3B       74.0610   60.6070   -5.4270 O.2   395  GDP395     -0.2221
      5  O3A       75.2400   60.8730   -3.1610 O.3   395  GDP395     -0.2261
      6  PA        75.1390   60.9230   -1.6990 P.3   395  GDP395      0.2231
      7  O1A       74.0470   61.7320   -1.2480 O.3   395  GDP395     -0.4370
      8  O2A       75.1480   59.5470   -1.2870 O.2   395  GDP395     -0.5169
      9  O5'       76.1830   61.7500   -1.1670 O.3   395  GDP395     -0.3111
     10  C5'       77.4960   61.8020   -1.8290 C.3   395  GDP395      0.1813
     11  C4'       78.4430   62.0860   -0.9310 C.3   395  GDP395      0.1799
     12  O4'       79.1570   63.2330   -1.3440 O.3   395  GDP395     -0.3326
     13  C3'       78.7260   61.8870    0.5450 C.3   395  GDP395      0.2158
     14  O3'       79.8350   61.2870    0.7230 O.3   395  GDP395     -0.2175
     15  C2'       78.5570   63.3460    0.7600 C.3   395  GDP395      0.2310
     16  O2'       78.9780   63.4540    2.1170 O.3   395  GDP395     -0.2158
     17  C1'       79.3940   64.0160   -0.2830 C.3   395  GDP395      0.2293
     18  N9        78.5650   65.1950   -0.3780 N.pl3 395  GDP395     -0.2354
     19  C8        77.2950   65.3360   -0.6010 C.3   395  GDP395      0.2246
     20  N7        76.8430   66.5700   -0.6870 N.2   395  GDP395     -0.2322
     21  C5        77.9310   67.2480   -0.5600 C.2   395  GDP395      0.2182
     22  C6        78.0710   68.6640   -0.5920 C.1   395  GDP395      0.2372
     23  O6        77.2780   69.5290   -0.8140 O.2   395  GDP395     -0.2069
     24  N1        79.3330   68.9440   -0.3760 N.2   395  GDP395     -0.2485
     25  C2        80.3500   68.0690   -0.1440 C.1   395  GDP395      0.2531
     26  N2        81.4730   68.4960    0.0490 N.pl3 395  GDP395     -0.0226
     27  N3        80.2090   66.7410   -0.1350 N.2   395  GDP395     -0.3074
     28  C4        78.9870   66.4560   -0.3440 C.2   395  GDP395      0.2300
@<TRIPOS>BOND
     1     4     1    2
     2     2     1    1
     3     1     3    1
     4     1     5    1
     5     5     6    1
     6    10     9    1
     7    10    11    1
     8     6     8    2
     9     6     7    1
    10     6     9    1
    11    12    11    1
    12    12    17    1
    13    11    13    1
    14    23    22    2
    15    20    19    1
    16    20    21    2
    17    19    18    1
    18    22    21    1
    19    22    24    2
    20    21    28    1
    21    18    28    1
    22    18    17    1
    23    24    25    2
    24    28    27    2
    25    17    15    1
    26    25    27    2
    27    25    26    1
    28    13    14    1
    29    13    15    1
    30    15    16    1
