@<TRIPOS>MOLECULE
1efp_AMP_A_1.pdb
 23 25 0 0 0
SMALL
GASTEIGER

@<TRIPOS>ATOM
      1  P         14.0360    4.8370   33.7880 P.3   400  AMP400      0.5327
      2  O1P       12.8760    3.9420   34.0130 O.3   400  AMP400     -0.1145
      3  O2P       13.7230    6.2890   33.8210 O.2   400  AMP400     -0.2224
      4  O3P       15.2400    4.4790   34.5540 O.3   400  AMP400     -0.1145
      5  O5'       14.4190    4.4300   32.2840 O.3   400  AMP400     -0.2675
      6  C5'       14.6300    3.0500   31.8440 C.3   400  AMP400      0.1860
      7  C4'       14.4840    2.7920   30.3400 C.3   400  AMP400      0.1823
      8  O4'       13.1780    3.0640   29.8300 O.3   400  AMP400     -0.3135
      9  C3'       15.3170    3.8070   29.5500 C.3   400  AMP400      0.2184
     10  O3'       16.7160    3.4330   29.5980 O.3   400  AMP400     -0.2174
     11  C2'       14.7160    3.6590   28.1490 C.3   400  AMP400      0.2570
     12  O2'       14.9850    2.3620   27.6030 O.3   400  AMP400     -0.2130
     13  C1'       13.2340    3.7220   28.5370 C.3   400  AMP400      0.3186
     14  N9        12.7660    5.1250   28.5840 N.pl3 400  AMP400     -0.1439
     15  C8        12.5490    5.9370   29.6800 C.3   400  AMP400      0.3377
     16  N7        12.1500    7.1550   29.4420 N.2   400  AMP400     -0.2095
     17  C5        12.1040    7.1380   28.0630 C.2   400  AMP400      0.2526
     18  C6        11.7770    8.1390   27.1680 C.2   400  AMP400      0.4393
     19  N6        11.4550    9.3580   27.6180 N.pl3 400  AMP400      0.2180
     20  N1        11.8340    7.8320   25.8530 N.2   400  AMP400      0.0021
     21  C2        12.1950    6.6160   25.4580 C.3   400  AMP400      0.5254
     22  N3        12.5310    5.5920   26.2090 N.2   400  AMP400     -0.0055
     23  C4        12.4660    5.9230   27.5260 C.2   400  AMP400      0.3518
@<TRIPOS>BOND
     1    21    20    1
     2    21    22    1
     3    20    18    2
     4    22    23    2
     5    18    19    1
     6    18    17    1
     7    23    17    1
     8    23    14    1
     9    12    11    1
    10    17    16    2
    11    11    13    1
    12    11     9    1
    13    13    14    1
    14    13     8    1
    15    14    15    1
    16    16    15    1
    17     9    10    1
    18     9     7    1
    19     8     7    1
    20     7     6    1
    21     6     5    1
    22     5     1    1
    23     1     3    2
    24     1     2    1
    25     1     4    1
