@<TRIPOS>MOLECULE
1efr_ANP_A_1.pdb
 31 33 0 0 0
SMALL
GASTEIGER

@<TRIPOS>ATOM
      1  PG       104.3680   63.8710   50.9200 P.3   600  ANP600      0.4884
      2  O1G      104.4680   64.6440   52.1840 O.3   600  ANP600     -0.1240
      3  O2G      105.3560   64.3170   49.9000 O.2   600  ANP600     -0.2331
      4  O3G      104.2890   62.3970   51.1030 O.3   600  ANP600     -0.1240
      5  PB       102.3480   65.7850   49.9220 P.3   600  ANP600      0.4669
      6  O1B      102.0250   66.4210   51.2250 O.3   600  ANP600     -0.1253
      7  O2B      103.1550   66.5550   48.9310 O.2   600  ANP600     -0.2351
      8  N3B      102.9170   64.2920   50.2940 N.3   600  ANP600     -0.0163
      9  PA       100.5340   64.5050   47.9510 P.3   600  ANP600      0.2220
     10  O1A      100.7780   65.2140   46.6630 O.2   600  ANP600     -0.5170
     11  O2A      101.2630   63.2270   48.1640 O.3   600  ANP600     -0.4370
     12  O3A      100.9110   65.5120   49.1850 O.3   600  ANP600     -0.2360
     13  O5'       99.0640   64.2820   48.1510 O.3   600  ANP600     -0.3111
     14  C5'       98.5840   63.5080   49.2670 C.3   600  ANP600      0.1813
     15  C4'       97.5340   62.4730   48.8670 C.3   600  ANP600      0.1821
     16  O4'       96.2440   63.1200   48.6970 O.3   600  ANP600     -0.3135
     17  C3'       97.8000   61.7120   47.5710 C.3   600  ANP600      0.2184
     18  O3'       97.2610   60.3890   47.6580 O.3   600  ANP600     -0.2174
     19  C2'       97.0380   62.5550   46.5620 C.3   600  ANP600      0.2570
     20  O2'       96.6480   61.8550   45.4050 O.3   600  ANP600     -0.2130
     21  C1'       95.8190   62.9720   47.3530 C.3   600  ANP600      0.3186
     22  N9        95.3510   64.2340   46.8270 N.pl3 600  ANP600     -0.1439
     23  C8        96.1260   65.2630   46.3690 C.3   600  ANP600      0.3377
     24  N7        95.4240   66.2640   45.8900 N.2   600  ANP600     -0.2095
     25  C5        94.1040   65.8360   46.0090 C.2   600  ANP600      0.2526
     26  C6        92.8550   66.4300   45.6830 C.2   600  ANP600      0.4393
     27  N6        92.7310   67.6420   45.1440 N.pl3 600  ANP600      0.2180
     28  N1        91.7320   65.7180   45.9400 N.2   600  ANP600      0.0021
     29  C2        91.8480   64.5030   46.4870 C.3   600  ANP600      0.5254
     30  N3        92.9530   63.8470   46.8320 N.2   600  ANP600     -0.0055
     31  C4        94.0520   64.5710   46.5630 C.2   600  ANP600      0.3518
@<TRIPOS>BOND
     1    27    26    1
     2    20    19    1
     3    26    28    2
     4    26    25    1
     5    24    25    2
     6    24    23    1
     7    28    29    1
     8    25    31    1
     9    23    22    1
    10    29    30    1
    11    19    21    1
    12    19    17    1
    13    31    22    1
    14    31    30    2
    15    10     9    2
    16    22    21    1
    17    21    16    1
    18    17    18    1
    19    17    15    1
    20     9    13    1
    21     9    11    1
    22     9    12    1
    23    13    14    1
    24    16    15    1
    25    15    14    1
    26     7     5    2
    27    12     5    1
    28     3     1    2
    29     5     8    1
    30     5     6    1
    31     8     1    1
    32     1     4    1
    33     1     2    1
