@<TRIPOS>MOLECULE
1efr_ADP_D_1.pdb
 27 29 0 0 0
SMALL
GASTEIGER

@<TRIPOS>ATOM
      1  PB       105.0460   47.4850   69.6610 P.3   600  ADP600      0.5373
      2  O1B      104.3890   48.4780   68.7730 O.2   600  ADP600     -0.2221
      3  O2B      105.7470   46.4060   68.9010 O.3   600  ADP600     -0.1143
      4  O3B      105.8450   48.0020   70.8040 O.3   600  ADP600     -0.1143
      5  PA       103.3790   45.1730   70.5690 P.3   600  ADP600      0.2231
      6  O1A      103.1150   44.6690   69.1880 O.2   600  ADP600     -0.5169
      7  O2A      104.3450   44.4130   71.4140 O.3   600  ADP600     -0.4370
      8  O3A      103.7720   46.7430   70.3770 O.3   600  ADP600     -0.2261
      9  O5'      102.1110   45.3050   71.3140 O.3   600  ADP600     -0.3111
     10  C5'      102.2210   45.6250   72.6830 C.3   600  ADP600      0.1813
     11  C4'      101.0460   45.0570   73.4320 C.3   600  ADP600      0.1821
     12  O4'       99.8650   45.7190   72.9420 O.3   600  ADP600     -0.3135
     13  C3'      100.7830   43.5840   73.1740 C.3   600  ADP600      0.2184
     14  O3'      101.5780   42.7800   74.0270 O.3   600  ADP600     -0.2174
     15  C2'       99.3190   43.5070   73.5700 C.3   600  ADP600      0.2570
     16  O2'       99.1710   43.4120   74.9720 O.3   600  ADP600     -0.2130
     17  C1'       98.7710   44.8400   73.0560 C.3   600  ADP600      0.3186
     18  N9        98.1890   44.6860   71.7420 N.pl3 600  ADP600     -0.1439
     19  C8        98.9190   45.0710   70.6510 C.3   600  ADP600      0.3377
     20  N7        98.3200   44.8460   69.5130 N.2   600  ADP600     -0.2095
     21  C5        97.1300   44.2450   69.8930 C.2   600  ADP600      0.2526
     22  C6        96.0490   43.7630   69.1470 C.2   600  ADP600      0.4393
     23  N6        95.9910   43.8160   67.8140 N.pl3 600  ADP600      0.2180
     24  N1        95.0050   43.2290   69.8210 N.2   600  ADP600      0.0021
     25  C2        95.0520   43.1910   71.1590 C.3   600  ADP600      0.5254
     26  N3        96.0170   43.6080   71.9730 N.2   600  ADP600     -0.0055
     27  C4        97.0340   44.1350   71.2640 C.2   600  ADP600      0.3518
@<TRIPOS>BOND
     1    23    22    1
     2     2     1    2
     3     3     1    1
     4    22    24    2
     5    22    21    1
     6     6     5    2
     7    20    21    2
     8    20    19    1
     9     1     8    1
    10     1     4    1
    11    24    25    1
    12    21    27    1
    13     8     5    1
    14     5     9    1
    15     5     7    1
    16    19    18    1
    17    25    26    1
    18    27    18    1
    19    27    26    2
    20     9    10    1
    21    18    17    1
    22    10    11    1
    23    12    17    1
    24    12    11    1
    25    17    15    1
    26    13    11    1
    27    13    15    1
    28    13    14    1
    29    15    16    1
