@<TRIPOS>MOLECULE
1eft_GNP_A_1.pdb
 32 34 0 0 0
SMALL
GASTEIGER

@<TRIPOS>ATOM
      1  PG       105.3480   -0.6010   40.0570 P.3   406  GNP406      0.4884
      2  O1G      105.5720   -0.5780   41.5220 O.3   406  GNP406     -0.1240
      3  O2G      106.3620   -1.2900   39.1580 O.2   406  GNP406     -0.2331
      4  O3G      103.9910   -1.0950   39.5570 O.3   406  GNP406     -0.1240
      5  N3B      104.9810    0.8110   39.4770 N.3   406  GNP406     -0.0163
      6  PB       104.6720    1.6330   38.1930 P.3   406  GNP406      0.4669
      7  O1B      105.3110    1.2230   36.9590 O.2   406  GNP406     -0.2351
      8  O2B      103.1320    1.6160   38.0950 O.3   406  GNP406     -0.1253
      9  O3A      104.9040    3.1720   38.2990 O.3   406  GNP406     -0.2360
     10  PA       103.9580    4.3460   38.6060 P.3   406  GNP406      0.2220
     11  O1A      103.4480    4.2500   39.9910 O.3   406  GNP406     -0.4370
     12  O2A      102.8490    4.5310   37.6860 O.2   406  GNP406     -0.5170
     13  O5'      104.7790    5.6670   38.3470 O.3   406  GNP406     -0.3111
     14  C5'      106.0140    5.7360   39.0780 C.3   406  GNP406      0.1813
     15  C4'      106.5460    7.1600   39.2680 C.3   406  GNP406      0.1799
     16  O4'      106.8520    7.7010   38.0190 O.3   406  GNP406     -0.3326
     17  C3'      105.4740    8.0750   39.7360 C.3   406  GNP406      0.2158
     18  O3'      106.0240    8.9820   40.6650 O.3   406  GNP406     -0.2175
     19  C2'      104.9430    8.7750   38.5360 C.3   406  GNP406      0.2310
     20  O2'      104.5150   10.0970   38.8820 O.3   406  GNP406     -0.2158
     21  C1'      106.0780    8.8360   37.6980 C.3   406  GNP406      0.2293
     22  N9       105.6600    8.8500   36.3120 N.pl3 406  GNP406     -0.2354
     23  C8       104.7800    8.1190   35.5970 C.3   406  GNP406      0.2246
     24  N7       104.6590    8.4640   34.3420 N.2   406  GNP406     -0.2322
     25  C5       105.5470    9.5340   34.2660 C.2   406  GNP406      0.2182
     26  C6       105.8960   10.3650   33.1840 C.1   406  GNP406      0.2372
     27  O6       105.3920   10.3760   32.0700 O.2   406  GNP406     -0.2069
     28  N1       106.8730   11.3010   33.5030 N.2   406  GNP406     -0.2485
     29  C2       107.4430   11.4260   34.7410 C.1   406  GNP406      0.2531
     30  N2       108.4120   12.3300   34.8580 N.pl3 406  GNP406     -0.0226
     31  N3       107.1070   10.6600   35.7760 N.2   406  GNP406     -0.3074
     32  C4       106.1590    9.7430   35.4560 C.2   406  GNP406      0.2300
@<TRIPOS>BOND
     1    27    26    2
     2    26    28    2
     3    26    25    1
     4    28    29    2
     5    25    24    2
     6    25    32    1
     7    24    23    1
     8    29    30    1
     9    29    31    2
    10    32    31    2
    11    32    22    1
    12    23    22    1
    13    22    21    1
    14     7     6    2
    15    12    10    2
    16    21    16    1
    17    21    19    1
    18    16    15    1
    19     8     6    1
    20     6     9    1
    21     6     5    1
    22     9    10    1
    23    13    10    1
    24    13    14    1
    25    19    20    1
    26    19    17    1
    27    10    11    1
    28    14    15    1
    29     3     1    2
    30    15    17    1
    31     5     1    1
    32     4     1    1
    33    17    18    1
    34     1     2    1
