@<TRIPOS>MOLECULE
1efv_AMP_B_1.pdb
 23 25 0 0 0
SMALL
GASTEIGER

@<TRIPOS>ATOM
      1  P         17.2320   41.1450   52.2900 P.3   600  AMP600      0.5327
      2  O1P       16.8790   42.5630   52.2620 O.3   600  AMP600     -0.1145
      3  O2P       18.6020   40.8440   51.7820 O.2   600  AMP600     -0.2224
      4  O3P       16.9560   40.5170   53.5840 O.3   600  AMP600     -0.1145
      5  O5'       16.2180   40.4610   51.3240 O.3   600  AMP600     -0.2675
      6  C5'       14.7740   40.5950   51.2610 C.3   600  AMP600      0.1860
      7  C4'       14.2020   40.2250   49.8910 C.3   600  AMP600      0.1823
      8  O4'       14.7930   41.0010   48.8540 O.3   600  AMP600     -0.3135
      9  C3'       14.6010   38.7910   49.5010 C.3   600  AMP600      0.2184
     10  O3'       13.7380   37.8240   50.0940 O.3   600  AMP600     -0.2174
     11  C2'       14.3410   38.8120   47.9830 C.3   600  AMP600      0.2570
     12  O2'       12.9600   38.9150   47.6090 O.3   600  AMP600     -0.2130
     13  C1'       14.9650   40.1840   47.6620 C.3   600  AMP600      0.3186
     14  N9        16.4150   40.0580   47.2980 N.pl3 600  AMP600     -0.1439
     15  C8        17.5630   40.2380   48.0670 C.3   600  AMP600      0.3377
     16  N7        18.6670   40.0230   47.4200 N.2   600  AMP600     -0.2095
     17  C5        18.2270   39.6770   46.1230 C.2   600  AMP600      0.2526
     18  C6        18.9110   39.3120   44.9450 C.2   600  AMP600      0.4393
     19  N6        20.2430   39.2250   44.8630 N.pl3 600  AMP600      0.2180
     20  N1        18.1820   39.0340   43.8790 N.2   600  AMP600      0.0021
     21  C2        16.8620   39.1020   43.9380 C.3   600  AMP600      0.5254
     22  N3        16.0900   39.4240   44.9670 N.2   600  AMP600     -0.0055
     23  C4        16.8600   39.7040   46.0500 C.2   600  AMP600      0.3518
@<TRIPOS>BOND
     1    20    21    1
     2    20    18    2
     3    21    22    1
     4    19    18    1
     5    18    17    1
     6    22    23    2
     7    23    17    1
     8    23    14    1
     9    17    16    2
    10    14    13    1
    11    14    15    1
    12    16    15    1
    13    12    11    1
    14    13    11    1
    15    13     8    1
    16    11     9    1
    17     8     7    1
    18     9     7    1
    19     9    10    1
    20     7     6    1
    21     6     5    1
    22     5     1    1
    23     3     1    2
    24     2     1    1
    25     1     4    1
