@<TRIPOS>MOLECULE
1efy_BZC_A_1.pdb
 20 22 0 0 0
SMALL
GASTEIGER

@<TRIPOS>ATOM
      1  C1        40.6790   22.6620   21.8370 C.ar  201  BZC201      0.1785
      2  N2        39.9280   22.8690   20.7290 N.2   201  BZC201     -0.3370
      3  C3        38.6530   22.4260   20.9470 C.1   201  BZC201      0.1380
      4  N4        38.6030   21.9240   22.2360 N.2   201  BZC201     -0.3372
      5  C5        39.8310   22.0570   22.8020 C.ar  201  BZC201      0.1742
      6  C7        40.3600   21.7320   24.0480 C.ar  201  BZC201      0.0357
      7  C4        42.0330   22.9360   22.1260 C.ar  201  BZC201      0.0897
      8  C19       37.5710   22.5070   19.8910 C.ar  201  BZC201      0.0886
      9  C2        42.5490   22.5980   23.3900 C.ar  201  BZC201      0.0074
     10  C6        41.7080   22.0010   24.3360 C.ar  201  BZC201      0.0030
     11  C8        42.8860   23.5850   21.1520 C.2   201  BZC201      0.2868
     12  N1        42.4080   23.9600   19.9530 N.am  201  BZC201     -0.0836
     13  O1        44.0640   23.8070   21.4100 O.2   201  BZC201     -0.2666
     14  C11       37.9370   22.5990   18.5340 C.ar  201  BZC201      0.0489
     15  C12       36.2060   22.5290   20.2400 C.ar  201  BZC201      0.0122
     16  C13       36.9460   22.7190   17.5480 C.ar  201  BZC201      0.1395
     17  O2        37.2660   22.7800   16.1600 O.3   201  BZC201     -0.4714
     18  C15       35.5880   22.7470   17.9180 C.ar  201  BZC201      0.0369
     19  C17       35.2060   22.6510   19.2600 C.ar  201  BZC201      0.0039
     20  C18       38.5440   22.3580   15.7040 C.3   201  BZC201      0.2525
@<TRIPOS>BOND
     1    20    17    1
     2    17    16    1
     3    16    18   ar
     4    16    14   ar
     5    18    19   ar
     6    14     8   ar
     7    19    15   ar
     8     8    15   ar
     9     8     3    1
    10    12    11   am
    11     2     3    2
    12     2     1    2
    13     3     4    2
    14    11    13    2
    15    11     7    1
    16     1     7   ar
    17     1     5   ar
    18     7     9   ar
    19     4     5    2
    20     5     6   ar
    21     9    10   ar
    22     6    10   ar
