@<TRIPOS>MOLECULE
1efz_PRF_A_1.pdb
 13 14 0 0 0
SMALL
GASTEIGER

@<TRIPOS>ATOM
      1  N1        17.0380   17.3220   23.8250 N.2   400  PRF400     -0.2525
      2  C2        15.7050   16.9730   23.6510 C.1   400  PRF400      0.2602
      3  N3        15.2220   16.7830   22.4590 N.2   400  PRF400     -0.2733
      4  C4        16.0680   16.9400   21.2730 C.1   400  PRF400      0.0973
      5  C5        17.3520   17.2830   21.4000 C.3   400  PRF400      0.2372
      6  C6        17.8970   17.4890   22.7650 C.1   400  PRF400      0.2101
      7  O6        19.0640   17.7960   22.8870 O.2   400  PRF400     -0.2120
      8  C7        17.8290   17.3330   20.0090 C.2   400  PRF400      0.0258
      9  C10       19.2020   17.6620   19.5130 C.3   400  PRF400      0.1351
     10  N11       19.4970   17.7200   18.0570 N.3   400  PRF400     -0.1264
     11  C8        16.7880   17.0240   19.2530 C.2   400  PRF400      0.1053
     12  N9        15.7700   16.7980   20.0150 N.2   400  PRF400     -0.1847
     13  N2        14.9720   16.8460   24.7060 N.pl3 400  PRF400     -0.0221
@<TRIPOS>BOND
     1    10     9    1
     2    11     8    2
     3    11    12    1
     4     9     8    1
     5     8     5    1
     6    12     4    2
     7     4     5    1
     8     4     3    2
     9     5     6    1
    10     3     2    2
    11     6     7    2
    12     6     1    2
    13     2     1    2
    14     2    13    1
