@<TRIPOS>MOLECULE
1eg2_MTA_A_1.pdb
 20 22 0 0 0
SMALL
GASTEIGER

@<TRIPOS>ATOM
      1  CS        27.7960   19.4730   -1.5430 C.3   401  MTA401      0.0693
      2  S5'       29.3100   20.2230   -2.2240 S.3   401  MTA401     -0.1367
      3  C5'       28.8770   21.9850   -2.2360 C.3   401  MTA401      0.0899
      4  C4'       28.0340   22.4260   -3.4460 C.3   401  MTA401      0.1630
      5  O4'       27.7060   23.8010   -3.3700 O.3   401  MTA401     -0.3153
      6  C2'       28.7240   23.6100   -5.4500 C.3   401  MTA401      0.2569
      7  O2'       28.3550   23.6280   -6.8380 O.3   401  MTA401     -0.2130
      8  C3'       28.6700   22.2020   -4.8440 C.3   401  MTA401      0.2168
      9  O3'       28.0250   21.1740   -5.5840 O.3   401  MTA401     -0.2175
     10  C1'       27.6150   24.3410   -4.6790 C.3   401  MTA401      0.3185
     11  N9        27.7730   25.8030   -4.5290 N.pl3 401  MTA401     -0.1439
     12  C8        28.8650   26.5940   -4.3860 C.3   401  MTA401      0.3377
     13  N7        28.5770   27.9040   -4.2660 N.2   401  MTA401     -0.2095
     14  C5        27.1850   27.9970   -4.3300 C.2   401  MTA401      0.2526
     15  C6        26.2080   28.9960   -4.2730 C.2   401  MTA401      0.4393
     16  N6        26.5300   30.3080   -4.1120 N.pl3 401  MTA401      0.2180
     17  N1        24.8780   28.6890   -4.3750 N.2   401  MTA401      0.0021
     18  C2        24.4960   27.3960   -4.5360 C.3   401  MTA401      0.5254
     19  N3        25.3720   26.3620   -4.6010 N.2   401  MTA401     -0.0055
     20  C4        26.6920   26.6750   -4.4980 C.2   401  MTA401      0.3518
@<TRIPOS>BOND
     1     7     6    1
     2     9     8    1
     3     6     8    1
     4     6    10    1
     5     8     4    1
     6    10    11    1
     7    10     5    1
     8    19    18    1
     9    19    20    2
    10    18    17    1
    11    11    20    1
    12    11    12    1
    13    20    14    1
    14    12    13    1
    15    17    15    2
    16    14    15    1
    17    14    13    2
    18    15    16    1
    19     4     5    1
    20     4     3    1
    21     3     2    1
    22     2     1    1
