@<TRIPOS>MOLECULE
1eg5_PLP_A_1.pdb
 15 15 0 0 0
SMALL
GASTEIGER

@<TRIPOS>ATOM
      1  N1        11.2140   44.7990   49.2930 N.ar  601  PLP601     -0.2452
      2  C2        10.9530   46.0400   49.8150 C.ar  601  PLP601      0.0978
      3  C2A       10.2300   46.1590   51.1610 C.3   601  PLP601      0.0555
      4  C3        11.3480   47.1540   49.1340 C.ar  601  PLP601      0.2049
      5  O3        11.0950   48.3930   49.6400 O.3   601  PLP601     -0.2857
      6  C4        12.0250   47.0170   47.9210 C.ar  601  PLP601      0.0182
      7  C4A       12.5020   48.2860   47.1880 C.3   601  PLP601      0.0342
      8  C5        12.2710   45.7410   47.4090 C.ar  601  PLP601      0.0261
      9  C6        11.8600   44.6390   48.1030 C.ar  601  PLP601      0.0965
     10  C5A       12.9870   45.5370   46.0820 C.3   601  PLP601      0.1815
     11  O4P       14.2770   46.0550   45.8540 O.3   601  PLP601     -0.2653
     12  P         14.9280   45.9360   44.4270 P.3   601  PLP601      0.5329
     13  O1P       15.2020   44.5340   44.1240 O.3   601  PLP601     -0.1145
     14  O2P       16.2980   46.6420   44.8130 O.3   601  PLP601     -0.1145
     15  O3P       14.1650   46.7710   43.4850 O.2   601  PLP601     -0.2224
@<TRIPOS>BOND
     1    15    12    2
     2    13    12    1
     3    12    14    1
     4    12    11    1
     5    11    10    1
     6    10     8    1
     7     7     6    1
     8     8     6   ar
     9     8     9   ar
    10     6     4   ar
    11     9     1   ar
    12     4     5    1
    13     4     2   ar
    14     1     2   ar
    15     2     3    1
