@<TRIPOS>MOLECULE
1egy_HEM_A_1.pdb
 43 50 0 0 0
SMALL
GASTEIGER

@<TRIPOS>ATOM
      1 FE         -7.8440   11.7030   10.1330 Fe    410  HEM410      0.0000
      2  CHA      -10.5660   13.6110    9.9190 C.2   410  HEM410      0.0000
      3  CHB       -9.0730    9.6680    7.7290 C.2   410  HEM410      0.0000
      4  CHC       -5.1450    9.7730   10.3480 C.2   410  HEM410      0.0000
      5  CHD       -6.7610   13.4980   12.7390 C.2   410  HEM410      0.0000
      6  NA        -9.4470   11.6420    9.0680 N.ar  410  HEM410      0.0000
      7  C1A      -10.5150   12.5280    9.1080 C.ar  410  HEM410      0.0000
      8  C2A      -11.5870   12.1300    8.2550 C.ar  410  HEM410      0.0000
      9  C3A      -11.1840   10.9720    7.7030 C.ar  410  HEM410      0.0000
     10  C4A       -9.8510   10.7020    8.1590 C.ar  410  HEM410      0.0000
     11  CMA      -11.9630   10.1360    6.7220 C.3   410  HEM410      0.0000
     12  CAA      -12.8430   12.8890    7.9210 C.3   410  HEM410      0.0000
     13  CBA      -14.0300   12.4210    8.7440 C.3   410  HEM410      0.0000
     14  CGA      -15.3830   12.8100    8.1730 C.2   410  HEM410      0.0000
     15  O1A      -15.4270   13.3160    7.0330 O.co2 410  HEM410      0.0000
     16  O2A      -16.4040   12.5880    8.8590 O.co2 410  HEM410      0.0000
     17  NB        -7.2380   10.0770    9.1940 N.2   410  HEM410      0.0000
     18  C1B       -7.8280    9.3730    8.1900 C.2   410  HEM410      0.0000
     19  C2B       -6.9660    8.3200    7.6760 C.2   410  HEM410      0.0000
     20  C3B       -5.8310    8.3800    8.4180 C.2   410  HEM410      0.0000
     21  C4B       -6.0570    9.4360    9.3770 C.2   410  HEM410      0.0000
     22  CMB       -7.3160    7.3520    6.5460 C.3   410  HEM410      0.0000
     23  CAB       -4.5900    7.7140    8.2710 C.2   410  HEM410      0.0000
     24  CBB       -4.2370    6.5030    7.7490 C.2   410  HEM410      0.0000
     25  NC        -6.2810   11.6970   11.2480 N.ar  410  HEM410      0.0000
     26  C1C       -5.2130   10.8590   11.1680 C.ar  410  HEM410      0.0000
     27  C2C       -4.1770   11.1940   12.1170 C.ar  410  HEM410      0.0000
     28  C3C       -4.6680   12.2050   12.8760 C.ar  410  HEM410      0.0000
     29  C4C       -5.9820   12.4940   12.3120 C.ar  410  HEM410      0.0000
     30  CMC       -2.8190   10.5020   12.2010 C.3   410  HEM410      0.0000
     31  CAC       -4.1210   12.8200   14.0210 C.2   410  HEM410      0.0000
     32  CBC       -3.0630   12.4770   14.8040 C.2   410  HEM410      0.0000
     33  ND        -8.4560   13.2390   11.0580 N.2   410  HEM410      0.0000
     34  C1D       -7.9110   13.8750   12.1280 C.2   410  HEM410      0.0000
     35  C2D       -8.7220   14.9600   12.5790 C.2   410  HEM410      0.0000
     36  C3D       -9.7970   14.9320   11.8340 C.2   410  HEM410      0.0000
     37  C4D       -9.6160   13.9220   10.8620 C.2   410  HEM410      0.0000
     38  CMD       -8.4460   15.9900   13.6480 C.3   410  HEM410      0.0000
     39  CAD      -11.0340   15.7640   12.0420 C.3   410  HEM410      0.0000
     40  CBD      -10.8880   16.9660   11.1500 C.3   410  HEM410      0.0000
     41  CGD      -12.1850   17.7000   10.9550 C.2   410  HEM410      0.0000
     42  O1D      -12.1520   18.9100   10.6700 O.co2 410  HEM410      0.0000
     43  O2D      -13.2500   17.0610   11.0800 O.co2 410  HEM410      0.0000
@<TRIPOS>BOND
     1    22    19    1
     2    11     9    1
     3    15    14   ar
     4    19    18    1
     5    19    20    2
     6     9    10   ar
     7     9     8   ar
     8     3    10    2
     9     3    18    1
    10    24    23    2
    11    12     8    1
    12    12    13    1
    13    10     6   ar
    14    14    13    1
    15    14    16   ar
    16    18    17    2
    17     8     7   ar
    18    23    20    1
    19    20    21    1
    20     6     7   ar
    21     6     1    1
    22     7     2    2
    23    17    21    1
    24    17     1    1
    25    21     4    2
    26     2    37    1
    27     1    33    1
    28     1    25    1
    29     4    26    1
    30    42    41   ar
    31    37    33    2
    32    37    36    1
    33    41    43   ar
    34    41    40    1
    35    33    34    1
    36    40    39    1
    37    26    25   ar
    38    26    27   ar
    39    25    29   ar
    40    36    39    1
    41    36    35    2
    42    27    30    1
    43    27    28   ar
    44    34    35    1
    45    34     5    2
    46    29     5    1
    47    29    28   ar
    48    35    38    1
    49    28    31    1
    50    31    32    2
