@<TRIPOS>MOLECULE
1egy_9AP_A_1.pdb
 15 17 0 0 0
SMALL
GASTEIGER

@<TRIPOS>ATOM
      1  C1       -11.0280    7.1520    9.8740 C.ar  800  9AP800      0.0000
      2  C2       -10.2830    8.2030   10.4000 C.ar  800  9AP800      0.0013
      3  C3       -13.0450    8.1800   10.7500 C.ar  800  9AP800      0.0000
      4  C4       -10.8900    9.2690   11.1110 C.ar  800  9AP800      0.0168
      5  C5       -12.4210    7.1390   10.0490 C.ar  800  9AP800      0.0000
      6  C6       -12.3140    9.2590   11.2950 C.ar  800  9AP800      0.0013
      7  C7       -10.1280   10.3280   11.6410 C.ar  800  9AP800      0.0891
      8  C8       -10.7990   11.3480   12.3380 C.ar  800  9AP800      0.0181
      9  N1        -8.7740   10.4500   11.5380 N.pl3 800  9AP800     -0.1281
     10  C9       -12.1830   11.3560   12.5200 C.ar  800  9AP800      0.0013
     11  C10      -12.7440   12.4280   13.2360 C.ar  800  9AP800      0.0000
     12  C11      -12.9650   10.3110   12.0030 C.ar  800  9AP800      0.0001
     13  C12      -14.1240   12.4910   13.4640 C.ar  800  9AP800      0.0000
     14  C13      -14.9310   11.4680   12.9620 C.ar  800  9AP800      0.0000
     15  C14      -14.3570   10.4030   12.2470 C.ar  800  9AP800      0.0000
@<TRIPOS>BOND
     1     1     5   ar
     2     1     2   ar
     3     5     3   ar
     4     2     4   ar
     5     3     6   ar
     6     4     6   ar
     7     4     7   ar
     8     6    12   ar
     9     9     7    1
    10     7     8   ar
    11    12    15   ar
    12    12    10   ar
    13    15    14   ar
    14     8    10   ar
    15    10    11   ar
    16    14    13   ar
    17    11    13   ar
