@<TRIPOS>MOLECULE
1eh4_IC1_A_1.pdb
 23 25 0 0 0
SMALL
GASTEIGER

@<TRIPOS>ATOM
      1  N1       -21.0040   75.5630   68.9010 N.2   300  IC1300     -0.3369
      2  C2       -21.9880   75.7990   67.9930 C.1   300  IC1300      0.2009
      3  O2       -23.0540   75.1790   67.9680 O.2   300  IC1300     -0.2096
      4  C3       -21.6670   76.7820   67.1200 C.2   300  IC1300      0.0831
      5  C4       -19.4830   78.1890   67.0480 C.2   300  IC1300     -0.0142
      6  C5       -18.2740   78.3430   67.6790 C.2   300  IC1300     -0.0037
      7  C6       -17.9050   77.5600   68.7640 C.2   300  IC1300      0.0020
      8  C7       -18.7390   76.5920   69.2660 C.2   300  IC1300      0.0292
      9  C8       -19.9690   76.4310   68.6330 C.2   300  IC1300      0.1304
     10  C9       -20.3550   77.2220   67.5160 C.3   300  IC1300      0.1095
     11  C10      -22.5500   77.0930   66.1370 C.2   300  IC1300      0.0151
     12  C1'      -22.3080   78.1160   65.0540 C.ar  300  IC1300      0.0686
     13  C2'      -23.2580   79.1580   64.8330 C.ar  300  IC1300      0.1446
     14  C3'      -23.1000   80.0900   63.7920 C.ar  300  IC1300      0.0740
     15  C4'      -21.9720   79.9760   62.9380 C.ar  300  IC1300      0.1448
     16  C5'      -21.0580   78.9460   63.1620 C.ar  300  IC1300      0.0740
     17  C6'      -21.2010   78.0130   64.1890 C.ar  300  IC1300      0.1446
     18  O2'      -24.3690   79.3320   65.6120 O.3   300  IC1300     -0.4712
     19  O4'      -21.7720   80.8530   61.9090 O.3   300  IC1300     -0.4712
     20  O6'      -20.2700   77.0230   64.3540 O.3   300  IC1300     -0.4712
     21  C11      -25.5640   78.6480   65.3430 C.3   300  IC1300      0.2525
     22  C12      -21.2190   80.4380   60.6870 C.3   300  IC1300      0.2525
     23  C13      -19.0200   77.0840   63.7130 C.3   300  IC1300      0.2525
@<TRIPOS>BOND
     1    22    19    1
     2    19    15    1
     3    15    16   ar
     4    15    14   ar
     5    16    17   ar
     6    23    20    1
     7    14    13   ar
     8    17    20    1
     9    17    12   ar
    10    13    12   ar
    11    13    18    1
    12    12    11    1
    13    21    18    1
    14    11     4    2
    15     5    10    1
    16     5     6    2
    17     4    10    1
    18     4     2    1
    19    10     9    1
    20     6     7    1
    21     3     2    2
    22     2     1    2
    23     9     1    2
    24     9     8    1
    25     7     8    2
