@<TRIPOS>MOLECULE
1ehb_HEM_A_1.pdb
 43 50 0 0 0
SMALL
GASTEIGER

@<TRIPOS>ATOM
      1 FE         11.6220    2.2440   -2.2920 Fe    201  HEM201      0.0000
      2  CHA       10.4290    2.8990   -5.4230 C.2   201  HEM201      0.0000
      3  CHB       14.4150    4.1440   -2.9700 C.2   201  HEM201      0.0000
      4  CHC       12.9230    1.4640    0.7700 C.2   201  HEM201      0.0000
      5  CHD        8.7770    0.4610   -1.5780 C.2   201  HEM201      0.0000
      6  NA        12.2720    3.2860   -3.8330 N.ar  201  HEM201      0.0000
      7  C1A       11.6850    3.3890   -5.0870 C.ar  201  HEM201      0.0000
      8  C2A       12.5530    4.0960   -6.0110 C.ar  201  HEM201      0.0000
      9  C3A       13.6230    4.5150   -5.2970 C.ar  201  HEM201      0.0000
     10  C4A       13.4540    4.0120   -3.9540 C.ar  201  HEM201      0.0000
     11  CMA       14.7680    5.3990   -5.7660 C.3   201  HEM201      0.0000
     12  CAA       12.3510    4.2470   -7.5150 C.3   201  HEM201      0.0000
     13  CBA       12.5520    2.9630   -8.3130 C.3   201  HEM201      0.0000
     14  CGA       13.9290    2.3710   -8.1220 C.2   201  HEM201      0.0000
     15  O1A       14.9200    3.1040   -8.3020 O.co2 201  HEM201      0.0000
     16  O2A       14.0210    1.1680   -7.7950 O.co2 201  HEM201      0.0000
     17  NB        13.2920    2.7240   -1.3070 N.2   201  HEM201      0.0000
     18  C1B       14.3500    3.5070   -1.7350 C.2   201  HEM201      0.0000
     19  C2B       15.3970    3.5810   -0.7300 C.2   201  HEM201      0.0000
     20  C3B       14.9590    2.9160    0.3390 C.2   201  HEM201      0.0000
     21  C4B       13.6690    2.3230   -0.0240 C.2   201  HEM201      0.0000
     22  CMB       16.7520    4.2660   -0.8520 C.3   201  HEM201      0.0000
     23  CAB       15.5580    3.0160    1.5930 C.3   201  HEM201      0.0000
     24  CBB       16.0890    1.9460    2.2930 C.3   201  HEM201      0.0000
     25  NC        10.9890    1.1800   -0.7400 N.ar  201  HEM201      0.0000
     26  C1C       11.6910    0.9000    0.4270 C.ar  201  HEM201      0.0000
     27  C2C       10.9520   -0.0220    1.2680 C.ar  201  HEM201      0.0000
     28  C3C        9.7690   -0.2800    0.6380 C.ar  201  HEM201      0.0000
     29  C4C        9.7830    0.4830   -0.6030 C.ar  201  HEM201      0.0000
     30  CMC       11.4070   -0.5670    2.6210 C.3   201  HEM201      0.0000
     31  CAC        8.7770   -1.1760    1.0120 C.3   201  HEM201      0.0000
     32  CBC        8.2970   -1.3680    2.3120 C.3   201  HEM201      0.0000
     33  ND         9.9580    1.7810   -3.2830 N.2   201  HEM201      0.0000
     34  C1D        8.8580    1.0710   -2.8390 C.2   201  HEM201      0.0000
     35  C2D        7.8050    1.0570   -3.8670 C.2   201  HEM201      0.0000
     36  C3D        8.2840    1.7020   -4.9630 C.2   201  HEM201      0.0000
     37  C4D        9.6220    2.1540   -4.5880 C.2   201  HEM201      0.0000
     38  CMD        6.3950    0.5050   -3.7190 C.3   201  HEM201      0.0000
     39  CAD        7.5890    1.9400   -6.3170 C.3   201  HEM201      0.0000
     40  CBD        7.6310    0.7170   -7.2270 C.3   201  HEM201      0.0000
     41  CGD        6.7560    0.8620   -8.4630 C.2   201  HEM201      0.0000
     42  O1D        6.1020   -0.1250   -8.8440 O.co2 201  HEM201      0.0000
     43  O2D        6.7260    1.9560   -9.0580 O.co2 201  HEM201      0.0000
@<TRIPOS>BOND
     1    43    41   ar
     2    42    41   ar
     3    41    40    1
     4    13    14    1
     5    13    12    1
     6    15    14   ar
     7    14    16   ar
     8    12     8    1
     9    40    39    1
    10    39    36    1
    11     8     9   ar
    12     8     7   ar
    13    11     9    1
    14     2     7    2
    15     2    37    1
    16     9    10   ar
    17     7     6   ar
    18    36    37    1
    19    36    35    2
    20    37    33    2
    21    10     6   ar
    22    10     3    2
    23    35    38    1
    24    35    34    1
    25     6     1    1
    26    33    34    1
    27    33     1    1
    28     3    18    1
    29    34     5    2
    30     1    17    1
    31     1    25    1
    32    18    17    2
    33    18    19    1
    34     5    29    1
    35    17    21    1
    36    22    19    1
    37    25    29   ar
    38    25    26   ar
    39    19    20    2
    40    29    28   ar
    41    21    20    1
    42    21     4    2
    43    20    23    1
    44    26     4    1
    45    26    27   ar
    46    28    31    1
    47    28    27   ar
    48    31    32    1
    49    27    30    1
    50    23    24    1
