@<TRIPOS>MOLECULE
1ehe_HEM_A_1.pdb
 43 50 0 0 0
SMALL
GASTEIGER

@<TRIPOS>ATOM
      1 FE         51.5690   11.6500   20.7040 Fe    501  HEM501      0.0000
      2  CHA       49.0650   11.2410   23.0270 C.2   501  HEM501      0.0000
      3  CHB       49.5940   10.0350   18.3680 C.2   501  HEM501      0.0000
      4  CHC       54.1460   11.7290   18.4560 C.2   501  HEM501      0.0000
      5  CHD       53.7040   12.7000   23.1870 C.2   501  HEM501      0.0000
      6  NA        49.7270   10.8490   20.6860 N.ar  501  HEM501      0.0000
      7  C1A       48.8110   10.7960   21.7350 C.ar  501  HEM501      0.0000
      8  C2A       47.5590   10.1550   21.3160 C.ar  501  HEM501      0.0000
      9  C3A       47.7270    9.7770   20.0110 C.ar  501  HEM501      0.0000
     10  C4A       49.0650   10.2290   19.6240 C.ar  501  HEM501      0.0000
     11  CMA       46.6900    9.1050   19.1080 C.3   501  HEM501      0.0000
     12  CAA       46.2790   10.0440   22.1370 C.3   501  HEM501      0.0000
     13  CBA       45.5890   11.3930   22.2650 C.3   501  HEM501      0.0000
     14  CGA       44.2590   11.3000   22.9990 C.2   501  HEM501      0.0000
     15  O1A       43.2230   11.6790   22.4070 O.co2 501  HEM501      0.0000
     16  O2A       44.2500   10.8490   24.1670 O.co2 501  HEM501      0.0000
     17  NB        51.8100   11.0440   18.8280 N.2   501  HEM501      0.0000
     18  C1B       50.8660   10.4080   17.9850 C.2   501  HEM501      0.0000
     19  C2B       51.4110   10.1540   16.6540 C.2   501  HEM501      0.0000
     20  C3B       52.7250   10.5970   16.6970 C.2   501  HEM501      0.0000
     21  C4B       52.9470   11.1570   18.0420 C.2   501  HEM501      0.0000
     22  CMB       50.6870    9.5710   15.4200 C.3   501  HEM501      0.0000
     23  CAB       53.7000   10.4800   15.6940 C.3   501  HEM501      0.0000
     24  CBB       53.5440   10.9380   14.3770 C.3   501  HEM501      0.0000
     25  NC        53.4930   12.1800   20.7870 N.ar  501  HEM501      0.0000
     26  C1C       54.3990   12.2230   19.7320 C.ar  501  HEM501      0.0000
     27  C2C       55.7020   12.7370   20.1520 C.ar  501  HEM501      0.0000
     28  C3C       55.6020   12.9710   21.4990 C.ar  501  HEM501      0.0000
     29  C4C       54.2270   12.6120   21.8820 C.ar  501  HEM501      0.0000
     30  CMC       56.8810   13.0440   19.2140 C.3   501  HEM501      0.0000
     31  CAC       56.5640   13.5280   22.3450 C.3   501  HEM501      0.0000
     32  CBC       57.3090   14.6870   22.0620 C.3   501  HEM501      0.0000
     33  ND        51.4190   11.9010   22.6850 N.2   501  HEM501      0.0000
     34  C1D       52.3890   12.3660   23.5570 C.2   501  HEM501      0.0000
     35  C2D       51.8480   12.5620   24.8860 C.2   501  HEM501      0.0000
     36  C3D       50.5280   12.2090   24.8280 C.2   501  HEM501      0.0000
     37  C4D       50.2830   11.7680   23.4710 C.2   501  HEM501      0.0000
     38  CMD       52.6230   13.0580   26.1040 C.3   501  HEM501      0.0000
     39  CAD       49.4790   12.2940   25.9390 C.3   501  HEM501      0.0000
     40  CBD       48.6900   13.5940   25.8980 C.3   501  HEM501      0.0000
     41  CGD       47.7080   13.7180   27.0500 C.2   501  HEM501      0.0000
     42  O1D       47.4200   14.8590   27.4760 O.co2 501  HEM501      0.0000
     43  O2D       47.2240   12.6750   27.5260 O.co2 501  HEM501      0.0000
@<TRIPOS>BOND
     1    24    23    1
     2    22    19    1
     3    23    20    1
     4    19    20    2
     5    19    18    1
     6    20    21    1
     7    18     3    1
     8    18    17    2
     9    21     4    2
    10    21    17    1
    11     3    10    2
    12     4    26    1
    13    17     1    1
    14    11     9    1
    15    30    27    1
    16    10     9   ar
    17    10     6   ar
    18    26    27   ar
    19    26    25   ar
    20     9     8   ar
    21    27    28   ar
    22     6     1    1
    23     6     7   ar
    24     1    25    1
    25     1    33    1
    26    25    29   ar
    27     8     7   ar
    28     8    12    1
    29    28    29   ar
    30    28    31    1
    31     7     2    2
    32    29     5    1
    33    32    31    1
    34    12    13    1
    35    13    14    1
    36    15    14   ar
    37    33    37    2
    38    33    34    1
    39    14    16   ar
    40     2    37    1
    41     5    34    2
    42    37    36    1
    43    34    35    1
    44    36    35    2
    45    36    39    1
    46    35    38    1
    47    40    39    1
    48    40    41    1
    49    41    42   ar
    50    41    43   ar
