@<TRIPOS>MOLECULE
1ehf_HEM_A_1.pdb
 43 50 0 0 0
SMALL
GASTEIGER

@<TRIPOS>ATOM
      1 FE         51.7230   11.6110   20.6180 Fe    501  HEM501      0.0000
      2  CHA       49.2450   11.1820   22.9800 C.2   501  HEM501      0.0000
      3  CHB       49.7890    9.9170   18.3240 C.2   501  HEM501      0.0000
      4  CHC       54.3380   11.5930   18.3790 C.2   501  HEM501      0.0000
      5  CHD       53.8360   12.7470   23.0650 C.2   501  HEM501      0.0000
      6  NA        49.9020   10.8050   20.6250 N.ar  501  HEM501      0.0000
      7  C1A       48.9880   10.7360   21.6750 C.ar  501  HEM501      0.0000
      8  C2A       47.7150   10.1050   21.2290 C.ar  501  HEM501      0.0000
      9  C3A       47.8930    9.7660   19.9320 C.ar  501  HEM501      0.0000
     10  C4A       49.2430   10.1810   19.5630 C.ar  501  HEM501      0.0000
     11  CMA       46.8640    9.1270   19.0090 C.3   501  HEM501      0.0000
     12  CAA       46.3930    9.9910   21.9890 C.3   501  HEM501      0.0000
     13  CBA       45.7390   11.3550   22.1540 C.3   501  HEM501      0.0000
     14  CGA       44.4020   11.2810   22.8790 C.2   501  HEM501      0.0000
     15  O1A       43.3660   11.6000   22.2530 O.co2 501  HEM501      0.0000
     16  O2A       44.3900   10.9050   24.0740 O.co2 501  HEM501      0.0000
     17  NB        52.0170   10.8980   18.7620 N.2   501  HEM501      0.0000
     18  C1B       51.0780   10.2660   17.9300 C.2   501  HEM501      0.0000
     19  C2B       51.6170   10.0270   16.5820 C.2   501  HEM501      0.0000
     20  C3B       52.9180   10.4880   16.6130 C.2   501  HEM501      0.0000
     21  C4B       53.1500   10.9960   17.9780 C.2   501  HEM501      0.0000
     22  CMB       50.9090    9.3890   15.3740 C.3   501  HEM501      0.0000
     23  CAB       53.8800   10.4730   15.5800 C.3   501  HEM501      0.0000
     24  CBB       53.6410   10.5470   14.1870 C.3   501  HEM501      0.0000
     25  NC        53.6370   12.1520   20.6800 N.ar  501  HEM501      0.0000
     26  C1C       54.5620   12.1510   19.6310 C.ar  501  HEM501      0.0000
     27  C2C       55.8580   12.6600   20.0560 C.ar  501  HEM501      0.0000
     28  C3C       55.7390   12.9090   21.4030 C.ar  501  HEM501      0.0000
     29  C4C       54.3610   12.6020   21.7750 C.ar  501  HEM501      0.0000
     30  CMC       57.0360   13.0070   19.1410 C.3   501  HEM501      0.0000
     31  CAC       56.6980   13.4360   22.2440 C.3   501  HEM501      0.0000
     32  CBC       57.2370   14.7000   22.0460 C.3   501  HEM501      0.0000
     33  ND        51.5620   11.9210   22.5950 N.2   501  HEM501      0.0000
     34  C1D       52.5310   12.4260   23.4490 C.2   501  HEM501      0.0000
     35  C2D       52.0150   12.6080   24.8060 C.2   501  HEM501      0.0000
     36  C3D       50.7030   12.2190   24.7730 C.2   501  HEM501      0.0000
     37  C4D       50.4420   11.7480   23.4020 C.2   501  HEM501      0.0000
     38  CMD       52.7740   13.1320   26.0110 C.3   501  HEM501      0.0000
     39  CAD       49.6750   12.3550   25.9040 C.3   501  HEM501      0.0000
     40  CBD       48.9220   13.6680   25.8770 C.3   501  HEM501      0.0000
     41  CGD       47.8640   13.7570   26.9720 C.2   501  HEM501      0.0000
     42  O1D       47.5800   14.8760   27.4420 O.co2 501  HEM501      0.0000
     43  O2D       47.3200   12.7050   27.3590 O.co2 501  HEM501      0.0000
@<TRIPOS>BOND
     1    24    23    1
     2    22    19    1
     3    23    20    1
     4    19    20    2
     5    19    18    1
     6    20    21    1
     7    18     3    1
     8    18    17    2
     9    21     4    2
    10    21    17    1
    11     3    10    2
    12     4    26    1
    13    17     1    1
    14    11     9    1
    15    30    27    1
    16    10     9   ar
    17    10     6   ar
    18    26    27   ar
    19    26    25   ar
    20     9     8   ar
    21    27    28   ar
    22     1     6    1
    23     1    25    1
    24     1    33    1
    25     6     7   ar
    26    25    29   ar
    27     8     7   ar
    28     8    12    1
    29    28    29   ar
    30    28    31    1
    31     7     2    2
    32    29     5    1
    33    12    13    1
    34    32    31    1
    35    13    14    1
    36    15    14   ar
    37    33    37    2
    38    33    34    1
    39    14    16   ar
    40     2    37    1
    41     5    34    2
    42    37    36    1
    43    34    35    1
    44    36    35    2
    45    36    39    1
    46    35    38    1
    47    40    39    1
    48    40    41    1
    49    41    43   ar
    50    41    42   ar
