@<TRIPOS>MOLECULE
1ehg_HEM_A_1.pdb
 43 50 0 0 0
SMALL
GASTEIGER

@<TRIPOS>ATOM
      1 FE         51.9220   11.4740   20.4500 Fe    501  HEM501      0.0000
      2  CHA       49.4560   11.0190   22.8230 C.2   501  HEM501      0.0000
      3  CHB       49.9130    9.9100   18.1160 C.2   501  HEM501      0.0000
      4  CHC       54.5220   11.4710   18.1990 C.2   501  HEM501      0.0000
      5  CHD       54.1180   12.3740   22.9400 C.2   501  HEM501      0.0000
      6  NA        50.0900   10.6710   20.4560 N.ar  501  HEM501      0.0000
      7  C1A       49.1940   10.5850   21.5230 C.ar  501  HEM501      0.0000
      8  C2A       47.9260    9.9920   21.1030 C.ar  501  HEM501      0.0000
      9  C3A       48.0670    9.6670   19.7960 C.ar  501  HEM501      0.0000
     10  C4A       49.4010   10.1050   19.3910 C.ar  501  HEM501      0.0000
     11  CMA       47.0330    8.9580   18.9370 C.3   501  HEM501      0.0000
     12  CAA       46.6320    9.8890   21.8970 C.3   501  HEM501      0.0000
     13  CBA       45.9420   11.2350   22.0290 C.3   501  HEM501      0.0000
     14  CGA       44.6110   11.1440   22.7550 C.2   501  HEM501      0.0000
     15  O1A       43.5760   11.5500   22.1790 O.co2 501  HEM501      0.0000
     16  O2A       44.5990   10.6670   23.9080 O.co2 501  HEM501      0.0000
     17  NB        52.1740   10.8100   18.5790 N.2   501  HEM501      0.0000
     18  C1B       51.2180   10.2250   17.7270 C.2   501  HEM501      0.0000
     19  C2B       51.7530    9.9810   16.3860 C.2   501  HEM501      0.0000
     20  C3B       53.0630   10.4060   16.4250 C.2   501  HEM501      0.0000
     21  C4B       53.3090   10.9140   17.7860 C.2   501  HEM501      0.0000
     22  CMB       51.0140    9.3760   15.1810 C.3   501  HEM501      0.0000
     23  CAB       54.0250   10.3510   15.4060 C.3   501  HEM501      0.0000
     24  CBB       53.8200   10.7610   14.0750 C.3   501  HEM501      0.0000
     25  NC        53.8700   11.9090   20.5310 N.ar  501  HEM501      0.0000
     26  C1C       54.7730   11.9680   19.4650 C.ar  501  HEM501      0.0000
     27  C2C       56.0690   12.4840   19.8940 C.ar  501  HEM501      0.0000
     28  C3C       55.9840   12.6710   21.2450 C.ar  501  HEM501      0.0000
     29  C4C       54.6200   12.3000   21.6370 C.ar  501  HEM501      0.0000
     30  CMC       57.2690   12.7870   18.9960 C.3   501  HEM501      0.0000
     31  CAC       56.9690   13.1690   22.0950 C.3   501  HEM501      0.0000
     32  CBC       57.7180   14.3190   21.8390 C.3   501  HEM501      0.0000
     33  ND        51.8010   11.6940   22.4370 N.2   501  HEM501      0.0000
     34  C1D       52.8010   12.0860   23.3100 C.2   501  HEM501      0.0000
     35  C2D       52.2880   12.2210   24.6820 C.2   501  HEM501      0.0000
     36  C3D       50.9610   11.9050   24.6410 C.2   501  HEM501      0.0000
     37  C4D       50.6720   11.5460   23.2520 C.2   501  HEM501      0.0000
     38  CMD       53.0920   12.6570   25.9140 C.3   501  HEM501      0.0000
     39  CAD       49.9560   12.0030   25.7940 C.3   501  HEM501      0.0000
     40  CBD       49.2180   13.3340   25.7400 C.3   501  HEM501      0.0000
     41  CGD       48.1140   13.4450   26.7800 C.2   501  HEM501      0.0000
     42  O1D       47.8220   14.5760   27.2210 O.co2 501  HEM501      0.0000
     43  O2D       47.5360   12.4020   27.1530 O.co2 501  HEM501      0.0000
@<TRIPOS>BOND
     1    24    23    1
     2    22    19    1
     3    23    20    1
     4    19    20    2
     5    19    18    1
     6    20    21    1
     7    18     3    1
     8    18    17    2
     9    21     4    2
    10    21    17    1
    11     3    10    2
    12     4    26    1
    13    17     1    1
    14    11     9    1
    15    30    27    1
    16    10     9   ar
    17    10     6   ar
    18    26    27   ar
    19    26    25   ar
    20     9     8   ar
    21    27    28   ar
    22     1     6    1
    23     1    25    1
    24     1    33    1
    25     6     7   ar
    26    25    29   ar
    27     8     7   ar
    28     8    12    1
    29    28    29   ar
    30    28    31    1
    31     7     2    2
    32    29     5    1
    33    32    31    1
    34    12    13    1
    35    13    14    1
    36    15    14   ar
    37    33    37    2
    38    33    34    1
    39    14    16   ar
    40     2    37    1
    41     5    34    2
    42    37    36    1
    43    34    35    1
    44    36    35    2
    45    36    39    1
    46    35    38    1
    47    40    39    1
    48    40    41    1
    49    41    43   ar
    50    41    42   ar
