@<TRIPOS>MOLECULE
1ehi_ADP_A_1.pdb
 27 29 0 0 0
SMALL
GASTEIGER

@<TRIPOS>ATOM
      1  PB        38.8910   13.2610   57.6410 P.3   781  ADP781      0.5373
      2  O1B       38.0130   14.4590   57.6600 O.3   781  ADP781     -0.1143
      3  O2B       39.6710   13.0620   56.2220 O.2   781  ADP781     -0.2221
      4  O3B       38.1030   12.0350   57.9470 O.3   781  ADP781     -0.1143
      5  PA        41.6390   13.4550   58.6970 P.3   781  ADP781      0.2231
      6  O1A       42.1090   13.5670   60.0910 O.3   781  ADP781     -0.4370
      7  O2A       42.1210   12.2040   58.0990 O.2   781  ADP781     -0.5169
      8  O3A       40.0390   13.5100   58.6980 O.3   781  ADP781     -0.2261
      9  O5'       42.0540   14.7070   57.7840 O.3   781  ADP781     -0.3111
     10  C5'       41.7190   16.0670   58.1280 C.3   781  ADP781      0.1813
     11  C4'       42.6820   16.9790   57.3470 C.3   781  ADP781      0.1821
     12  O4'       43.2020   17.9800   58.2500 O.3   781  ADP781     -0.3135
     13  C3'       43.9020   16.2350   56.8040 C.3   781  ADP781      0.2184
     14  O3'       43.7870   15.9180   55.4100 O.3   781  ADP781     -0.2174
     15  C2'       45.0810   17.1720   57.0440 C.3   781  ADP781      0.2570
     16  O2'       45.3920   18.0420   55.9370 O.3   781  ADP781     -0.2130
     17  C1'       44.6520   17.9090   58.2920 C.3   781  ADP781      0.3186
     18  N9        45.1040   17.2380   59.5690 N.pl3 781  ADP781     -0.1439
     19  C8        44.3430   16.4450   60.3330 C.3   781  ADP781      0.3377
     20  N7        45.0460   16.0380   61.3890 N.2   781  ADP781     -0.2095
     21  C5        46.2590   16.5510   61.3150 C.2   781  ADP781      0.2526
     22  C6        47.4260   16.4940   62.1000 C.2   781  ADP781      0.4393
     23  N6        47.4470   15.7890   63.2440 N.pl3 781  ADP781      0.2180
     24  N1        48.5390   17.1790   61.7120 N.2   781  ADP781      0.0021
     25  C2        48.5590   17.9030   60.5760 C.3   781  ADP781      0.5254
     26  N3        47.4530   17.9670   59.8160 N.2   781  ADP781     -0.0055
     27  C4        46.3020   17.3240   60.1340 C.2   781  ADP781      0.3518
@<TRIPOS>BOND
     1    14    13    1
     2    16    15    1
     3     3     1    2
     4    13    15    1
     5    13    11    1
     6    15    17    1
     7    11    10    1
     8    11    12    1
     9     1     2    1
    10     1     4    1
    11     1     8    1
    12     9    10    1
    13     9     5    1
    14     7     5    2
    15    12    17    1
    16    17    18    1
    17     5     8    1
    18     5     6    1
    19    18    27    1
    20    18    19    1
    21    26    27    2
    22    26    25    1
    23    27    21    1
    24    19    20    1
    25    25    24    1
    26    21    20    2
    27    21    22    1
    28    24    22    2
    29    22    23    1
