@<TRIPOS>MOLECULE
1ehi_PHY_A_1.pdb
 16 15 0 0 0
SMALL
GASTEIGER

@<TRIPOS>ATOM
      1  C1        36.2060   10.8950   51.5090 C.3   782  PHY782      0.1692
      2  C2        35.2990   10.6950   50.5010 C.3   782  PHY782      0.0310
      3  C1'       38.0610   12.2010   50.1530 C.3   782  PHY782      0.0999
      4  C2'       39.2260   12.2600   49.1720 C.3   782  PHY782      0.1131
      5  C3'       39.6630   13.6930   48.9040 C.3   782  PHY782      0.0124
      6  C         38.9070   11.4980   47.8710 C.2   782  PHY782      0.3649
      7  O1        39.7460   10.6980   47.5120 O.co2 782  PHY782     -0.2457
      8  O2        37.7510   11.5040   47.4540 O.co2 782  PHY782     -0.2457
      9  N1        35.9360   10.0100   52.5060 N.3   782  PHY782     -0.1225
     10  P1        37.6860   10.9900   51.0160 P.3   782  PHY782      0.2481
     11  O1P       37.9760    9.7100   50.2860 O.2   782  PHY782     -0.2877
     12  O2P       38.6990   10.8200   52.1740 O.3   782  PHY782     -0.2238
     13  P2        38.9320   11.4710   53.5480 P.3   782  PHY782      0.5374
     14  O3P       38.3360   12.8230   53.2860 O.2   782  PHY782     -0.2221
     15  O4P       40.3210   11.6150   54.0280 O.3   782  PHY782     -0.1143
     16  O5P       38.0380   10.7430   54.4560 O.3   782  PHY782     -0.1143
@<TRIPOS>BOND
     1     8     6   ar
     2     7     6   ar
     3     6     4    1
     4     5     4    1
     5     4     3    1
     6     3    10    1
     7    11    10    2
     8     2     1    1
     9    10     1    1
    10    10    12    1
    11     1     9    1
    12    12    13    1
    13    14    13    2
    14    13    15    1
    15    13    16    1
