@<TRIPOS>MOLECULE
1ehk_HEM_A_1.pdb
 43 50 0 0 0
SMALL
GASTEIGER

@<TRIPOS>ATOM
      1  CHA       76.7900   20.5090    5.9090 C.2   800  HEM800      0.0000
      2  CHB       75.5940   16.1160    4.4230 C.2   800  HEM800      0.0000
      3  CHC       79.6750   14.3760    6.2170 C.2   800  HEM800      0.0000
      4  CHD       81.0610   18.8380    7.2590 C.2   800  HEM800      0.0000
      5  C1A       76.1210   19.4640    5.3120 C.ar  800  HEM800      0.0000
      6  C2A       74.8960   19.6040    4.5650 C.ar  800  HEM800      0.0000
      7  C3A       74.5780   18.3760    4.1100 C.ar  800  HEM800      0.0000
      8  C4A       75.6040   17.4820    4.5940 C.ar  800  HEM800      0.0000
      9  CMA       73.4370   18.0260    3.1660 C.3   800  HEM800      0.0000
     10  CAA       74.1600   20.9040    4.2800 C.3   800  HEM800      0.0000
     11  CBA       73.1760   21.2610    5.3750 C.3   800  HEM800      0.0000
     12  CGA       72.6620   22.6660    5.2450 C.2   800  HEM800      0.0000
     13  O1A       71.6700   22.9940    5.9320 O.co2 800  HEM800      0.0000
     14  O2A       73.2540   23.4450    4.4620 O.co2 800  HEM800      0.0000
     15  C1B       76.5570   15.2420    4.8750 C.2   800  HEM800      0.0000
     16  C2B       76.5110   13.8090    4.6880 C.2   800  HEM800      0.0000
     17  C3B       77.6640   13.3180    5.1880 C.2   800  HEM800      0.0000
     18  C4B       78.4020   14.4510    5.7010 C.2   800  HEM800      0.0000
     19  CMB       75.3560   13.0040    4.1110 C.3   800  HEM800      0.0000
     20  CAB       78.0920   12.0010    5.1500 C.3   800  HEM800      0.0000
     21  CBB       77.3430   10.9400    5.6750 C.3   800  HEM800      0.0000
     22  C1C       80.4310   15.4540    6.6230 C.ar  800  HEM800      0.0000
     23  C2C       81.8070   15.3670    7.0700 C.ar  800  HEM800      0.0000
     24  C3C       82.2220   16.6350    7.2890 C.ar  800  HEM800      0.0000
     25  C4C       81.0810   17.4830    7.0210 C.ar  800  HEM800      0.0000
     26  CMC       82.6080   14.0900    7.2930 C.3   800  HEM800      0.0000
     27  CAC       83.5010   17.0690    7.6010 C.3   800  HEM800      0.0000
     28  CBC       84.4280   16.2950    8.3120 C.3   800  HEM800      0.0000
     29  C1D       79.9790   19.6630    7.0760 C.2   800  HEM800      0.0000
     30  C2D       79.9850   21.0780    7.3650 C.2   800  HEM800      0.0000
     31  C3D       78.7680   21.5460    7.0210 C.2   800  HEM800      0.0000
     32  C4D       78.0230   20.4140    6.5130 C.2   800  HEM800      0.0000
     33  CMD       81.1390   21.8820    7.9450 C.3   800  HEM800      0.0000
     34  CAD       78.2810   22.9830    7.1460 C.3   800  HEM800      0.0000
     35  CBD       77.6980   23.2980    8.5170 C.3   800  HEM800      0.0000
     36  CGD       77.1400   24.7070    8.6050 C.2   800  HEM800      0.0000
     37  O1D       76.8260   25.1660    9.7370 O.co2 800  HEM800      0.0000
     38  O2D       77.0110   25.3530    7.5380 O.co2 800  HEM800      0.0000
     39  NA        76.5680   18.1590    5.3020 N.ar  800  HEM800      0.0000
     40  NB        77.7100   15.6300    5.5190 N.2   800  HEM800      0.0000
     41  NC        79.9940   16.7590    6.5920 N.ar  800  HEM800      0.0000
     42  ND        78.7650   19.2530    6.5730 N.2   800  HEM800      0.0000
     43 FE         78.2370   17.4410    6.0420 Fe    800  HEM800      0.0000
@<TRIPOS>BOND
     1     9     7    1
     2     7     6   ar
     3     7     8   ar
     4    19    16    1
     5    10     6    1
     6    10    11    1
     7     2     8    2
     8     2    15    1
     9    14    12   ar
    10     6     5   ar
    11     8    39   ar
    12    16    15    1
    13    16    17    2
    14    15    40    2
    15    20    17    1
    16    20    21    1
    17    17    18    1
    18    12    11    1
    19    12    13   ar
    20    39     5   ar
    21    39    43    1
    22     5     1    2
    23    40    18    1
    24    40    43    1
    25    18     3    2
    26     1    32    1
    27    43    42    1
    28    43    41    1
    29     3    22    1
    30    32    42    2
    31    32    31    1
    32    42    29    1
    33    41    22   ar
    34    41    25   ar
    35    22    23   ar
    36    25     4    1
    37    25    24   ar
    38    31    34    1
    39    31    30    2
    40    23    24   ar
    41    23    26    1
    42    29     4    2
    43    29    30    1
    44    34    35    1
    45    24    27    1
    46    30    33    1
    47    38    36   ar
    48    27    28    1
    49    35    36    1
    50    36    37   ar
