@<TRIPOS>MOLECULE
1ehl_NUC_A_1.pdb
 37 41 0 0 0
SMALL
GASTEIGER

@<TRIPOS>ATOM
      1  O5'       -2.8690   61.3500   12.3330 O.3     1  DT1        -0.2176
      2  C5'       -1.7040   61.6110   11.5670 C.3     1  DT1         0.2140
      3  C4'       -0.4720   61.0290   12.2200 C.3     1  DT1         0.1774
      4  O4'       -0.8420   60.6180   13.5840 O.3     1  DT1        -0.3342
      5  C3'        0.0620   59.7550   11.6060 C.3     1  DT1         0.1557
      6  O3'        0.9370   59.9620   10.5000 O.3     1  DT1        -0.3139
      7  C2'        0.7210   59.0330   12.7610 C.3     1  DT1         0.0842
      8  C1'        0.0100   59.5520   14.0160 C.3     1  DT1         0.2052
      9  N1        -0.7610   58.3710   14.6060 N.am    1  DT1        -0.1942
     10  C2        -0.3690   57.8200   15.6830 C.1     1  DT1         0.2806
     11  O2         0.6600   58.1540   16.2180 O.2     1  DT1        -0.1922
     12  N3        -1.1100   56.7820   16.2650 N.2     1  DT1        -0.2473
     13  C4        -2.3270   56.2950   15.7410 C.1     1  DT1         0.2209
     14  O4        -2.7810   55.2290   16.1040 O.2     1  DT1        -0.2109
     15  C5        -3.0040   57.1700   14.7090 C.3     1  DT1         0.2525
     16  C5M       -3.7900   58.2780   15.4160 C.3     1  DT1         0.0536
     17  O5        -3.8780   56.3780   13.9540 O.3     1  DT1        -0.2054
     18  C6        -1.9170   57.8290   13.7440 C.3     1  DT1         0.1834
     19  P          0.4520   59.5700    9.0400 P.3     2  DT2         0.2141
     20  OP1        1.1670   60.4270    8.0540 O.2     2  DT2        -0.5172
     21  OP2       -1.0150   59.6040    9.1520 O.3     2  DT2        -0.4373
     22  O5'        0.7610   58.0150    8.9320 O.3     2  DT2        -0.3114
     23  C5'        2.0590   57.5030    8.8360 C.3     2  DT2         0.1812
     24  C4'        1.9680   56.0240    8.5560 C.3     2  DT2         0.1773
     25  O4'        1.9490   55.1640    9.7630 O.3     2  DT2        -0.3339
     26  C3'        0.8020   55.5730    7.6750 C.3     2  DT2         0.1857
     27  O3'        1.2170   54.9350    6.4800 O.3     2  DT2        -0.2203
     28  C2'        0.0080   54.6130    8.5460 C.3     2  DT2         0.0874
     29  C1'        0.7090   54.4780    9.8940 C.3     2  DT2         0.2089
     30  N1        -0.0300   55.2860   10.9150 N.am    2  DT2        -0.1806
     31  C2         0.3750   55.2660   12.2030 C.1     2  DT2         0.2740
     32  O2         1.3470   54.5390   12.5720 O.2     2  DT2        -0.1926
     33  N3        -0.2880   56.0970   13.1160 N.2     2  DT2        -0.3239
     34  C4        -1.3080   56.8790   12.6720 C.2     2  DT2         0.1427
     35  C5        -1.7510   56.8830   11.3630 C.2     2  DT2         0.0219
     36  C7        -2.8600   57.7260   10.8360 C.3     2  DT2         0.0348
     37  C6        -1.0680   56.0640   10.5000 C.2     2  DT2         0.0774
@<TRIPOS>BOND
     1    27    26    1
     2    26    28    1
     3    26    24    1
     4    20    19    2
     5    28    29    1
     6    24    23    1
     7    24    25    1
     8    23    22    1
     9    22    19    1
    10    19    21    1
    11    19     6    1
    12    25    29    1
    13    29    30    1
    14    37    30    1
    15    37    35    2
    16     6     5    1
    17    36    35    1
    18    30    31   am
    19    35    34    1
    20     2     3    1
    21     2     1    1
    22     5     3    1
    23     5     7    1
    24    31    32    2
    25    31    33    2
    26     3     4    1
    27    34    33    2
    28    34    18    1
    29     7     8    1
    30     4     8    1
    31    18     9    1
    32    18    15    1
    33    17    15    1
    34     8     9    1
    35     9    10   am
    36    15    16    1
    37    15    13    1
    38    10    11    2
    39    10    12    2
    40    13    14    2
    41    13    12    2
