@<TRIPOS>MOLECULE
1ehn_NAG_A_1.pdb
 14 14 0 0 0
SMALL
GASTEIGER

@<TRIPOS>ATOM
      1  C1        28.8320   40.6740   -4.0110 C.3     1  NAG1        0.1665
      2  C2        27.4720   41.3110   -4.1820 C.3     1  NAG1        0.1576
      3  C3        27.2330   42.5590   -3.4600 C.3     1  NAG1        0.2069
      4  C4        28.4770   43.0130   -2.7810 C.3     1  NAG1        0.2134
      5  C5        29.7850   42.8070   -3.4480 C.3     1  NAG1        0.1809
      6  C6        30.9730   42.8690   -2.5770 C.3     1  NAG1        0.2141
      7  C7        27.2220   40.1740   -6.3910 C.2     1  NAG1        0.2420
      8  C8        28.3090   39.6630   -7.2790 C.3     1  NAG1        0.0964
      9  N2        27.3140   41.3240   -5.6660 N.am    1  NAG1       -0.2019
     10  O3        26.0390   42.6410   -2.7490 O.3     1  NAG1       -0.2184
     11  O4        28.5100   44.2530   -2.1890 O.3     1  NAG1       -0.2176
     12  O5        29.8450   41.6680   -4.2170 O.3     1  NAG1       -0.3489
     13  O6        32.1180   42.3140   -3.1330 O.3     1  NAG1       -0.2176
     14  O7        26.2250   39.6290   -6.2240 O.2     1  NAG1       -0.2733
@<TRIPOS>BOND
     1     8     7    1
     2     7    14    2
     3     7     9   am
     4     9     2    1
     5    12     1    1
     6    12     5    1
     7     2     1    1
     8     2     3    1
     9     3     4    1
    10     3    10    1
    11     5     4    1
    12     5     6    1
    13    13     6    1
    14     4    11    1
