@<TRIPOS>MOLECULE
1ei1_ANP_A_1.pdb
 31 33 0 0 0
SMALL
GASTEIGER

@<TRIPOS>ATOM
      1  PG        33.3140   22.8810   26.8020 P.3   394  ANP394      0.4884
      2  O1G       34.0030   23.5660   25.6870 O.2   394  ANP394     -0.2331
      3  O2G       32.2420   23.6620   27.5090 O.3   394  ANP394     -0.1240
      4  O3G       32.5160   21.7190   26.0410 O.3   394  ANP394     -0.1240
      5  PB        34.5330   20.6670   28.5610 P.3   394  ANP394      0.4669
      6  O1B       35.7310   20.7740   29.4270 O.3   394  ANP394     -0.1253
      7  O2B       33.3220   20.0720   29.1990 O.2   394  ANP394     -0.2351
      8  N3B       34.0980   22.1840   28.0700 N.3   394  ANP394     -0.0163
      9  PA        35.8210   19.1730   26.3250 P.3   394  ANP394      0.2220
     10  O1A       35.5660   18.3120   25.1220 O.2   394  ANP394     -0.5170
     11  O2A       36.7540   20.0880   25.5800 O.3   394  ANP394     -0.4370
     12  O3A       34.6430   19.7060   27.2770 O.3   394  ANP394     -0.2360
     13  O5'       36.8920   18.5900   27.3590 O.3   394  ANP394     -0.3111
     14  C5'       36.4360   17.3250   27.9960 C.3   394  ANP394      0.1813
     15  C4'       37.2550   17.2120   29.2500 C.3   394  ANP394      0.1821
     16  O4'       38.4750   16.4730   29.2690 O.3   394  ANP394     -0.3135
     17  C3'       37.1800   18.3740   30.5170 C.3   394  ANP394      0.2184
     18  O3'       35.8870   17.9110   30.8760 O.3   394  ANP394     -0.2174
     19  C2'       38.4920   17.8410   31.3500 C.3   394  ANP394      0.2570
     20  O2'       38.2460   16.9850   32.4270 O.3   394  ANP394     -0.2130
     21  C1'       39.3060   16.8480   30.3600 C.3   394  ANP394      0.3186
     22  N9        40.4730   17.7620   29.6000 N.pl3 394  ANP394     -0.1439
     23  C8        40.3900   18.3880   28.4440 C.3   394  ANP394      0.3377
     24  N7        41.4930   19.0810   28.3100 N.2   394  ANP394     -0.2095
     25  C5        42.2650   18.9950   29.2300 C.2   394  ANP394      0.2526
     26  C6        43.6140   19.5210   29.6350 C.2   394  ANP394      0.4393
     27  N6        44.4900   20.2720   28.9630 N.pl3 394  ANP394      0.2180
     28  N1        44.1560   19.1480   30.8790 N.2   394  ANP394      0.0021
     29  C2        43.3720   18.3030   31.6780 C.3   394  ANP394      0.5254
     30  N3        42.1060   17.7700   31.3930 N.2   394  ANP394     -0.0055
     31  C4        41.6550   18.1700   30.1670 C.2   394  ANP394      0.3518
@<TRIPOS>BOND
     1    10     9    2
     2    11     9    1
     3     2     1    2
     4     4     1    1
     5     9    12    1
     6     9    13    1
     7     1     3    1
     8     1     8    1
     9    12     5    1
    10    13    14    1
    11    14    15    1
    12     8     5    1
    13    24    23    1
    14    24    25    2
    15    23    22    1
    16     5     7    2
    17     5     6    1
    18    27    26    1
    19    25    26    1
    20    25    31    1
    21    15    16    1
    22    15    17    1
    23    16    21    1
    24    22    31    1
    25    22    21    1
    26    26    28    2
    27    31    30    2
    28    21    19    1
    29    17    18    1
    30    17    19    1
    31    28    29    1
    32    19    20    1
    33    30    29    1
