@<TRIPOS>MOLECULE
1eib_NAG_A_1.pdb
 14 14 0 0 0
SMALL
GASTEIGER

@<TRIPOS>ATOM
      1  C1        28.9620   40.7840   -4.4520 C.3     1  NAG1        0.1665
      2  C2        27.5560   41.3580   -4.4690 C.3     1  NAG1        0.1576
      3  C3        27.4550   42.7360   -3.8410 C.3     1  NAG1        0.2069
      4  C4        28.7610   43.0190   -3.0730 C.3     1  NAG1        0.2134
      5  C5        29.9640   42.9900   -4.0580 C.3     1  NAG1        0.1809
      6  C6        31.2460   43.3140   -3.3210 C.3     1  NAG1        0.2141
      7  C7        26.7510   40.3130   -6.6270 C.2     1  NAG1        0.2420
      8  C8        25.4660   39.6750   -7.0110 C.3     1  NAG1        0.0964
      9  N2        26.7890   41.3300   -5.7350 N.am    1  NAG1       -0.2019
     10  O3        26.3360   42.7800   -2.9420 O.3     1  NAG1       -0.2184
     11  O4        28.7770   44.3050   -2.4740 O.3     1  NAG1       -0.2176
     12  O5        30.0410   41.7220   -4.6350 O.3     1  NAG1       -0.3489
     13  O6        32.3880   42.6390   -3.7050 O.3     1  NAG1       -0.2176
     14  O7        27.7710   39.9890   -7.0610 O.2     1  NAG1       -0.2733
@<TRIPOS>BOND
     1    14     7    2
     2     8     7    1
     3     7     9   am
     4     9     2    1
     5    12     1    1
     6    12     5    1
     7     2     1    1
     8     2     3    1
     9     5     6    1
    10     5     4    1
    11     3     4    1
    12     3    10    1
    13    13     6    1
    14     4    11    1
