@<TRIPOS>MOLECULE
1eir_BPY_A_1.pdb
 14 15 0 0 0
SMALL
GASTEIGER

@<TRIPOS>ATOM
      1  CK1       81.2590   37.9520   16.6790 C.ar  301  BPY301      0.0034
      2  CK2       82.5830   38.5490   16.5700 C.ar  301  BPY301      0.0422
      3  CK3       82.7200   39.9140   16.1110 C.ar  301  BPY301      0.2342
      4  CK4       81.5540   40.6860   15.7700 C.ar  301  BPY301      0.2343
      5  CK5       80.2320   40.0960   15.8820 C.ar  301  BPY301      0.0454
      6  CK6       80.0880   38.7270   16.3340 C.ar  301  BPY301      0.0035
      7  CK7       83.7450   37.8010   16.9170 C.ar  301  BPY301      0.0032
      8  CK8       84.4320   38.0670   18.1720 C.ar  301  BPY301      0.0001
      9  CK9       85.6310   37.3220   18.5110 C.ar  301  BPY301      0.0000
     10  CKA       86.1410   36.3060   17.5990 C.ar  301  BPY301      0.0000
     11  CKB       85.4560   36.0360   16.3440 C.ar  301  BPY301      0.0000
     12  CKC       84.2600   36.7820   16.0000 C.ar  301  BPY301      0.0001
     13  OK1       81.6990   41.9750   15.3060 O.3   301  BPY301     -0.2831
     14  OK2       83.9660   40.4680   15.9910 O.3   301  BPY301     -0.2831
@<TRIPOS>BOND
     1    13     4    1
     2     4     5   ar
     3     4     3   ar
     4     5     6   ar
     5    14     3    1
     6    12    11   ar
     7    12     7   ar
     8     3     2   ar
     9     6     1   ar
    10    11    10   ar
    11     2     1   ar
    12     2     7    1
    13     7     8   ar
    14    10     9   ar
    15     8     9   ar
