@<TRIPOS>MOLECULE
1eix_BMQ_A_1.pdb
 22 23 0 0 0
SMALL
GASTEIGER

@<TRIPOS>ATOM
      1  P         13.2430   21.5570  108.1500 P.3   1301  BMQ1301     0.5327
      2  O1P       12.9940   20.6560  109.3780 O.3   1301  BMQ1301    -0.1145
      3  O2P       12.3660   22.7730  108.0760 O.3   1301  BMQ1301    -0.1145
      4  O3P       13.0710   20.7450  106.9000 O.2   1301  BMQ1301    -0.2224
      5  O5'       14.7550   21.9910  108.3280 O.3   1301  BMQ1301    -0.2675
      6  C5'       15.2860   22.8680  107.3490 C.3   1301  BMQ1301     0.1859
      7  C4'       16.6990   23.2400  107.4860 C.3   1301  BMQ1301     0.1801
      8  O4'       16.9750   24.1540  108.7070 O.3   1301  BMQ1301    -0.3319
      9  C3'       17.8060   22.2380  107.4230 C.3   1301  BMQ1301     0.2158
     10  O3'       18.7760   22.7500  106.4750 O.3   1301  BMQ1301    -0.2175
     11  C2'       18.4420   22.2760  108.8340 C.3   1301  BMQ1301     0.2320
     12  O2'       19.7260   21.8170  108.9770 O.3   1301  BMQ1301    -0.2157
     13  C1'       18.2720   23.7340  109.2020 C.3   1301  BMQ1301     0.2425
     14  N1        18.4410   24.0640  110.6990 N.am  1301  BMQ1301    -0.1473
     15  C2        17.5990   23.4370  111.6450 C.1   1301  BMQ1301     0.2863
     16  O2        16.6480   22.5620  111.2990 O.2   1301  BMQ1301    -0.1918
     17  N3        17.7920   23.7630  112.9880 N.2   1301  BMQ1301    -0.2489
     18  C4        18.7600   24.6580  113.3780 C.1   1301  BMQ1301     0.2018
     19  O4        18.8910   24.9070  114.5790 O.2   1301  BMQ1301    -0.2129
     20  C5        19.5870   25.2680  112.3740 C.3   1301  BMQ1301     0.2213
     21  C6        19.3500   24.9060  111.0640 C.2   1301  BMQ1301     0.2591
     22  O1        20.1350   25.4800  110.1090 O.2   1301  BMQ1301    -0.2725
@<TRIPOS>BOND
     1    10     9    1
     2     4     1    2
     3     6     7    1
     4     6     5    1
     5     9     7    1
     6     9    11    1
     7     7     8    1
     8     3     1    1
     9     1     5    1
    10     1     2    1
    11     8    13    1
    12    11    12    1
    13    11    13    1
    14    13    14    1
    15    22    21    2
    16    14    21   am
    17    14    15   am
    18    21    20    1
    19    16    15    2
    20    15    17    2
    21    20    18    1
    22    17    18    2
    23    18    19    2
