@<TRIPOS>MOLECULE
1eiz_SAM_A_1.pdb
 27 29 0 0 0
SMALL
GASTEIGER

@<TRIPOS>ATOM
      1  N          0.7780   40.7440   12.8000 N.3   301  SAM301     -0.1208
      2  CA        -0.5060   40.5250   12.0590 C.3   301  SAM301      0.1952
      3  C         -1.0090   41.8720   11.5450 C.2   301  SAM301      0.3819
      4  O         -0.3570   42.8850   11.8440 O.co2 301  SAM301     -0.2441
      5  OXT       -2.0650   41.8930   10.8730 O.co2 301  SAM301     -0.2441
      6  CB        -1.5610   39.8880   12.9870 C.3   301  SAM301      0.0414
      7  CG        -1.2890   38.4090   13.2260 C.3   301  SAM301      0.0503
      8  SD        -2.5120   37.5480   14.2530 S.3   301  SAM301     -0.1761
      9  CE        -1.9620   38.0890   15.9330 C.3   301  SAM301      0.0590
     10  C5'       -1.8420   35.8970   14.2580 C.3   301  SAM301      0.0806
     11  C4'       -1.9700   35.1110   12.9790 C.3   301  SAM301      0.1622
     12  O4'       -1.1780   33.9120   13.0860 O.3   301  SAM301     -0.3153
     13  C3'       -3.3860   34.6220   12.6510 C.3   301  SAM301      0.2168
     14  O3'       -3.7180   35.4230   11.4840 O.3   301  SAM301     -0.2175
     15  C2'       -3.1900   33.1850   12.1570 C.3   301  SAM301      0.2569
     16  O2'       -3.9450   32.6760   11.0710 O.3   301  SAM301     -0.2130
     17  C1'       -1.6710   33.0150   12.1260 C.3   301  SAM301      0.3185
     18  N9        -1.1860   31.6620   12.3600 N.pl3 301  SAM301     -0.1439
     19  C8        -1.3740   30.8260   13.4390 C.3   301  SAM301      0.3377
     20  N7        -0.9010   29.6220   13.2560 N.2   301  SAM301     -0.2095
     21  C5        -0.3460   29.6640   11.9890 C.2   301  SAM301      0.2526
     22  C6         0.2930   28.6850   11.1950 C.2   301  SAM301      0.4393
     23  N6         0.4320   27.3980   11.5610 N.pl3 301  SAM301      0.2180
     24  N1         0.7610   29.0630    9.9900 N.2   301  SAM301      0.0021
     25  C2         0.5650   30.3370    9.5910 C.3   301  SAM301      0.5254
     26  N3        -0.0450   31.3310   10.2370 N.2   301  SAM301     -0.0055
     27  C4        -0.4830   30.9240   11.4390 C.2   301  SAM301      0.3518
@<TRIPOS>BOND
     1    25    24    1
     2    25    26    1
     3    24    22    2
     4    26    27    2
     5     5     3   ar
     6    16    15    1
     7    22    23    1
     8    22    21    1
     9    27    21    1
    10    27    18    1
    11    14    13    1
    12     3     4   ar
    13     3     2    1
    14    21    20    2
    15     2     1    1
    16     2     6    1
    17    17    15    1
    18    17    18    1
    19    17    12    1
    20    15    13    1
    21    18    19    1
    22    13    11    1
    23    11    12    1
    24    11    10    1
    25     6     7    1
    26     7     8    1
    27    20    19    1
    28     8    10    1
    29     8     9    1
