@<TRIPOS>MOLECULE
1ej0_SAM_A_1.pdb
 27 29 0 0 0
SMALL
GASTEIGER

@<TRIPOS>ATOM
      1  N          0.9100   40.7220   12.7450 N.3   301  SAM301     -0.1208
      2  CA        -0.4250   40.6590   12.1080 C.3   301  SAM301      0.1952
      3  C         -0.8450   42.0290   11.6110 C.2   301  SAM301      0.3819
      4  O         -0.1220   43.0020   11.8740 O.co2 301  SAM301     -0.2441
      5  OXT       -1.9440   42.0580   10.9580 O.co2 301  SAM301     -0.2441
      6  CB        -1.4270   40.1090   13.1120 C.3   301  SAM301      0.0414
      7  CG        -1.2400   38.6320   13.2750 C.3   301  SAM301      0.0503
      8  SD        -2.4240   37.8000   14.3610 S.3   301  SAM301     -0.1761
      9  CE        -1.9920   38.3440   16.0130 C.3   301  SAM301      0.0590
     10  C5'       -1.8050   36.1500   14.4190 C.3   301  SAM301      0.0806
     11  C4'       -1.8910   35.3840   13.1230 C.3   301  SAM301      0.1622
     12  O4'       -1.1890   34.1220   13.2700 O.3   301  SAM301     -0.3153
     13  C3'       -3.3330   34.9610   12.7670 C.3   301  SAM301      0.2168
     14  O3'       -3.6750   35.7050   11.5740 O.3   301  SAM301     -0.2175
     15  C2'       -3.1950   33.4910   12.3540 C.3   301  SAM301      0.2569
     16  O2'       -3.9630   32.9560   11.2880 O.3   301  SAM301     -0.2130
     17  C1'       -1.6790   33.2900   12.2690 C.3   301  SAM301      0.3185
     18  N9        -1.2790   31.9130   12.4710 N.pl3 301  SAM301     -0.1439
     19  C8        -1.5260   31.0790   13.5270 C.3   301  SAM301      0.3377
     20  N7        -1.1640   29.8410   13.3130 N.2   301  SAM301     -0.2095
     21  C5        -0.5780   29.8770   12.0490 C.2   301  SAM301      0.2526
     22  C6        -0.0030   28.8740   11.2370 C.2   301  SAM301      0.4393
     23  N6         0.0630   27.5780   11.6130 N.pl3 301  SAM301      0.2180
     24  N1         0.4830   29.2240   10.0240 N.2   301  SAM301      0.0021
     25  C2         0.3740   30.5070    9.6570 C.3   301  SAM301      0.5254
     26  N3        -0.1550   31.5350   10.3270 N.2   301  SAM301     -0.0055
     27  C4        -0.6200   31.1490   11.5330 C.2   301  SAM301      0.3518
@<TRIPOS>BOND
     1    25    24    1
     2    25    26    1
     3    24    22    2
     4    26    27    2
     5     5     3   ar
     6    22    23    1
     7    22    21    1
     8    16    15    1
     9    27    21    1
    10    27    18    1
    11    14    13    1
    12     3     4   ar
    13     3     2    1
    14    21    20    2
    15     2     1    1
    16     2     6    1
    17    17    15    1
    18    17    18    1
    19    17    12    1
    20    15    13    1
    21    18    19    1
    22    13    11    1
    23     6     7    1
    24    11    12    1
    25    11    10    1
    26     7     8    1
    27    20    19    1
    28     8    10    1
    29     8     9    1
