@<TRIPOS>MOLECULE
1ej1_M7G_A_1.pdb
 29 31 0 0 0
SMALL
GASTEIGER

@<TRIPOS>ATOM
      1  PA         4.4180   11.7730   14.3260 P.3   1000  M7G1000     0.2231
      2  O1A        4.9500   11.8470   12.9340 O.2   1000  M7G1000    -0.5169
      3  O2A        4.8180   10.4580   14.8810 O.3   1000  M7G1000    -0.4370
      4  O3A        5.0800   12.9460   15.2430 O.3   1000  M7G1000    -0.2261
      5  O5'        2.7790   11.8690   14.3440 O.3   1000  M7G1000    -0.3111
      6  PB         4.6510   14.5090   15.2330 P.3   1000  M7G1000     0.5373
      7  O1B        4.7320   15.0830   13.8640 O.2   1000  M7G1000    -0.2221
      8  O2B        5.6110   15.2300   16.1080 O.3   1000  M7G1000    -0.1143
      9  O3B        3.2650   14.6720   15.7470 O.3   1000  M7G1000    -0.1143
     10  C5'        2.0390   12.5410   13.3520 C.3   1000  M7G1000     0.1813
     11  C4'        0.8140   11.8280   12.8920 C.3   1000  M7G1000     0.1799
     12  O4'        1.2160   10.8000   11.9250 O.3   1000  M7G1000    -0.3326
     13  C3'        0.1430   10.9480   13.9000 C.3   1000  M7G1000     0.2158
     14  O3'       -0.6260   11.7210   14.8540 O.3   1000  M7G1000    -0.2175
     15  C2'       -0.8120   10.1620   12.9680 C.3   1000  M7G1000     0.2310
     16  O2'       -1.8400   11.0160   12.3870 O.3   1000  M7G1000    -0.2158
     17  C1'        0.2310    9.7360   11.9390 C.3   1000  M7G1000     0.2287
     18  N9         1.1030    8.5810   12.3460 N.pl3 1000  M7G1000    -0.2454
     19  C8         2.2550    8.4680   13.0180 C.3   1000  M7G1000     0.1735
     20  N7         2.5460    7.2000   13.1070 N.3   1000  M7G1000    -0.2343
     21  CM7        3.7150    6.6250   13.7620 C.3   1000  M7G1000     0.0924
     22  C5         1.5390    6.3460   12.4510 C.3   1000  M7G1000     0.2475
     23  C6         1.3590    5.1070   12.2620 C.1   1000  M7G1000     0.2145
     24  O6         2.1530    4.1830   12.6910 O.2   1000  M7G1000    -0.2115
     25  N1         0.1860    4.8860   11.5500 N.2   1000  M7G1000    -0.2526
     26  C2        -0.6810    5.8530   11.0900 C.1   1000  M7G1000     0.2525
     27  N2        -1.7530    5.4910   10.4210 N.pl3 1000  M7G1000    -0.0226
     28  N3        -0.4760    7.1330   11.2940 N.2   1000  M7G1000    -0.3118
     29  C4         0.6630    7.3690   12.0000 C.2   1000  M7G1000     0.2086
@<TRIPOS>BOND
     1    27    26    1
     2    26    28    2
     3    26    25    2
     4    28    29    2
     5    25    23    2
     6    12    17    1
     7    12    11    1
     8    17    18    1
     9    17    15    1
    10    29    18    1
    11    29    22    1
    12    23    22    1
    13    23    24    2
    14    18    19    1
    15    16    15    1
    16    22    20    1
    17    11    10    1
    18    11    13    1
    19     2     1    2
    20    15    13    1
    21    19    20    1
    22    20    21    1
    23    10     5    1
    24     7     6    2
    25    13    14    1
    26     1     5    1
    27     1     3    1
    28     1     4    1
    29     6     4    1
    30     6     9    1
    31     6     8    1
