@<TRIPOS>MOLECULE
1ej2_NAD_A_1.pdb
 44 48 0 0 0
SMALL
GASTEIGER

@<TRIPOS>ATOM
      1  PA        26.8620   19.3280   44.2080 P.3   1339  NAD1339     0.2189
      2  O1A       26.7420   18.0120   43.5460 O.2   1339  NAD1339    -0.5170
      3  O2A       27.4830   19.3800   45.5540 O.3   1339  NAD1339    -0.4371
      4  O5B       25.4550   20.0460   44.3340 O.3   1339  NAD1339    -0.3112
      5  C5B       24.5780   20.0190   43.2030 C.3   1339  NAD1339     0.1813
      6  C4B       23.2870   20.7790   43.4780 C.3   1339  NAD1339     0.1821
      7  O4B       22.3470   19.7530   43.8890 O.3   1339  NAD1339    -0.3135
      8  C3B       23.2830   21.7860   44.6370 C.3   1339  NAD1339     0.2184
      9  O3B       23.8240   23.0540   44.2270 O.3   1339  NAD1339    -0.2174
     10  C2B       21.7810   21.7590   44.9860 C.3   1339  NAD1339     0.2570
     11  O2B       21.0050   22.4600   43.9850 O.3   1339  NAD1339    -0.2130
     12  C1B       21.4920   20.2610   44.9030 C.3   1339  NAD1339     0.3186
     13  N9A       21.6920   19.4860   46.1350 N.pl3 1339  NAD1339    -0.1439
     14  C8A       22.8330   18.9010   46.6130 C.3   1339  NAD1339     0.3377
     15  N7A       22.6650   18.2730   47.7840 N.2   1339  NAD1339    -0.2095
     16  C5A       21.3290   18.4690   48.0710 C.2   1339  NAD1339     0.2526
     17  C6A       20.5420   18.0550   49.1690 C.2   1339  NAD1339     0.4393
     18  N6A       20.9630   17.3400   50.2170 N.pl3 1339  NAD1339     0.2180
     19  N1A       19.2090   18.4240   49.1680 N.2   1339  NAD1339     0.0021
     20  C2A       18.7580   19.1630   48.0910 C.3   1339  NAD1339     0.5254
     21  N3A       19.3950   19.5980   47.0220 N.2   1339  NAD1339    -0.0055
     22  C4A       20.7100   19.2120   47.0700 C.2   1339  NAD1339     0.3518
     23  O3        27.6560   20.2550   43.1690 O.3   1339  NAD1339    -0.2703
     24  PN        28.0510   21.8800   43.0840 P.3   1339  NAD1339     0.2189
     25  O1N       26.9630   22.7010   43.6420 O.2   1339  NAD1339    -0.5170
     26  O2N       29.3500   22.1590   43.7590 O.3   1339  NAD1339    -0.4371
     27  O5D       28.0540   22.1050   41.4760 O.3   1339  NAD1339    -0.3112
     28  C5D       29.2100   22.7510   41.1300 C.3   1339  NAD1339     0.1813
     29  C4D       29.5490   22.6870   39.6980 C.3   1339  NAD1339     0.1799
     30  O4D       29.4300   24.0180   39.0050 O.3   1339  NAD1339    -0.3327
     31  C3D       30.9820   22.3210   39.7460 C.3   1339  NAD1339     0.2158
     32  O3D       31.3550   21.3380   38.8100 O.3   1339  NAD1339    -0.2175
     33  C2D       31.5950   23.6930   39.5470 C.3   1339  NAD1339     0.2309
     34  O2D       32.9410   23.5750   39.2020 O.3   1339  NAD1339    -0.2158
     35  C1D       30.6780   24.2430   38.4490 C.3   1339  NAD1339     0.2263
     36  N1N       30.9240   25.6440   38.1950 N.pl3 1339  NAD1339    -0.2787
     37  C2N       31.9050   25.9860   37.2710 C.3   1339  NAD1339     0.1244
     38  C3N       32.3580   27.3660   37.0810 C.2   1339  NAD1339     0.0544
     39  C7N       33.5070   27.5470   36.1360 C.2   1339  NAD1339     0.2818
     40  O7N       34.0450   26.5400   35.4720 O.2   1339  NAD1339    -0.2670
     41  N7N       33.9770   28.7250   35.9810 N.am  1339  NAD1339    -0.0839
     42  C4N       31.5680   28.4800   37.7160 C.2   1339  NAD1339     0.0033
     43  C5N       30.4840   27.9670   38.6360 C.2   1339  NAD1339     0.0157
     44  C6N       30.2160   26.6780   38.8570 C.2   1339  NAD1339     0.0633
@<TRIPOS>BOND
     1    40    39    2
     2    41    39   am
     3    39    38    1
     4    38    37    1
     5    38    42    2
     6    37    36    1
     7    42    43    1
     8    36    35    1
     9    36    44    1
    10    35    30    1
    11    35    33    1
    12    43    44    2
    13    32    31    1
    14    30    29    1
    15    34    33    1
    16    33    31    1
    17    29    31    1
    18    29    28    1
    19    28    27    1
    20    27    24    1
    21    24    23    1
    22    24    25    2
    23    24    26    1
    24    23     1    1
    25     5     6    1
    26     5     4    1
    27     6     7    1
    28     6     8    1
    29     2     1    2
    30     7    12    1
    31    11    10    1
    32     1     4    1
    33     1     3    1
    34     9     8    1
    35     8    10    1
    36    12    10    1
    37    12    13    1
    38    13    14    1
    39    13    22    1
    40    14    15    1
    41    21    22    2
    42    21    20    1
    43    22    16    1
    44    15    16    2
    45    16    17    1
    46    20    19    1
    47    19    17    2
    48    17    18    1
