@<TRIPOS>MOLECULE
1ej3_CZH_A_1.pdb
 34 38 0 0 0
SMALL
GASTEIGER

@<TRIPOS>ATOM
      1  N1        57.9030   23.0350    7.0940 N.2   201  CZH201     -0.0275
      2  C2        58.4230   24.3370    7.4140 C.3   201  CZH201      0.3915
      3  C3        59.2320   24.0720    8.7270 C.2   201  CZH201      0.3887
      4  N4        59.1210   22.7920    9.0150 N.am  201  CZH201     -0.1262
      5  C5        59.7190   22.0740   10.1710 C.3   201  CZH201      0.2691
      6  C6        59.4680   20.7310   10.2770 C.2   201  CZH201      0.1563
      7  N7        58.6150   20.0670    9.2350 N.2   201  CZH201     -0.3986
      8  C8        58.0820   20.7370    8.1880 C.2   201  CZH201      0.1948
      9  C9        58.3470   22.2200    8.0550 C.2   201  CZH201      0.3543
     10  C10       59.3610   24.8560    6.2670 C.3   201  CZH201      0.1200
     11  C11       59.9140   26.2460    6.5110 C.ar  201  CZH201     -0.0145
     12  C12       59.0630   27.4180    6.4820 C.ar  201  CZH201     -0.0007
     13  C13       59.6050   28.7140    6.7240 C.ar  201  CZH201      0.0417
     14  C14       61.0020   28.8580    6.9960 C.ar  201  CZH201      0.1957
     15  C15       61.8590   27.7060    7.0260 C.ar  201  CZH201      0.0417
     16  C16       61.3100   26.4040    6.7830 C.ar  201  CZH201     -0.0007
     17  O17       61.4880   30.1010    7.2220 O.3   201  CZH201     -0.2866
     18  O18       59.8430   24.9300    9.3530 O.2   201  CZH201     -0.2391
     19  C19       59.9690   19.8960   11.3710 C.ar  201  CZH201      0.0297
     20  C20       60.1540   18.5040   11.1450 C.ar  201  CZH201      0.0056
     21  C21       60.6160   17.6770   12.2060 C.ar  201  CZH201      0.0421
     22  C22       60.8920   18.2350   13.4900 C.ar  201  CZH201      0.1957
     23  C23       60.7140   19.6210   13.7190 C.ar  201  CZH201      0.0421
     24  C24       60.2580   20.4420   12.6760 C.ar  201  CZH201      0.0056
     25  O25       61.3210   17.4200   14.4860 O.3   201  CZH201     -0.2866
     26  C26       57.2340   19.9430    7.2030 C.3   201  CZH201      0.0931
     27  C27       58.0490   19.1420    6.2210 C.ar  201  CZH201     -0.0149
     28  C28       58.0420   19.4990    4.8330 C.ar  201  CZH201     -0.0038
     29  C29       58.8060   18.7350    3.8790 C.ar  201  CZH201     -0.0003
     30  C30       59.5780   17.6170    4.3060 C.ar  201  CZH201     -0.0000
     31  C31       59.5900   17.2570    5.6950 C.ar  201  CZH201     -0.0003
     32  C32       58.8310   18.0100    6.6490 C.ar  201  CZH201     -0.0038
     33  O33       57.2480   25.2000    7.5260 O.3   201  CZH201     -0.1337
     34  O34       57.0150   25.7350    8.8270 O.3   201  CZH201     -0.0302
@<TRIPOS>BOND
     1    29    30   ar
     2    29    28   ar
     3    30    31   ar
     4    28    27   ar
     5    31    32   ar
     6    27    32   ar
     7    27    26    1
     8    10    11    1
     9    10     2    1
    10    12    11   ar
    11    12    13   ar
    12    11    16   ar
    13    13    14   ar
    14    16    15   ar
    15    14    15   ar
    16    14    17    1
    17     1     2    1
    18     1     9    2
    19    26     8    1
    20     2    33    1
    21     2     3    1
    22    33    34    1
    23     9     8    1
    24     9     4    1
    25     8     7    2
    26     3     4   am
    27     3    18    2
    28     4     5    1
    29     7     6    2
    30     5     6    1
    31     6    19    1
    32    20    19   ar
    33    20    21   ar
    34    19    24   ar
    35    21    22   ar
    36    24    23   ar
    37    22    23   ar
    38    22    25    1
