@<TRIPOS>MOLECULE
1ej4_M7G_A_1.pdb
 29 31 0 0 0
SMALL
GASTEIGER

@<TRIPOS>ATOM
      1  PA         4.4390   -7.5840   21.8960 P.3   1000  M7G1000     0.2231
      2  O1A        4.7420   -8.5490   20.8100 O.2   1000  M7G1000    -0.5169
      3  O2A        5.4820   -6.5270   21.8810 O.3   1000  M7G1000    -0.4370
      4  O3A        2.9920   -6.8960   21.6540 O.3   1000  M7G1000    -0.2261
      5  O5'        4.4310   -8.3380   23.3290 O.3   1000  M7G1000    -0.3111
      6  PB         1.6190   -7.6460   22.0010 P.3   1000  M7G1000     0.5373
      7  O1B        1.5860   -8.9580   21.2970 O.2   1000  M7G1000    -0.2221
      8  O2B        0.5000   -6.7970   21.5440 O.3   1000  M7G1000    -0.1143
      9  O3B        1.5260   -7.8370   23.4790 O.3   1000  M7G1000    -0.1143
     10  C5'        4.2700   -9.7420   23.4440 C.3   1000  M7G1000     0.1813
     11  C4'        5.1090  -10.3780   24.4900 C.3   1000  M7G1000     0.1799
     12  O4'        6.3490  -10.6740   23.8410 O.3   1000  M7G1000    -0.3326
     13  C3'        5.6070   -9.4870   25.5900 C.3   1000  M7G1000     0.2158
     14  O3'        4.6640   -9.3920   26.6690 O.3   1000  M7G1000    -0.2175
     15  C2'        6.8350  -10.2790   26.1040 C.3   1000  M7G1000     0.2310
     16  O2'        6.4230  -11.4940   26.8480 O.3   1000  M7G1000    -0.2158
     17  C1'        7.4590  -10.6160   24.7600 C.3   1000  M7G1000     0.2287
     18  N9         8.2840   -9.6010   24.0620 N.pl3 1000  M7G1000    -0.2454
     19  C8         8.0200   -8.6530   23.1170 C.3   1000  M7G1000     0.1735
     20  N7         9.1210   -8.0050   22.8440 N.3   1000  M7G1000    -0.2343
     21  CM7        9.2290   -6.9120   21.8770 C.3   1000  M7G1000     0.0924
     22  C5        10.3020   -8.5230   23.6660 C.3   1000  M7G1000     0.2475
     23  C6        11.5680   -8.2720   23.8130 C.1   1000  M7G1000     0.2145
     24  O6        12.1920   -7.3670   23.1870 O.2   1000  M7G1000    -0.2115
     25  N1        12.1900   -9.1250   24.7640 N.2   1000  M7G1000    -0.2526
     26  C2        11.5710  -10.1230   25.4820 C.1   1000  M7G1000     0.2525
     27  N2        12.2900  -10.8230   26.3230 N.pl3 1000  M7G1000    -0.0226
     28  N3        10.2480  -10.3900   25.3420 N.2   1000  M7G1000    -0.3118
     29  C4         9.6100   -9.5600   24.4050 C.2   1000  M7G1000     0.2086
@<TRIPOS>BOND
     1     2     1    2
     2     7     6    2
     3     8     6    1
     4     4     1    1
     5     4     6    1
     6    21    20    1
     7     3     1    1
     8     1     5    1
     9     6     9    1
    10    20    19    1
    11    20    22    1
    12    19    18    1
    13    24    23    2
    14     5    10    1
    15    10    11    1
    16    22    23    1
    17    22    29    1
    18    23    25    2
    19    12    11    1
    20    12    17    1
    21    18    29    1
    22    18    17    1
    23    29    28    2
    24    11    13    1
    25    17    15    1
    26    25    26    2
    27    28    26    2
    28    26    27    1
    29    13    15    1
    30    13    14    1
    31    15    16    1
