@<TRIPOS>MOLECULE
1ejb_INJ_A_1.pdb
 27 27 0 0 0
SMALL
GASTEIGER

@<TRIPOS>ATOM
      1  N1        80.7160   51.1370   69.8420 N.2   200  INJ200     -0.2946
      2  C2        80.1390   52.4190   69.8770 C.1   200  INJ200      0.3662
      3  O2        79.3160   52.6950   70.7910 O.2   200  INJ200     -0.1745
      4  N3        80.5960   53.3650   69.0330 N.2   200  INJ200     -0.2365
      5  C4        81.5320   53.1900   68.0640 C.1   200  INJ200      0.2006
      6  O4        81.6440   54.1540   67.2620 O.2   200  INJ200     -0.2129
      7  C5        82.1320   51.8220   67.9210 C.3   200  INJ200      0.1879
      8  C6        81.6890   50.7900   68.8560 C.2   200  INJ200      0.2077
      9  N7        82.3310   49.5510   68.9380 N.pl3 200  INJ200     -0.2089
     10  C8        82.2020   48.9000   70.3120 C.3   200  INJ200      0.1501
     11  C9        80.9890   47.8370   70.2350 C.3   200  INJ200      0.2063
     12  O9        79.8150   48.5970   70.4420 O.3   200  INJ200     -0.2184
     13  C10       80.9890   46.6960   71.2980 C.3   200  INJ200      0.2166
     14  O10       81.2400   47.3660   72.5150 O.3   200  INJ200     -0.2175
     15  C11       82.2520   45.6480   71.2400 C.3   200  INJ200      0.2175
     16  O11       82.1080   45.2230   69.8500 O.3   200  INJ200     -0.2175
     17  C12       82.1570   44.3180   72.0570 C.3   200  INJ200      0.2175
     18  O12       80.7670   43.9510   72.0180 O.3   200  INJ200     -0.2175
     19  C13       82.9730   51.7890   66.7830 C.3   200  INJ200      0.0264
     20  C14       82.4800   51.2860   65.4650 C.3   200  INJ200      0.0017
     21  C15       83.4760   51.9210   64.5200 C.3   200  INJ200      0.0005
     22  C16       84.7600   51.1330   64.4490 C.3   200  INJ200      0.0077
     23  C17       85.7590   51.8050   63.5040 C.3   200  INJ200      0.0589
     24  P         86.7680   50.7530   62.4400 P.3   200  INJ200      0.1172
     25  O1P       87.5440   49.7300   63.1160 O.3   200  INJ200     -0.3571
     26  O2P       85.8600   50.2280   61.3340 O.2   200  INJ200     -0.4601
     27  O3P       87.9260   51.6860   61.9040 O.3   200  INJ200     -0.3571
@<TRIPOS>BOND
     1    26    24    2
     2    27    24    1
     3    24    25    1
     4    24    23    1
     5    23    22    1
     6    22    21    1
     7    21    20    1
     8    20    19    1
     9    19     7    1
    10     6     5    2
    11     7     5    1
    12     7     8    1
    13     5     4    2
    14     8     9    1
    15     8     1    2
    16     9    10    1
    17     4     2    2
    18     1     2    2
    19    16    15    1
    20     2     3    2
    21    11    10    1
    22    11    12    1
    23    11    13    1
    24    15    13    1
    25    15    17    1
    26    13    14    1
    27    18    17    1
