@<TRIPOS>MOLECULE
1eje_FMN_A_1.pdb
 31 33 0 0 0
SMALL
GASTEIGER

@<TRIPOS>ATOM
      1  N1        31.9670   30.8760   35.7880 N.2   401  FMN401     -0.2890
      2  C2        31.3400   30.0480   34.8790 C.1   401  FMN401      0.3669
      3  O2        30.6250   29.1380   35.1870 O.2   401  FMN401     -0.1744
      4  N3        31.5400   30.2760   33.4720 N.2   401  FMN401     -0.2300
      5  C4        32.3130   31.2550   32.9380 C.1   401  FMN401      0.2513
      6  O4        32.4230   31.3740   31.7060 O.2   401  FMN401     -0.2057
      7  C4A       32.9860   32.1360   33.9010 C.2   401  FMN401      0.2700
      8  N5        33.7640   33.1200   33.4690 N.2   401  FMN401     -0.3878
      9  C5A       34.3830   33.9340   34.3830 C.2   401  FMN401      0.1320
     10  C6        35.2430   35.0180   33.9170 C.2   401  FMN401      0.0250
     11  C7        35.8990   35.8750   34.7480 C.2   401  FMN401     -0.0238
     12  C7M       36.7930   37.0010   34.2270 C.3   401  FMN401      0.0308
     13  C8        35.7520   35.7210   36.2110 C.2   401  FMN401     -0.0280
     14  C8M       36.4600   36.6470   37.1780 C.3   401  FMN401      0.0304
     15  C9        34.9320   34.6890   36.6780 C.2   401  FMN401     -0.0041
     16  C9A       34.2410   33.7880   35.8250 C.3   401  FMN401      0.1497
     17  N10       33.3910   32.7190   36.2630 N.pl3 401  FMN401     -0.2691
     18  C10       32.7500   31.8690   35.3630 C.2   401  FMN401      0.2416
     19  C1'       33.2110   32.5290   37.7330 C.3   401  FMN401      0.1294
     20  C2'       31.9070   33.1510   38.2480 C.3   401  FMN401      0.2044
     21  O2'       31.7800   34.5300   37.9220 O.3   401  FMN401     -0.2185
     22  C3'       31.8190   32.9970   39.7920 C.3   401  FMN401      0.2164
     23  O3'       31.7570   31.5770   40.1210 O.3   401  FMN401     -0.2175
     24  C4'       30.6310   33.7010   40.4390 C.3   401  FMN401      0.2147
     25  O4'       30.6910   33.5150   41.8770 O.3   401  FMN401     -0.2176
     26  C5'       29.2700   33.1840   40.0120 C.3   401  FMN401      0.1892
     27  O5'       28.2640   33.9510   40.6950 O.3   401  FMN401     -0.2674
     28  P         26.7810   33.4520   40.9240 P.3   401  FMN401      0.5327
     29  O1P       26.8260   32.2380   41.8220 O.3   401  FMN401     -0.1145
     30  O2P       26.1650   33.1870   39.5710 O.2   401  FMN401     -0.2224
     31  O3P       26.1230   34.6570   41.6900 O.3   401  FMN401     -0.1145
@<TRIPOS>BOND
     1     6     5    2
     2     5     4    2
     3     5     7    1
     4     8     7    2
     5     8     9    2
     6     4     2    2
     7     7    18    1
     8    10     9    1
     9    10    11    2
    10    12    11    1
    11     9    16    1
    12    11    13    1
    13     2     3    2
    14     2     1    2
    15    18     1    2
    16    18    17    1
    17    16    17    1
    18    16    15    1
    19    13    15    2
    20    13    14    1
    21    17    19    1
    22    19    20    1
    23    21    20    1
    24    20    22    1
    25    30    28    2
    26    22    23    1
    27    22    24    1
    28    26    24    1
    29    26    27    1
    30    24    25    1
    31    27    28    1
    32    28    31    1
    33    28    29    1
