@<TRIPOS>MOLECULE
1ejh_M7G_A_1.pdb
 29 31 0 0 0
SMALL
GASTEIGER

@<TRIPOS>ATOM
      1  PA        34.8770   28.4940   17.9810 P.3   1001  M7G1001     0.2231
      2  O1A       33.7690   28.3340   18.9630 O.3   1001  M7G1001    -0.4370
      3  O2A       36.1710   28.4950   18.7140 O.2   1001  M7G1001    -0.5169
      4  O3A       34.8610   27.2730   16.9380 O.3   1001  M7G1001    -0.2261
      5  O5'       34.7070   29.8950   17.1560 O.3   1001  M7G1001    -0.3111
      6  PB        33.7350   27.1790   15.8140 P.3   1001  M7G1001     0.5373
      7  O1B       32.4220   27.5410   16.3970 O.3   1001  M7G1001    -0.1143
      8  O2B       33.7050   25.7870   15.3110 O.3   1001  M7G1001    -0.1143
      9  O3B       34.0690   28.1100   14.7200 O.2   1001  M7G1001    -0.2221
     10  C5'       33.4610   30.5650   17.0720 C.3   1001  M7G1001     0.1813
     11  C4'       33.4930   32.0520   17.1660 C.3   1001  M7G1001     0.1799
     12  O4'       33.4870   32.3430   18.5650 O.3   1001  M7G1001    -0.3326
     13  C3'       34.7510   32.7450   16.7220 C.3   1001  M7G1001     0.2158
     14  O3'       34.7080   33.0770   15.3090 O.3   1001  M7G1001    -0.2175
     15  C2'       34.6980   34.0890   17.5130 C.3   1001  M7G1001     0.2310
     16  O2'       33.7620   35.0620   16.8760 O.3   1001  M7G1001    -0.2158
     17  C1'       34.2080   33.5630   18.8590 C.3   1001  M7G1001     0.2287
     18  N9        35.2100   33.0390   19.8330 N.pl3 1001  M7G1001    -0.2454
     19  C8        35.7690   31.8230   20.0410 C.3   1001  M7G1001     0.1735
     20  N7        36.6140   31.9070   21.0320 N.3   1001  M7G1001    -0.2343
     21  CM7       37.4210   30.8020   21.5600 C.3   1001  M7G1001     0.0924
     22  C5        36.6720   33.3040   21.5980 C.3   1001  M7G1001     0.2475
     23  C6        37.3080   33.9190   22.5330 C.1   1001  M7G1001     0.2145
     24  O6        38.1510   33.3450   23.2840 O.2   1001  M7G1001    -0.2115
     25  N1        36.9550   35.2970   22.6200 N.2   1001  M7G1001    -0.2526
     26  C2        36.0390   35.9490   21.8130 C.1   1001  M7G1001     0.2525
     27  N2        35.8200   37.2250   22.0160 N.pl3 1001  M7G1001    -0.0226
     28  N3        35.3710   35.3030   20.8220 N.2   1001  M7G1001    -0.3118
     29  C4        35.7120   33.9390   20.7260 C.2   1001  M7G1001     0.2086
@<TRIPOS>BOND
     1     9     6    2
     2    14    13    1
     3     8     6    1
     4     6     7    1
     5     6     4    1
     6    13    11    1
     7    13    15    1
     8    16    15    1
     9     4     1    1
    10    10     5    1
    11    10    11    1
    12     5     1    1
    13    11    12    1
    14    15    17    1
    15     1     3    2
    16     1     2    1
    17    12    17    1
    18    17    18    1
    19    18    19    1
    20    18    29    1
    21    19    20    1
    22    29    28    2
    23    29    22    1
    24    28    26    2
    25    20    21    1
    26    20    22    1
    27    22    23    1
    28    26    27    1
    29    26    25    2
    30    23    25    2
    31    23    24    2
