@<TRIPOS>MOLECULE
1eji_PLG_A_1.pdb
 20 20 0 0 0
SMALL
GASTEIGER

@<TRIPOS>ATOM
      1  N1       108.6710   83.2750   88.6030 N.2   500  PLG500     -0.2716
      2  C2       108.3730   83.0060   89.9460 C.2   500  PLG500      0.0665
      3  C2A      109.0460   83.7760   91.0220 C.3   500  PLG500      0.0498
      4  C3       107.3800   81.9460   90.2390 C.3   500  PLG500      0.2105
      5  O3       106.9980   81.5810   91.4800 O.3   500  PLG500     -0.2121
      6  C4       106.7380   81.2000   89.0230 C.2   500  PLG500      0.0281
      7  C4A      105.8310   80.2170   89.1780 C.2   500  PLG500      0.0918
      8  C5       107.1470   81.5900   87.6400 C.2   500  PLG500      0.0101
      9  C6       108.1330   82.6480   87.4860 C.3   500  PLG500      0.1492
     10  C5A      106.6270   80.9720   86.3060 C.3   500  PLG500      0.1777
     11  OP4      105.4630   80.1180   86.2600 O.3   500  PLG500     -0.2656
     12  P        104.5970   79.8670   85.1560 P.3   500  PLG500      0.5329
     13  OP1      105.4710   79.1940   84.1330 O.2   500  PLG500     -0.2224
     14  OP2      103.6480   78.9470   85.6860 O.3   500  PLG500     -0.1145
     15  OP3      103.8850   80.7690   84.3660 O.3   500  PLG500     -0.1145
     16  C        104.0260   78.5060   92.1710 C.2   500  PLG500      0.3892
     17  O        103.0150   77.8640   92.5280 O.co2 500  PLG500     -0.2434
     18  OXT      104.8990   78.6640   93.0120 O.co2 500  PLG500     -0.2434
     19  CA       104.1850   79.0910   90.6680 C.3   500  PLG500      0.2389
     20  N        105.1380   80.0860   90.4190 N.2   500  PLG500     -0.2571
@<TRIPOS>BOND
     1    13    12    2
     2    15    12    1
     3    12    14    1
     4    12    11    1
     5    11    10    1
     6    10     8    1
     7     9     8    1
     8     9     1    1
     9     8     6    2
    10     1     2    2
    11     6     7    1
    12     6     4    1
    13     7    20    2
    14     2     4    1
    15     2     3    1
    16     4     5    1
    17    20    19    1
    18    19    16    1
    19    16    17   ar
    20    16    18   ar
