@<TRIPOS>MOLECULE
1eji_THF_A_1.pdb
 34 36 0 0 0
SMALL
GASTEIGER

@<TRIPOS>ATOM
      1  N1       107.7370   76.3940   95.6370 N.2   600  THF600     -0.1759
      2  C2       108.9460   76.8880   95.3580 C.1   600  THF600      0.1939
      3  NA2      109.6680   77.5160   96.4830 N.pl3 600  THF600     -0.0341
      4  N3       109.6130   76.9380   94.3520 N.2   600  THF600     -0.2633
      5  C4       109.1120   76.1930   93.2750 C.1   600  THF600      0.2086
      6  O4       109.7140   76.2030   92.0030 O.2   600  THF600     -0.2119
      7  C4A      107.9420   75.3580   93.4610 C.3   600  THF600      0.2202
      8  N5       106.8780   75.3630   92.5680 N.3   600  THF600     -0.2271
      9  C6       105.8460   74.2360   92.6810 C.3   600  THF600      0.0999
     10  C7       105.4000   74.1400   94.1230 C.3   600  THF600      0.1086
     11  N8       106.0200   75.1020   94.8600 N.3   600  THF600     -0.1921
     12  C8A      107.3950   75.3630   94.8310 C.3   600  THF600      0.2202
     13  C9       106.3600   72.9010   92.1000 C.3   600  THF600      0.1296
     14  N10      107.5250   72.4530   92.8820 N.pl3 600  THF600     -0.2361
     15  C11      110.7010   69.7150   91.8790 C.ar  600  THF600      0.0551
     16  C12      110.5780   70.3630   93.1570 C.ar  600  THF600      0.0059
     17  C13      109.5510   71.2830   93.4710 C.ar  600  THF600      0.0162
     18  C14      108.5930   71.5520   92.4640 C.ar  600  THF600      0.0654
     19  C15      108.6630   70.9440   91.1630 C.ar  600  THF600      0.0162
     20  C16      109.7210   70.0170   90.8590 C.ar  600  THF600      0.0059
     21  C        111.8360   68.7780   91.7230 C.2   600  THF600      0.2652
     22  O        112.8090   68.8950   92.4800 O.2   600  THF600     -0.2684
     23  N        111.8800   67.7900   90.7690 N.am  600  THF600     -0.1918
     24  CA       111.3630   66.4050   90.9750 C.3   600  THF600      0.1986
     25  CB       111.8690   65.5770   89.8690 C.3   600  THF600      0.0451
     26  CG       110.9740   65.6920   88.6260 C.3   600  THF600      0.1164
     27  CD       111.5000   65.0790   87.2790 C.2   600  THF600      0.3649
     28  OE1      112.7370   64.9100   87.1360 O.co2 600  THF600     -0.2457
     29  OE2      110.6940   64.7690   86.3620 O.co2 600  THF600     -0.2457
     30  CT       111.6410   65.6780   92.3740 C.2   600  THF600      0.3842
     31  O1       110.6750   65.1800   93.0060 O.co2 600  THF600     -0.2437
     32  O2       112.8000   65.5990   92.8300 O.co2 600  THF600     -0.2437
     33  CP1      106.6830   76.3660   91.4640 C.3   600  THF600      0.2599
     34  O3       107.3430   76.1140   90.1960 O.3   600  THF600     -0.2005
@<TRIPOS>BOND
     1    29    27   ar
     2    28    27   ar
     3    27    26    1
     4    26    25    1
     5    25    24    1
     6    34    33    1
     7    23    24    1
     8    23    21   am
     9    20    19   ar
    10    20    15   ar
    11    24    30    1
    12    19    18   ar
    13    33     8    1
    14    21    15    1
    15    21    22    2
    16    15    16   ar
    17     6     5    2
    18    13     9    1
    19    13    14    1
    20    30    32   ar
    21    30    31   ar
    22    18    14    1
    23    18    17   ar
    24     8     9    1
    25     8     7    1
    26     9    10    1
    27    16    17   ar
    28     5     7    1
    29     5     4    2
    30     7    12    1
    31    10    11    1
    32     4     2    2
    33    12    11    1
    34    12     1    1
    35     2     1    2
    36     2     3    1
