@<TRIPOS>MOLECULE
1ejj_3PG_A_1.pdb
 11 10 0 0 0
SMALL
GASTEIGER

@<TRIPOS>ATOM
      1  C1        14.5950   77.7460    9.6320 C.2   601  3PG601      0.3972
      2  O1        15.0730   77.0490   10.5050 O.co2 601  3PG601     -0.2427
      3  O2        13.4840   77.4200    9.2310 O.co2 601  3PG601     -0.2427
      4  C2        15.3630   78.9350    9.0790 C.3   601  3PG601      0.2838
      5  O3        14.6230   80.1970    9.0530 O.3   601  3PG601     -0.2081
      6  C3        15.8580   78.4420    7.7720 C.3   601  3PG601      0.1983
      7  O1P       16.7300   77.2940    7.9110 O.3   601  3PG601     -0.2669
      8  P         16.5270   75.8940    6.9530 P.3   601  3PG601      0.5327
      9  O2P       17.8970   75.2160    6.7240 O.3   601  3PG601     -0.1145
     10  O3P       15.4060   75.0460    7.5890 O.3   601  3PG601     -0.1145
     11  O4P       15.9950   76.5410    5.6830 O.2   601  3PG601     -0.2224
@<TRIPOS>BOND
     1    11     8    2
     2     9     8    1
     3     8    10    1
     4     8     7    1
     5     6     7    1
     6     6     4    1
     7     5     4    1
     8     4     1    1
     9     3     1   ar
    10     1     2   ar
