@<TRIPOS>MOLECULE
1ejn_AGB_A_1.pdb
 25 28 0 0 0
SMALL
GASTEIGER

@<TRIPOS>ATOM
      1  C1        22.6160   11.2980   27.0970 C.3   800  AGB800      0.0017
      2  C2        22.7960   12.7650   27.5790 C.3   800  AGB800      0.0001
      3  C3        23.9920   10.5490   27.1350 C.3   800  AGB800      0.0201
      4  C4        21.6000   10.5700   28.0280 C.3   800  AGB800      0.0001
      5  C5        22.3300   12.0400   29.9730 C.3   800  AGB800      0.0001
      6  C6        23.3450   12.7570   29.0310 C.3   800  AGB800      0.0017
      7  C7        22.1400   10.5700   29.4910 C.3   800  AGB800      0.0017
      8  C8        24.7070   12.0000   29.0690 C.3   800  AGB800      0.0201
      9  C9        23.5050    9.8130   29.5460 C.3   800  AGB800      0.0201
     10  C10       24.5380   10.5130   28.6040 C.3   800  AGB800      0.0802
     11  N1        27.2030    8.0200   29.0940 N.am  800  AGB800     -0.1824
     12  C12       26.0830    8.5320   28.5490 C.2   800  AGB800      0.3395
     13  N2        25.8560    9.8630   28.7070 N.am  800  AGB800     -0.1906
     14  O1        25.3160    7.7840   27.9360 O.2   800  AGB800     -0.2492
     15  C11       27.5820    6.6420   28.8350 C.3   800  AGB800      0.1432
     16  C13       29.7790    5.4990   29.3810 C.ar  800  AGB800      0.0005
     17  C14       29.0900    6.4880   28.6600 C.ar  800  AGB800     -0.0003
     18  C15       29.7990    7.3260   27.7680 C.ar  800  AGB800      0.0005
     19  C16       31.1620    7.0740   27.5100 C.ar  800  AGB800      0.0368
     20  C17       31.7920    5.9960   28.1480 C.ar  800  AGB800      0.1592
     21  C18       31.1050    5.2080   29.0770 C.ar  800  AGB800      0.0368
     22  N3        33.1960    5.8990   27.6390 N.pl3 800  AGB800     -0.0605
     23  N4        33.2340    3.4270   27.5260 N.pl3 800  AGB800      0.1358
     24  C19       33.5800    4.6700   27.5130 C.cat 800  AGB800      0.5393
     25  N5        34.8510    4.8760   27.2810 N.pl3 800  AGB800      0.1358
@<TRIPOS>BOND
     1     1     3    1
     2     1     2    1
     3     1     4    1
     4     3    10    1
     5    25    24    1
     6    19    18   ar
     7    19    20   ar
     8    24    23    1
     9    24    22    2
    10     2     6    1
    11    22    20    1
    12    18    17   ar
    13    14    12    2
    14     4     7    1
    15    20    21   ar
    16    12    13   am
    17    12    11   am
    18    10    13    1
    19    10     8    1
    20    10     9    1
    21    17    15    1
    22    17    16   ar
    23    15    11    1
    24     6     8    1
    25     6     5    1
    26    21    16   ar
    27     7     9    1
    28     7     5    1
