@<TRIPOS>MOLECULE
1ek0_GNP_A_1.pdb
 32 34 0 0 0
SMALL
GASTEIGER

@<TRIPOS>ATOM
      1  PG        31.9470    8.6930   -7.0620 P.3   501  GNP501      0.4884
      2  O1G       31.6470    7.4960   -6.2390 O.3   501  GNP501     -0.1240
      3  O2G       30.7940    9.5810   -7.3590 O.3   501  GNP501     -0.1240
      4  O3G       32.6900    8.2820   -8.4230 O.2   501  GNP501     -0.2331
      5  N3B       33.0040    9.6500   -6.3540 N.3   501  GNP501     -0.0163
      6  PB        32.6490   10.3360   -4.7290 P.3   501  GNP501      0.4669
      7  O1B       31.8100   11.5960   -4.8490 O.2   501  GNP501     -0.2351
      8  O2B       32.1150    9.2670   -3.8360 O.3   501  GNP501     -0.1253
      9  O3A       34.0820   10.8030   -4.0430 O.3   501  GNP501     -0.2360
     10  PA        35.0600   10.0700   -3.1660 P.3   501  GNP501      0.2220
     11  O1A       34.4420   10.1110   -1.8050 O.3   501  GNP501     -0.4370
     12  O2A       35.3770    8.7610   -3.7840 O.2   501  GNP501     -0.5170
     13  O5'       36.3430   11.0130   -3.1300 O.3   501  GNP501     -0.3111
     14  C5'       37.0090   11.2860   -4.3920 C.3   501  GNP501      0.1813
     15  C4'       38.4010   11.7780   -4.0320 C.3   501  GNP501      0.1799
     16  O4'       38.3530   13.0040   -3.2360 O.3   501  GNP501     -0.3326
     17  C3'       39.2150   10.8490   -3.1720 C.3   501  GNP501      0.2158
     18  O3'       40.6050   10.8970   -3.4970 O.3   501  GNP501     -0.2175
     19  C2'       38.9850   11.3420   -1.7510 C.3   501  GNP501      0.2310
     20  O2'       39.9970   10.9900   -0.8310 O.3   501  GNP501     -0.2158
     21  C1'       38.9500   12.8440   -2.0010 C.3   501  GNP501      0.2293
     22  N9        38.1250   13.6360   -1.0340 N.pl3 501  GNP501     -0.2354
     23  C8        36.8010   13.4110   -0.6990 C.3   501  GNP501      0.2246
     24  N7        36.3800   14.2790    0.1730 N.2   501  GNP501     -0.2322
     25  C5        37.4590   15.1190    0.4350 C.2   501  GNP501      0.2182
     26  C6        37.5870   16.2300    1.2900 C.1   501  GNP501      0.2372
     27  O6        36.7650   16.7710    2.0520 O.2   501  GNP501     -0.2069
     28  N1        38.8680   16.8220    1.2690 N.2   501  GNP501     -0.2485
     29  C2        39.8780   16.3300    0.4730 C.1   501  GNP501      0.2531
     30  N2        41.0710   16.9950    0.5470 N.pl3 501  GNP501     -0.0226
     31  N3        39.7560   15.2940   -0.3220 N.2   501  GNP501     -0.3074
     32  C4        38.5410   14.7150   -0.3180 C.2   501  GNP501      0.2300
@<TRIPOS>BOND
     1     4     1    2
     2     3     1    1
     3     1     5    1
     4     1     2    1
     5     5     6    1
     6     7     6    2
     7     6     9    1
     8     6     8    1
     9    14    15    1
    10    14    13    1
    11     9    10    1
    12    15    16    1
    13    15    17    1
    14    12    10    2
    15    18    17    1
    16    16    21    1
    17    17    19    1
    18    10    13    1
    19    10    11    1
    20    21    19    1
    21    21    22    1
    22    19    20    1
    23    22    23    1
    24    22    32    1
    25    23    24    1
    26    31    32    2
    27    31    29    2
    28    32    25    1
    29    24    25    2
    30    25    26    1
    31    29    30    1
    32    29    28    2
    33    28    26    2
    34    26    27    2
