@<TRIPOS>MOLECULE
1ek0_GDP_A_1.pdb
 28 30 0 0 0
SMALL
GASTEIGER

@<TRIPOS>ATOM
      1  PB        13.6350   17.0270   28.4020 P.3   502  GDP502      0.5373
      2  O1B       14.3170   18.2990   28.1310 O.2   502  GDP502     -0.2221
      3  O2B       14.4650   15.8680   28.8510 O.3   502  GDP502     -0.1143
      4  O3B       12.6570   17.0140   29.6090 O.3   502  GDP502     -0.1143
      5  O3A       13.0310   16.4380   26.9040 O.3   502  GDP502     -0.2261
      6  PA        12.1640   17.3820   25.8430 P.3   502  GDP502      0.2231
      7  O1A       11.3080   16.3100   25.2390 O.2   502  GDP502     -0.5169
      8  O2A       11.6540   18.7370   26.0820 O.3   502  GDP502     -0.4370
      9  O5'       13.4170   17.4700   24.8520 O.3   502  GDP502     -0.3111
     10  C5'       14.5430   18.3240   25.0370 C.3   502  GDP502      0.1813
     11  C4'       15.0430   18.7100   23.6480 C.3   502  GDP502      0.1799
     12  O4'       15.1830   17.5360   22.7930 O.3   502  GDP502     -0.3326
     13  C3'       13.9260   19.4000   22.8290 C.3   502  GDP502      0.2158
     14  O3'       14.0020   20.7870   23.2260 O.3   502  GDP502     -0.2175
     15  C2'       14.5110   19.3030   21.4060 C.3   502  GDP502      0.2310
     16  O2'       15.6270   20.1650   21.2200 O.3   502  GDP502     -0.2158
     17  C1'       15.0150   17.8740   21.4380 C.3   502  GDP502      0.2293
     18  N9        13.9680   16.9280   20.9220 N.pl3 502  GDP502     -0.2354
     19  C8        13.1290   16.0560   21.5550 C.3   502  GDP502      0.2246
     20  N7        12.3580   15.4050   20.7370 N.2   502  GDP502     -0.2322
     21  C5        12.7010   15.8690   19.4740 C.2   502  GDP502      0.2182
     22  C6        12.2140   15.5450   18.1830 C.1   502  GDP502      0.2372
     23  O6        11.3260   14.7280   17.8820 O.2   502  GDP502     -0.2069
     24  N1        12.8700   16.2820   17.1870 N.2   502  GDP502     -0.2485
     25  C2        13.8580   17.2050   17.4020 C.1   502  GDP502      0.2531
     26  N2        14.3480   17.7950   16.3160 N.pl3 502  GDP502     -0.0226
     27  N3        14.3290   17.5240   18.6140 N.2   502  GDP502     -0.3074
     28  C4        13.7010   16.8190   19.5650 C.2   502  GDP502      0.2300
@<TRIPOS>BOND
     1    26    25    1
     2    24    25    2
     3    24    22    2
     4    25    27    2
     5    23    22    2
     6    22    21    1
     7    27    28    2
     8    21    28    1
     9    21    20    2
    10    28    18    1
    11    20    19    1
    12    18    17    1
    13    18    19    1
    14    16    15    1
    15    15    17    1
    16    15    13    1
    17    17    12    1
    18    12    11    1
    19    13    14    1
    20    13    11    1
    21    11    10    1
    22     9    10    1
    23     9     6    1
    24     7     6    2
    25     6     8    1
    26     6     5    1
    27     5     1    1
    28     2     1    2
    29     1     3    1
    30     1     4    1
