@<TRIPOS>MOLECULE
1ek1_CIU_A_1.pdb
 17 18 0 0 0
SMALL
GASTEIGER

@<TRIPOS>ATOM
      1  C1       -41.1220 -112.5040  -27.0300 C.3   1100  CIU1100     0.0018
      2  C2       -41.9080 -112.5300  -28.3670 C.3   1100  CIU1100     0.0217
      3  C3       -42.3200 -114.0150  -28.7860 C.3   1100  CIU1100     0.0970
      4  C4       -41.0400 -114.9820  -28.8970 C.3   1100  CIU1100     0.0217
      5  C5       -40.2090 -115.0200  -27.5390 C.3   1100  CIU1100     0.0018
      6  C6       -39.8890 -113.5370  -26.9840 C.3   1100  CIU1100     0.0001
      7  N1       -43.0510 -113.9290  -30.0920 N.am  1100  CIU1100    -0.1887
      8  C7       -44.2300 -114.3770  -30.4060 C.2   1100  CIU1100     0.3434
      9  O2       -44.9460 -114.6160  -29.4520 O.2   1100  CIU1100    -0.2488
     10  N2       -44.5890 -114.5410  -31.6730 N.am  1100  CIU1100    -0.1610
     11  C8       -45.7510 -115.0180  -32.3580 C.ar  1100  CIU1100     0.0750
     12  I4       -49.9230 -116.6940  -34.8360 I     1100  CIU1100    -0.0425
     13  C9       -46.8790 -115.4950  -31.6590 C.ar  1100  CIU1100     0.0171
     14  C10      -48.0160 -115.9610  -32.3430 C.ar  1100  CIU1100     0.0071
     15  C11      -48.0590 -115.9600  -33.7790 C.ar  1100  CIU1100     0.0301
     16  C12      -46.8840 -115.4630  -34.5060 C.ar  1100  CIU1100     0.0071
     17  C13      -45.7500 -115.0010  -33.7950 C.ar  1100  CIU1100     0.0171
@<TRIPOS>BOND
     1    12    15    1
     2    16    17   ar
     3    16    15   ar
     4    17    11   ar
     5    15    14   ar
     6    11    10    1
     7    11    13   ar
     8    14    13   ar
     9    10     8   am
    10     8     7   am
    11     8     9    2
    12     7     3    1
    13     4     3    1
    14     4     5    1
    15     3     2    1
    16     2     1    1
    17     5     6    1
    18     1     6    1
