@<TRIPOS>MOLECULE
1ek2_CDU_A_1.pdb
 20 20 0 0 0
SMALL
GASTEIGER

@<TRIPOS>ATOM
      1  C1       -41.5100 -114.2050  -26.3170 C.3   1100  CDU1100     0.0018
      2  C2       -40.1420 -113.4190  -26.5350 C.3   1100  CDU1100     0.0001
      3  C3       -40.2520 -112.2430  -27.6010 C.3   1100  CDU1100     0.0018
      4  C4       -41.0750 -112.6590  -28.9050 C.3   1100  CDU1100     0.0217
      5  C5       -42.4770 -113.3250  -28.5940 C.3   1100  CDU1100     0.0969
      6  C6       -42.2140 -114.6060  -27.6890 C.3   1100  CDU1100     0.0217
      7  N1       -43.1210 -113.6960  -29.9300 N.am  1100  CDU1100    -0.1890
      8  C8       -44.3210 -114.2880  -30.2350 C.2   1100  CDU1100     0.3392
      9  O        -45.0520 -114.5700  -29.2620 O.2   1100  CDU1100    -0.2492
     10  N2       -44.8290 -114.6370  -31.4550 N.am  1100  CDU1100    -0.1872
     11  C11      -46.1560 -115.3150  -31.6490 C.3   1100  CDU1100     0.1168
     12  C12      -46.4210 -115.6030  -33.1340 C.3   1100  CDU1100     0.0235
     13  C13      -47.7870 -116.3240  -33.3400 C.3   1100  CDU1100     0.0018
     14  C14      -48.1860 -116.5080  -34.8550 C.3   1100  CDU1100     0.0001
     15  C15      -49.7300 -116.7880  -35.1160 C.3   1100  CDU1100     0.0000
     16  C16      -50.0870 -118.3070  -35.0610 C.3   1100  CDU1100     0.0000
     17  C17      -51.6050 -118.6020  -35.3160 C.3   1100  CDU1100     0.0000
     18  C18      -51.9280 -120.1410  -35.2540 C.3   1100  CDU1100     0.0000
     19  C19      -53.4380 -120.4610  -35.4970 C.3   1100  CDU1100     0.0000
     20  C20      -53.7500 -121.9800  -35.4350 C.3   1100  CDU1100     0.0000
@<TRIPOS>BOND
     1    19    20    1
     2    19    18    1
     3    17    18    1
     4    17    16    1
     5    15    16    1
     6    15    14    1
     7    14    13    1
     8    13    12    1
     9    12    11    1
    10    11    10    1
    11    10     8   am
    12     8     7   am
    13     8     9    2
    14     7     5    1
    15     4     5    1
    16     4     3    1
    17     5     6    1
    18     6     1    1
    19     3     2    1
    20     2     1    1
