@<TRIPOS>MOLECULE
1ek4_DAO_A_1.pdb
 13 12 0 0 0
SMALL
GASTEIGER

@<TRIPOS>ATOM
      1  O1        38.6740   69.3910   63.5280 O.2   901  DAO901     -0.2883
      2  C1        38.4050   70.0350   64.5650 C.2   901  DAO901      0.2074
      3  C2        39.5810   70.4120   65.4610 C.3   901  DAO901      0.0722
      4  C3        40.3800   69.1970   65.9200 C.3   901  DAO901      0.0082
      5  C4        39.5710   68.3380   66.8790 C.3   901  DAO901      0.0005
      6  C5        40.1750   66.9450   67.0510 C.3   901  DAO901      0.0000
      7  C6        39.3770   66.1370   68.0690 C.3   901  DAO901      0.0000
      8  C7        39.8460   66.3980   69.4960 C.3   901  DAO901      0.0000
      9  C8        41.1440   65.6630   69.7710 C.3   901  DAO901      0.0000
     10  C9        41.6340   65.9110   71.1810 C.3   901  DAO901      0.0000
     11  C10       42.5940   64.8170   71.6240 C.3   901  DAO901      0.0000
     12  C11       43.9620   64.9240   70.9550 C.3   901  DAO901      0.0000
     13  C12       44.8260   66.0620   71.4920 C.3   901  DAO901      0.0000
@<TRIPOS>BOND
     1     1     2    2
     2     2     3    1
     3     3     4    1
     4     4     5    1
     5     5     6    1
     6     6     7    1
     7     7     8    1
     8     8     9    1
     9     9    10    1
    10    12    13    1
    11    12    11    1
    12    10    11    1
