@<TRIPOS>MOLECULE
1ek5_NAD_A_1.pdb
 44 48 0 0 0
SMALL
GASTEIGER

@<TRIPOS>ATOM
      1  PA        -2.8930   17.0810   54.4710 P.3   400  NAD400      0.2189
      2  O1A       -3.3720   17.2520   55.8680 O.3   400  NAD400     -0.4371
      3  O2A       -3.0210   18.3310   53.6600 O.2   400  NAD400     -0.5170
      4  O5B       -3.8500   15.9750   53.8510 O.3   400  NAD400     -0.3112
      5  C5B       -4.2700   14.7950   54.5630 C.3   400  NAD400      0.1813
      6  C4B       -5.7590   14.7770   54.3320 C.3   400  NAD400      0.1821
      7  O4B       -6.3420   13.6340   54.9700 O.3   400  NAD400     -0.3135
      8  C3B       -6.5490   15.9740   54.8140 C.3   400  NAD400      0.2184
      9  O3B       -7.4070   16.3550   53.7600 O.3   400  NAD400     -0.2174
     10  C2B       -7.3070   15.4070   56.0120 C.3   400  NAD400      0.2570
     11  O2B       -8.5790   16.0390   56.1400 O.3   400  NAD400     -0.2130
     12  C1B       -7.5410   13.9930   55.5180 C.3   400  NAD400      0.3186
     13  N9A       -7.7150   13.0480   56.6110 N.pl3 400  NAD400     -0.1439
     14  C8A       -7.0920   13.0360   57.8410 C.3   400  NAD400      0.3377
     15  N7A       -7.5860   12.0770   58.6450 N.2   400  NAD400     -0.2095
     16  C5A       -8.5730   11.4620   57.8610 C.2   400  NAD400      0.2526
     17  C6A       -9.4490   10.4060   58.1130 C.2   400  NAD400      0.4393
     18  N6A       -9.5040    9.7640   59.2780 N.pl3 400  NAD400      0.2180
     19  N1A      -10.2660   10.0040   57.1010 N.2   400  NAD400      0.0021
     20  C2A      -10.2380   10.6710   55.9100 C.3   400  NAD400      0.5254
     21  N3A       -9.4680   11.6530   55.5860 N.2   400  NAD400     -0.0055
     22  C4A       -8.6220   12.0030   56.5920 C.2   400  NAD400      0.3518
     23  O3        -1.4090   16.6730   54.5170 O.3   400  NAD400     -0.2703
     24  PN        -0.4100   16.0820   53.3990 P.3   400  NAD400      0.2189
     25  O1N        0.9580   16.5550   53.7250 O.3   400  NAD400     -0.4371
     26  O2N       -0.9140   16.7090   52.1400 O.2   400  NAD400     -0.5170
     27  O5D       -0.2540   14.5480   53.0740 O.3   400  NAD400     -0.3112
     28  C5D       -0.9440   13.5360   53.7450 C.3   400  NAD400      0.1813
     29  C4D       -0.0390   12.3420   53.6530 C.3   400  NAD400      0.1799
     30  O4D        1.2830   12.7960   53.2470 O.3   400  NAD400     -0.3327
     31  C3D        0.1210   11.5900   54.9710 C.3   400  NAD400      0.2158
     32  O3D        0.1850   10.1870   54.7240 O.3   400  NAD400     -0.2175
     33  C2D        1.4600   12.1920   55.4330 C.3   400  NAD400      0.2309
     34  O2D        2.0810   11.3640   56.4250 O.3   400  NAD400     -0.2158
     35  C1D        2.2360   12.2340   54.1210 C.3   400  NAD400      0.2263
     36  N1N        3.4230   13.0970   54.2150 N.pl3 400  NAD400     -0.2787
     37  C2N        3.2010   14.4550   54.3860 C.3   400  NAD400      0.1244
     38  C3N        4.3230   15.1840   54.6770 C.2   400  NAD400      0.0544
     39  C7N        4.1880   16.6630   54.9620 C.2   400  NAD400      0.2818
     40  O7N        5.2870   17.1680   55.2220 O.2   400  NAD400     -0.2670
     41  N7N        3.0310   17.3770   54.8920 N.am  400  NAD400     -0.0839
     42  C4N        5.6320   14.6830   54.7070 C.2   400  NAD400      0.0033
     43  C5N        5.7160   13.3400   54.4700 C.2   400  NAD400      0.0157
     44  C6N        4.6910   12.5090   54.1930 C.2   400  NAD400      0.0633
@<TRIPOS>BOND
     1    26    24    2
     2    27    24    1
     3    27    28    1
     4    30    29    1
     5    30    35    1
     6    24    25    1
     7    24    23    1
     8    29    28    1
     9    29    31    1
    10     3     1    2
    11     9     8    1
    12     4     1    1
    13     4     5    1
    14    35    36    1
    15    35    33    1
    16    44    36    1
    17    44    43    2
    18    36    37    1
    19     6     5    1
    20     6     8    1
    21     6     7    1
    22    37    38    1
    23    43    42    1
    24     1    23    1
    25     1     2    1
    26    38    42    2
    27    38    39    1
    28    32    31    1
    29     8    10    1
    30    41    39   am
    31    39    40    2
    32     7    12    1
    33    31    33    1
    34    33    34    1
    35    12    10    1
    36    12    13    1
    37    21    20    1
    38    21    22    2
    39    20    19    1
    40    10    11    1
    41    22    13    1
    42    22    16    1
    43    13    14    1
    44    19    17    2
    45    14    15    1
    46    16    17    1
    47    16    15    2
    48    17    18    1
