@<TRIPOS>MOLECULE
1ek6_NAI_A_1.pdb
 44 48 0 0 0
SMALL
GASTEIGER

@<TRIPOS>ATOM
      1  PA        17.2680   36.5750    9.0570 P.3   400  NAI400      0.2189
      2  O1A       18.6860   36.8900    9.2250 O.3   400  NAI400     -0.4371
      3  O2A       16.6080   37.4700    8.0940 O.2   400  NAI400     -0.5170
      4  O5B       16.4120   36.7570   10.3990 O.3   400  NAI400     -0.3112
      5  C5B       17.0230   36.6730   11.7130 C.3   400  NAI400      0.1813
      6  C4B       16.8040   37.9840   12.4050 C.3   400  NAI400      0.1821
      7  O4B       17.4970   37.9080   13.6810 O.3   400  NAI400     -0.3135
      8  C3B       17.4430   39.1900   11.6870 C.3   400  NAI400      0.2184
      9  O3B       16.4960   40.2520   11.4960 O.3   400  NAI400     -0.2174
     10  C2B       18.6210   39.5530   12.6160 C.3   400  NAI400      0.2570
     11  O2B       18.8780   40.9760   12.6140 O.3   400  NAI400     -0.2130
     12  C1B       18.0520   39.1470   13.9550 C.3   400  NAI400      0.3186
     13  N9A       19.1180   38.9590   14.9190 N.pl3 400  NAI400     -0.1439
     14  C8A       20.3370   38.3530   14.7390 C.3   400  NAI400      0.3377
     15  N7A       21.0740   38.2630   15.8760 N.2   400  NAI400     -0.2095
     16  C5A       20.2550   38.8960   16.8210 C.2   400  NAI400      0.2526
     17  C6A       20.4490   39.1420   18.2180 C.2   400  NAI400      0.4393
     18  N6A       21.5520   38.7880   18.8790 N.pl3 400  NAI400      0.2180
     19  N1A       19.4310   39.7960   18.8550 N.2   400  NAI400      0.0021
     20  C2A       18.3190   40.1780   18.1450 C.3   400  NAI400      0.5254
     21  N3A       18.0440   39.9840   16.8760 N.2   400  NAI400     -0.0055
     22  C4A       19.0550   39.3400   16.2520 C.2   400  NAI400      0.3518
     23  O3        17.0830   35.0650    8.7270 O.3   400  NAI400     -0.2703
     24  PN        15.8100   34.1680    8.3480 P.3   400  NAI400      0.2189
     25  O1N       16.0550   33.6230    6.9790 O.2   400  NAI400     -0.5170
     26  O2N       14.6030   34.9940    8.4930 O.3   400  NAI400     -0.4371
     27  O5D       15.9010   32.9670    9.3850 O.3   400  NAI400     -0.3112
     28  C5D       15.2070   33.1020   10.6430 C.3   400  NAI400      0.1813
     29  C4D       15.5610   31.9120   11.5020 C.3   400  NAI400      0.1799
     30  O4D       15.2610   30.6930   10.7610 O.3   400  NAI400     -0.3327
     31  C3D       17.0150   31.8580   11.9480 C.3   400  NAI400      0.2158
     32  O3D       17.2020   31.3410   13.2760 O.3   400  NAI400     -0.2175
     33  C2D       17.5960   30.9100   10.8840 C.3   400  NAI400      0.2309
     34  O2D       18.7930   30.2890   11.4030 O.3   400  NAI400     -0.2158
     35  C1D       16.4400   29.9350   10.7090 C.3   400  NAI400      0.2263
     36  N1N       16.4830   29.1430    9.4690 N.pl3 400  NAI400     -0.2787
     37  C2N       16.4450   29.8790    8.3200 C.3   400  NAI400      0.1244
     38  C3N       16.5610   29.1830    7.1430 C.2   400  NAI400      0.0544
     39  C7N       16.5430   29.8800    5.8000 C.2   400  NAI400      0.2818
     40  O7N       16.7340   29.2070    4.8010 O.2   400  NAI400     -0.2670
     41  N7N       16.2960   31.1930    5.7330 N.am  400  NAI400     -0.0839
     42  C4N       16.4890   27.7560    7.0980 C.2   400  NAI400      0.0033
     43  C5N       16.4280   27.1370    8.3570 C.2   400  NAI400      0.0157
     44  C6N       16.5270   27.7510    9.5620 C.2   400  NAI400      0.0633
@<TRIPOS>BOND
     1    40    39    2
     2    41    39   am
     3    39    38    1
     4    25    24    2
     5    42    38    2
     6    42    43    1
     7    38    37    1
     8     3     1    2
     9    37    36    1
    10    24    26    1
    11    24    23    1
    12    24    27    1
    13    43    44    2
    14    23     1    1
    15     1     2    1
    16     1     4    1
    17    27    28    1
    18    36    44    1
    19    36    35    1
    20     4     5    1
    21    28    29    1
    22    35    30    1
    23    35    33    1
    24    30    29    1
    25    33    34    1
    26    33    31    1
    27     9     8    1
    28    29    31    1
    29     8     6    1
    30     8    10    1
    31     5     6    1
    32    31    32    1
    33     6     7    1
    34    11    10    1
    35    10    12    1
    36     7    12    1
    37    12    13    1
    38    14    13    1
    39    14    15    1
    40    13    22    1
    41    15    16    2
    42    22    16    1
    43    22    21    2
    44    16    17    1
    45    21    20    1
    46    20    19    1
    47    17    19    2
    48    17    18    1
