@<TRIPOS>MOLECULE
1ek6_UPG_A_1.pdb
 36 38 0 0 0
SMALL
GASTEIGER

@<TRIPOS>ATOM
      1  N1        23.5740   26.7540   -4.7710 N.am  401  UPG401     -0.1766
      2  C2        24.2610   27.0520   -5.9350 C.1   401  UPG401      0.2845
      3  N3        24.7120   28.3550   -6.0410 N.2   401  UPG401     -0.2452
      4  C4        24.5560   29.3650   -5.0950 C.1   401  UPG401      0.2182
      5  C5        23.8310   28.9440   -3.9360 C.2   401  UPG401      0.1242
      6  C6        23.3720   27.7150   -3.8190 C.2   401  UPG401      0.0929
      7  O2        24.4600   26.2350   -6.8110 O.2   401  UPG401     -0.1918
      8  O4        25.0110   30.4730   -5.3170 O.2   401  UPG401     -0.2085
      9  C1C       23.0340   25.4160   -4.5850 C.3   401  UPG401      0.2401
     10  C2C       23.6110   24.6320   -3.4240 C.3   401  UPG401      0.2319
     11  O2C       24.8010   23.9110   -3.7780 O.3   401  UPG401     -0.2157
     12  C3C       22.4490   23.6870   -3.0360 C.3   401  UPG401      0.2158
     13  C4C       21.2510   24.5450   -3.3850 C.3   401  UPG401      0.1799
     14  O4C       21.6840   25.5330   -4.3630 O.3   401  UPG401     -0.3320
     15  O3C       22.4020   22.4820   -3.7850 O.3   401  UPG401     -0.2175
     16  C5C       20.6360   25.2720   -2.2180 C.3   401  UPG401      0.1813
     17  O5C       21.6700   26.0300   -1.5390 O.3   401  UPG401     -0.3112
     18  PA        21.2630   27.1220   -0.4240 P.3   401  UPG401      0.2189
     19  O1A       20.2270   28.0630   -0.8670 O.2   401  UPG401     -0.5170
     20  O2A       22.4750   27.7670    0.1070 O.3   401  UPG401     -0.4371
     21  O3A       20.4970   26.2300    0.7140 O.3   401  UPG401     -0.2703
     22  PB        20.9830   25.0880    1.6750 P.3   401  UPG401      0.2208
     23  O1B       22.4410   24.9530    1.7310 O.3   401  UPG401     -0.4371
     24  O2B       20.3040   23.8520    1.2330 O.2   401  UPG401     -0.5170
     25  O3B       20.5350   25.5880    3.1830 O.3   401  UPG401     -0.2857
     26  C1'       19.3230   26.2920    3.4520 C.3   401  UPG401      0.2742
     27  C2'       19.4530   27.3970    4.5240 C.3   401  UPG401      0.2409
     28  C3'       19.9730   26.8620    5.8660 C.3   401  UPG401      0.2198
     29  C4'       19.1870   25.6460    6.3630 C.3   401  UPG401      0.2144
     30  C5'       18.9440   24.6650    5.1960 C.3   401  UPG401      0.1835
     31  C6'       17.9680   23.5230    5.5370 C.3   401  UPG401      0.2142
     32  O2'       20.3220   28.4990    4.1500 O.3   401  UPG401     -0.2149
     33  O3'       20.0100   27.8550    6.9240 O.3   401  UPG401     -0.2174
     34  O4'       19.8840   24.9920    7.4360 O.3   401  UPG401     -0.2176
     35  O5'       18.4230   25.3450    4.0200 O.3   401  UPG401     -0.3254
     36  O6'       17.6850   22.7110    4.3480 O.3   401  UPG401     -0.2176
@<TRIPOS>BOND
     1     7     2    2
     2     3     2    2
     3     3     4    2
     4     2     1   am
     5     8     4    2
     6     4     5    1
     7     1     9    1
     8     1     6    1
     9     9    14    1
    10     9    10    1
    11    14    13    1
    12     5     6    2
    13    15    12    1
    14    11    10    1
    15    10    12    1
    16    13    12    1
    17    13    16    1
    18    16    17    1
    19    17    18    1
    20    19    18    2
    21    18    20    1
    22    18    21    1
    23    21    22    1
    24    24    22    2
    25    22    23    1
    26    22    25    1
    27    25    26    1
    28    26    35    1
    29    26    27    1
    30    35    30    1
    31    32    27    1
    32    36    31    1
    33    27    28    1
    34    30    31    1
    35    30    29    1
    36    28    29    1
    37    28    33    1
    38    29    34    1
