@<TRIPOS>MOLECULE
1ek8_DEM_A_1.pdb
 13 12 0 0 0
SMALL
GASTEIGER

@<TRIPOS>ATOM
      1  CM       -13.1700   18.6140   25.4530 C.3   901  DEM901      0.3289
      2  C1       -11.0270   17.8960   26.2330 C.3   901  DEM901      0.1450
      3  C2        -9.6690   18.4470   26.5180 C.3   901  DEM901      0.0322
      4  C3        -8.6880   17.7140   25.6120 C.3   901  DEM901      0.0026
      5  C4        -7.2470   18.2190   25.8350 C.3   901  DEM901      0.0001
      6  C5        -6.2630   17.4780   24.9140 C.3   901  DEM901      0.0000
      7  C6        -6.2180   16.1010   25.4510 C.3   901  DEM901      0.0000
      8  C7        -5.3650   15.1880   24.6610 C.3   901  DEM901      0.0000
      9  C8        -5.5750   13.8860   25.3250 C.3   901  DEM901      0.0000
     10  C9        -4.9150   12.6930   24.7170 C.3   901  DEM901      0.0000
     11  C10       -5.3450   11.5260   25.5530 C.3   901  DEM901      0.0000
     12  O1       -11.9820   18.9340   26.1820 O.3   901  DEM901     -0.3247
     13  O5       -12.8590   18.3620   24.0660 O.3   901  DEM901     -0.1841
@<TRIPOS>BOND
     1    13     1    1
     2     8     9    1
     3     8     7    1
     4    10     9    1
     5    10    11    1
     6     6     7    1
     7     6     5    1
     8     1    12    1
     9     4     5    1
    10     4     3    1
    11    12     2    1
    12     2     3    1
