@<TRIPOS>MOLECULE
1ekb_III_A_1.pdb
 46 45 0 0 0
SMALL
GASTEIGER

@<TRIPOS>ATOM
      1  N          6.8190  -16.6980   15.3120 N.3     1  CYS1       -0.1221
      2  CA         7.6030  -15.4780   14.9500 C.3     1  CYS1        0.1808
      3  C          7.2510  -14.9800   13.5430 C.2     1  CYS1        0.2602
      4  O          7.4320  -15.7020   12.5620 O.2     1  CYS1       -0.2717
      5  CB         9.0980  -15.7950   15.0290 C.3     1  CYS1        0.0970
      6  SG        10.2260  -14.3680   14.9360 S.3     1  CYS1       -0.0800
      7  N          6.7400  -13.7530   13.4580 N.am    2  GLY2       -0.1942
      8  CA         6.3780  -13.1530   12.1800 C.3     2  GLY2        0.2014
      9  C          5.3850  -13.8860   11.2830 C.2     2  GLY2        0.2639
     10  O          5.4440  -13.7660   10.0550 O.2     2  GLY2       -0.2714
     11  N          4.4680  -14.6420   11.8760 N.am    3  LYS3       -0.1963
     12  CA         3.4830  -15.3750   11.0920 C.3     3  LYS3        0.1728
     13  C          2.0570  -14.9510   11.4460 C.2     3  LYS3        0.2616
     14  O          1.7140  -14.8190   12.6230 O.2     3  LYS3       -0.2715
     15  CB         3.6540  -16.8810   11.3170 C.3     3  LYS3        0.0334
     16  N          1.2360  -14.7040   10.4260 N.am    4  LYS4       -0.1963
     17  CA        -0.1560  -14.3360   10.6540 C.3     4  LYS4        0.1728
     18  C         -0.8330  -15.6680   10.9260 C.2     4  LYS4        0.2616
     19  O         -0.4530  -16.6800   10.3410 O.2     4  LYS4       -0.2715
     20  CB        -0.7570  -13.6690    9.4190 C.3     4  LYS4        0.0311
     21  CG        -0.0290  -12.4190    8.9840 C.3     4  LYS4        0.0038
     22  CD        -0.7680  -11.7070    7.8640 C.3     4  LYS4        0.0206
     23  CE        -0.1010  -10.3940    7.5220 C.3     4  LYS4        0.1093
     24  NZ        -1.0870   -9.2860    7.4950 N.3     4  LYS4       -0.1314
     25  N         -1.8100  -15.6840   11.8250 N.am    5  LEU5       -0.1963
     26  CA        -2.4760  -16.9360   12.1680 C.3     5  LEU5        0.1728
     27  C         -3.9970  -16.9130   12.0360 C.2     5  LEU5        0.2616
     28  O         -4.6860  -17.8110   12.5310 O.2     5  LEU5       -0.2715
     29  CB        -2.0870  -17.3600   13.5920 C.3     5  LEU5        0.0311
     30  CG        -0.7810  -18.1480   13.8010 C.3     5  LEU5        0.0022
     31  CD1        0.4250  -17.3990   13.2560 C.3     5  LEU5        0.0001
     32  CD2       -0.6090  -18.4100   15.2910 C.3     5  LEU5        0.0001
     33  N         -4.5230  -15.8930   11.3710 N.am    6  VAL6       -0.1963
     34  CA        -5.9650  -15.7980   11.1840 C.3     6  VAL6        0.1727
     35  C         -6.3040  -15.9700    9.7060 C.2     6  VAL6        0.2616
     36  O         -5.6950  -15.3270    8.8480 O.2     6  VAL6       -0.2715
     37  CB        -6.4990  -14.4450   11.6980 C.3     6  VAL6        0.0290
     38  CG1       -7.9900  -14.3400   11.4290 C.3     6  VAL6        0.0023
     39  CG2       -6.2230  -14.3200   13.1970 C.3     6  VAL6        0.0023
     40  N         -7.2720  -16.8410    9.4220 N.am    7  THR7       -0.1951
     41  CA        -7.6980  -17.1330    8.0530 C.3     7  THR7        0.1897
     42  C         -8.0750  -15.8920    7.2560 C.2     7  THR7        0.2313
     43  O         -8.0480  -14.7980    7.8630 O.2     7  THR7       -0.2863
     44  CB        -8.9070  -18.1010    8.0400 C.3     7  THR7        0.1794
     45  OG1      -10.0600  -17.4360    8.5690 O.3     7  THR7       -0.2208
     46  CG2       -8.6100  -19.3260    8.8700 C.3     7  THR7        0.0378
@<TRIPOS>BOND
     1    42    43    2
     2    42    41    1
     3    24    23    1
     4    23    22    1
     5    22    21    1
     6    44    41    1
     7    44    45    1
     8    44    46    1
     9    41    40    1
    10    36    35    2
    11    21    20    1
    12    20    17    1
    13    40    35   am
    14    35    34    1
    15    10     9    2
    16    19    18    2
    17    16    17    1
    18    16    13   am
    19    17    18    1
    20    18    25   am
    21    12    15    1
    22    12    13    1
    23    12    11    1
    24    34    33    1
    25    34    37    1
    26     9    11   am
    27     9     8    1
    28    33    27   am
    29    38    37    1
    30    13    14    2
    31    37    39    1
    32    25    26    1
    33    27    26    1
    34    27    28    2
    35    26    29    1
    36     8     7    1
    37     4     3    2
    38    31    30    1
    39     7     3   am
    40     3     2    1
    41    29    30    1
    42    30    32    1
    43     6     5    1
    44     2     5    1
    45     2     1    1
