@<TRIPOS>MOLECULE
1ekf_PLP_A_1.pdb
 15 15 0 0 0
SMALL
GASTEIGER

@<TRIPOS>ATOM
      1  N1        -4.0180   43.5360   16.3260 N.ar  370  PLP370     -0.2452
      2  C2        -3.4020   43.0450   17.4280 C.ar  370  PLP370      0.0978
      3  C2A       -2.5060   43.9760   18.2450 C.3   370  PLP370      0.0555
      4  C3        -3.6030   41.7160   17.7750 C.ar  370  PLP370      0.2049
      5  O3        -2.9930   41.2380   18.8760 O.3   370  PLP370     -0.2857
      6  C4        -4.4330   40.8810   16.9850 C.ar  370  PLP370      0.0182
      7  C4A       -4.6000   39.3790   17.4160 C.3   370  PLP370      0.0342
      8  C5        -5.0680   41.4680   15.8340 C.ar  370  PLP370      0.0261
      9  C6        -4.8420   42.7830   15.5380 C.ar  370  PLP370      0.0965
     10  C5A       -6.0350   40.7730   14.9290 C.3   370  PLP370      0.1815
     11  O4P       -5.5900   39.6030   14.3660 O.3   370  PLP370     -0.2653
     12  P         -6.6080   38.4870   13.9530 P.3   370  PLP370      0.5329
     13  O1P       -7.2040   37.8300   15.0960 O.3   370  PLP370     -0.1145
     14  O2P       -5.6030   37.5020   13.3080 O.3   370  PLP370     -0.1145
     15  O3P       -7.4890   39.0070   12.8700 O.2   370  PLP370     -0.2224
@<TRIPOS>BOND
     1    15    12    2
     2    14    12    1
     3    12    11    1
     4    12    13    1
     5    11    10    1
     6    10     8    1
     7     9     8   ar
     8     9     1   ar
     9     8     6   ar
    10     1     2   ar
    11     6     7    1
    12     6     4   ar
    13     2     4   ar
    14     2     3    1
    15     4     5    1
