@<TRIPOS>MOLECULE
1eko_I84_A_1.pdb
 27 28 0 0 0
SMALL
GASTEIGER

@<TRIPOS>ATOM
      1  C1        71.0380   32.6580   81.8940 C.ar  320  I84320     -0.0046
      2  C2        71.1540   33.3870   83.1060 C.ar  320  I84320     -0.0253
      3  C3        70.9900   32.7060   84.3620 C.ar  320  I84320     -0.0170
      4  C4        70.7150   31.3120   84.3670 C.ar  320  I84320     -0.0041
      5  C5        70.6010   30.5980   83.1540 C.ar  320  I84320     -0.0003
      6  C6        70.7630   31.2690   81.9190 C.ar  320  I84320     -0.0003
      7  C11       71.4480   34.8680   83.0890 C.3   320  I84320      0.0307
      8  C15       71.0980   33.3940   85.7190 C.3   320  I84320      0.1131
      9  C16       69.7350   33.9750   86.1780 C.2   320  I84320      0.2500
     10  N19       69.8740   35.2070   86.7710 N.am  320  I84320     -0.1789
     11  C20       68.8290   35.8860   87.3640 C.ar  320  I84320      0.0728
     12  O21       68.6690   33.3620   86.0080 O.2   320  I84320     -0.2726
     13  C22       68.9200   36.2490   88.7180 C.ar  320  I84320      0.0136
     14  C23       67.8690   36.9450   89.3520 C.ar  320  I84320     -0.0022
     15  C24       66.6870   37.2970   88.6140 C.ar  320  I84320      0.1157
     16  C25       66.6030   36.9220   87.2240 C.ar  320  I84320     -0.0022
     17  C26       67.6710   36.2270   86.6240 C.ar  320  I84320      0.0136
     18  C29       65.4100   37.2430   86.3660 C.3   320  I84320      0.0325
     19  C33       68.0240   37.3050   90.8090 C.3   320  I84320      0.0325
     20  S37       65.3560   38.1890   89.4410 S.O2  320  I84320      0.0768
     21  N38       64.8000   37.1930   90.7100 N.3   320  I84320     -0.0656
     22  C39       63.7230   37.7590   91.4490 C.3   320  I84320      0.2288
     23  C40       62.3720   37.1620   91.0610 C.2   320  I84320      0.3842
     24  O43       61.4600   38.1300   90.9090 O.co2 320  I84320     -0.2440
     25  O44       62.1460   35.9990   90.9270 O.co2 320  I84320     -0.2440
     26  O45       64.2090   38.3100   88.6010 O.2   320  I84320     -0.1516
     27  O46       65.8810   39.3380   90.1320 O.2   320  I84320     -0.1516
@<TRIPOS>BOND
     1     1     6   ar
     2     1     2   ar
     3     6     5   ar
     4     7     2    1
     5     2     3   ar
     6     5     4   ar
     7     3     4   ar
     8     3     8    1
     9     8     9    1
    10    12     9    2
    11     9    10   am
    12    18    16    1
    13    17    16   ar
    14    17    11   ar
    15    10    11    1
    16    16    15   ar
    17    11    13   ar
    18    26    20    2
    19    15    14   ar
    20    15    20    1
    21    13    14   ar
    22    14    19    1
    23    20    27    2
    24    20    21    1
    25    21    22    1
    26    24    23   ar
    27    25    23   ar
    28    23    22    1
