@<TRIPOS>MOLECULE
1eko_NAP_A_1.pdb
 48 52 0 0 0
SMALL
GASTEIGER

@<TRIPOS>ATOM
      1  PA        60.3730   28.2210   95.8620 P.3   318  NAP318      0.2189
      2  O1A       60.8920   28.4010   97.2360 O.3   318  NAP318     -0.4371
      3  O2A       58.9040   28.2540   95.6630 O.2   318  NAP318     -0.5170
      4  O5B       60.9030   26.8140   95.2980 O.3   318  NAP318     -0.3112
      5  C5B       60.5280   26.3240   94.0040 C.3   318  NAP318      0.1813
      6  C4B       60.9530   24.8690   93.8450 C.3   318  NAP318      0.1820
      7  O4B       60.2400   24.0460   94.8000 O.3   318  NAP318     -0.3136
      8  C3B       60.5630   24.3700   92.4770 C.3   318  NAP318      0.2157
      9  O3B       61.6890   23.8090   91.8400 O.3   318  NAP318     -0.2175
     10  C2B       59.3880   23.4270   92.6970 C.3   318  NAP318      0.2314
     11  O2B       59.3020   22.3520   91.7390 O.3   318  NAP318     -0.2630
     12  C1B       59.6050   22.9350   94.1300 C.3   318  NAP318      0.3158
     13  N9A       58.3670   22.5280   94.8600 N.pl3 318  NAP318     -0.1439
     14  C8A       57.2230   23.2310   94.9730 C.3   318  NAP318      0.3377
     15  N7A       56.3110   22.6250   95.7320 N.2   318  NAP318     -0.2095
     16  C5A       56.9280   21.5210   96.1030 C.2   318  NAP318      0.2526
     17  C6A       56.3930   20.5340   96.9370 C.2   318  NAP318      0.4393
     18  N6A       55.1650   20.6500   97.4550 N.pl3 318  NAP318      0.2180
     19  N1A       57.2070   19.4720   97.2090 N.2   318  NAP318      0.0021
     20  C2A       58.4580   19.3520   96.7280 C.3   318  NAP318      0.5254
     21  N3A       58.9400   20.3190   95.9230 N.2   318  NAP318     -0.0055
     22  C4A       58.2090   21.4190   95.5850 C.2   318  NAP318      0.3518
     23  O3        61.2880   29.1530   94.9140 O.3   318  NAP318     -0.2703
     24  PN        61.2490   30.4840   94.0220 P.3   318  NAP318      0.2189
     25  O1N       60.7570   30.1230   92.6690 O.2   318  NAP318     -0.5170
     26  O2N       62.5600   31.1560   94.1030 O.3   318  NAP318     -0.4371
     27  O5D       60.2070   31.3540   94.9000 O.3   318  NAP318     -0.3112
     28  C5D       58.7780   31.3040   94.7320 C.3   318  NAP318      0.1813
     29  C4D       58.1860   32.5070   94.0200 C.3   318  NAP318      0.1799
     30  O4D       58.6250   33.6490   94.7940 O.3   318  NAP318     -0.3327
     31  C3D       58.6750   32.7510   92.5870 C.3   318  NAP318      0.2158
     32  O3D       58.2100   31.9570   91.4950 O.3   318  NAP318     -0.2175
     33  C2D       58.5000   34.2500   92.4960 C.3   318  NAP318      0.2309
     34  O2D       57.1420   34.5900   92.1420 O.3   318  NAP318     -0.2158
     35  C1D       58.9320   34.7200   93.8950 C.3   318  NAP318      0.2263
     36  N1N       60.3030   35.3110   94.0540 N.pl3 318  NAP318     -0.2787
     37  C2N       60.3100   36.7320   94.1210 C.3   318  NAP318      0.1244
     38  C3N       61.5240   37.4070   94.3370 C.2   318  NAP318      0.0544
     39  C7N       61.6520   38.9440   94.3300 C.2   318  NAP318      0.2818
     40  O7N       62.7460   39.4470   94.0530 O.2   318  NAP318     -0.2670
     41  N7N       60.5480   39.6700   94.5670 N.am  318  NAP318     -0.0839
     42  C4N       62.6960   36.5990   94.4280 C.2   318  NAP318      0.0033
     43  C5N       62.7660   35.1980   94.3010 C.2   318  NAP318      0.0157
     44  C6N       61.5410   34.5710   94.1640 C.2   318  NAP318      0.0633
     45  P2B       58.4190   22.3210   90.3800 P.3   318  NAP318      0.5328
     46  O1X       59.3250   21.6630   89.4150 O.2   318  NAP318     -0.2224
     47  O2X       57.2510   21.5240   90.8360 O.3   318  NAP318     -0.1145
     48  O3X       58.1190   23.7180   90.0000 O.3   318  NAP318     -0.1145
@<TRIPOS>BOND
     1    46    45    2
     2    48    45    1
     3    45    47    1
     4    45    11    1
     5    32    31    1
     6    11    10    1
     7     9     8    1
     8    34    33    1
     9     8    10    1
    10     8     6    1
    11    33    31    1
    12    33    35    1
    13    31    29    1
    14    25    24    2
    15    10    12    1
    16     6     5    1
    17     6     7    1
    18    35    36    1
    19    35    30    1
    20     5     4    1
    21    29    28    1
    22    29    30    1
    23    24    26    1
    24    24    27    1
    25    24    23    1
    26    40    39    2
    27    36    37    1
    28    36    44    1
    29    37    38    1
    30    12     7    1
    31    12    13    1
    32    44    43    2
    33    43    42    1
    34    39    38    1
    35    39    41   am
    36    38    42    2
    37    28    27    1
    38    13    14    1
    39    13    22    1
    40    23     1    1
    41    14    15    1
    42     4     1    1
    43    22    21    2
    44    22    16    1
    45     3     1    2
    46    15    16    2
    47     1     2    1
    48    21    20    1
    49    16    17    1
    50    20    19    1
    51    17    19    2
    52    17    18    1
