@<TRIPOS>MOLECULE
1ekp_PLP_A_1.pdb
 15 15 0 0 0
SMALL
GASTEIGER

@<TRIPOS>ATOM
      1  N1        15.5890    9.9490   15.4810 N.ar  370  PLP370     -0.2452
      2  C2        14.7730    8.9240   15.8360 C.ar  370  PLP370      0.0978
      3  C2A       14.2780    7.9970   14.7320 C.3   370  PLP370      0.0555
      4  C3        14.4230    8.7630   17.1880 C.ar  370  PLP370      0.2049
      5  O3        13.6120    7.7420   17.5350 O.3   370  PLP370     -0.2857
      6  C4        14.9160    9.6580   18.1660 C.ar  370  PLP370      0.0182
      7  C4A       14.4970    9.4460   19.6460 C.3   370  PLP370      0.0342
      8  C5        15.7830   10.7220   17.7330 C.ar  370  PLP370      0.0261
      9  C6        16.0960   10.8350   16.4020 C.ar  370  PLP370      0.0965
     10  C5A       16.4420   11.7170   18.6290 C.3   370  PLP370      0.1815
     11  O4P       15.6200   12.3740   19.5130 O.3   370  PLP370     -0.2653
     12  P         16.1370   12.8320   20.9310 P.3   370  PLP370      0.5329
     13  O1P       16.3820   11.7070   21.8240 O.3   370  PLP370     -0.1145
     14  O2P       14.8470   13.5390   21.4390 O.3   370  PLP370     -0.1145
     15  O3P       17.1450   13.8840   20.7550 O.2   370  PLP370     -0.2224
@<TRIPOS>BOND
     1     3     2    1
     2     1     2   ar
     3     1     9   ar
     4     2     4   ar
     5     9     8   ar
     6     4     5    1
     7     4     6   ar
     8     8     6   ar
     9     8    10    1
    10     6     7    1
    11    10    11    1
    12    11    12    1
    13    15    12    2
    14    12    14    1
    15    12    13    1
