@<TRIPOS>MOLECULE
1ekv_PLP_A_1.pdb
 15 15 0 0 0
SMALL
GASTEIGER

@<TRIPOS>ATOM
      1  N1         4.0840   12.8650    0.5260 N.ar  370  PLP370     -0.2452
      2  C2         5.3050   12.4290    1.0380 C.ar  370  PLP370      0.0978
      3  C2A        6.3440   13.4760    1.4930 C.3   370  PLP370      0.0555
      4  C3         5.5750   11.0530    1.1260 C.ar  370  PLP370      0.2049
      5  O3         6.7660   10.6380    1.6340 O.3   370  PLP370     -0.2857
      6  C4         4.6000   10.1110    0.7050 C.ar  370  PLP370      0.0182
      7  C4A        4.8380    8.5340    0.7970 C.3   370  PLP370      0.0342
      8  C5         3.3620   10.5970    0.1790 C.ar  370  PLP370      0.0261
      9  C6         3.1220   11.9700    0.1030 C.ar  370  PLP370      0.0965
     10  C5A        2.2710    9.6310   -0.2950 C.3   370  PLP370      0.1815
     11  O4P        2.6000    8.8000   -1.3860 O.3   370  PLP370     -0.2653
     12  P          1.8080    7.4750   -1.6230 P.3   370  PLP370      0.5329
     13  O1P        2.4920    6.4390   -0.8580 O.3   370  PLP370     -0.1145
     14  O2P        1.9790    7.1300   -3.1110 O.2   370  PLP370     -0.2224
     15  O3P        0.3680    7.7150   -1.4170 O.3   370  PLP370     -0.1145
@<TRIPOS>BOND
     1    14    12    2
     2    12    15    1
     3    12    11    1
     4    12    13    1
     5    11    10    1
     6    10     8    1
     7     9     8   ar
     8     9     1   ar
     9     8     6   ar
    10     1     2   ar
    11     6     7    1
    12     6     4   ar
    13     2     4   ar
    14     2     3    1
    15     4     5    1
