@<TRIPOS>MOLECULE
1ekx_PAL_A_1.pdb
 16 15 0 0 0
SMALL
GASTEIGER

@<TRIPOS>ATOM
      1  P          6.6580   30.4490   21.2190 P.3   1001  PAL1001     0.1264
      2  O1P        7.5010   29.4170   20.6330 O.2   1001  PAL1001    -0.4596
      3  O2P        7.2880   31.8080   21.1410 O.3   1001  PAL1001    -0.3568
      4  O3P        6.2910   30.1240   22.6740 O.3   1001  PAL1001    -0.3568
      5  C1P        5.0200   30.5930   20.3950 C.3   1001  PAL1001     0.1454
      6  C1         4.5090   29.2410   20.0060 C.2   1001  PAL1001     0.2492
      7  O1         4.0980   28.4190   20.8520 O.2   1001  PAL1001    -0.2728
      8  N2         4.5900   28.8900   18.7690 N.am  1001  PAL1001    -0.1946
      9  C2         4.1560   27.6930   18.1680 C.3   1001  PAL1001     0.2090
     10  C4         4.8490   26.4440   18.5630 C.2   1001  PAL1001     0.3848
     11  O2         5.8790   26.4810   19.3140 O.co2 1001  PAL1001    -0.2437
     12  O3         4.4460   25.3280   18.1690 O.co2 1001  PAL1001    -0.2437
     13  C3         4.1760   27.8260   16.5960 C.3   1001  PAL1001     0.1472
     14  C5         5.5510   27.8630   15.9500 C.2   1001  PAL1001     0.3672
     15  O4         5.6990   28.1480   14.6970 O.co2 1001  PAL1001    -0.2456
     16  O5         6.5650   27.6120   16.6710 O.co2 1001  PAL1001    -0.2456
@<TRIPOS>BOND
     1    15    14   ar
     2    14    13    1
     3    14    16   ar
     4    13     9    1
     5     9    10    1
     6     9     8    1
     7    12    10   ar
     8    10    11   ar
     9     8     6   am
    10     6     5    1
    11     6     7    2
    12     5     1    1
    13     2     1    2
    14     3     1    1
    15     1     4    1
