@<TRIPOS>MOLECULE
1el3_NAP_A_1.pdb
 48 52 0 0 0
SMALL
GASTEIGER

@<TRIPOS>ATOM
      1  PA        22.7130   -4.9010   27.1180 P.3   318  NAP318      0.2189
      2  O1A       23.6160   -3.8490   26.5990 O.2   318  NAP318     -0.5170
      3  O2A       21.7080   -4.5400   28.1390 O.3   318  NAP318     -0.4371
      4  O5B       23.6130   -6.1220   27.6670 O.3   318  NAP318     -0.3112
      5  C5B       22.9990   -7.3210   28.1640 C.3   318  NAP318      0.1813
      6  C4B       24.1550   -8.2310   28.5320 C.3   318  NAP318      0.1820
      7  O4B       24.9390   -7.6380   29.5950 O.3   318  NAP318     -0.3136
      8  C3B       23.7940   -9.6290   28.9960 C.3   318  NAP318      0.2157
      9  O3B       24.7220  -10.6090   28.4910 O.3   318  NAP318     -0.2175
     10  C2B       23.8380   -9.5110   30.5050 C.3   318  NAP318      0.2314
     11  O2B       24.1180  -10.7750   31.1160 O.3   318  NAP318     -0.2630
     12  C1B       24.9650   -8.5190   30.7290 C.3   318  NAP318      0.3158
     13  N9A       24.9170   -7.7790   32.0190 N.pl3 318  NAP318     -0.1439
     14  C8A       23.8710   -7.1650   32.6060 C.3   318  NAP318      0.3377
     15  N7A       24.2220   -6.5320   33.7220 N.2   318  NAP318     -0.2095
     16  C5A       25.5100   -6.8000   33.8310 C.2   318  NAP318      0.2526
     17  C6A       26.3590   -6.4090   34.8740 C.2   318  NAP318      0.4393
     18  N6A       25.9540   -5.6320   35.8790 N.pl3 318  NAP318      0.2180
     19  N1A       27.6520   -6.8390   34.7940 N.2   318  NAP318      0.0021
     20  C2A       28.1370   -7.5750   33.7720 C.3   318  NAP318      0.5254
     21  N3A       27.2990   -7.9310   32.7770 N.2   318  NAP318     -0.0055
     22  C4A       25.9840   -7.5730   32.7840 C.2   318  NAP318      0.3518
     23  O3        22.0760   -5.6070   25.8410 O.3   318  NAP318     -0.2703
     24  PN        20.7530   -5.6580   24.9610 P.3   318  NAP318      0.2189
     25  O1N       19.9920   -6.8410   25.4340 O.3   318  NAP318     -0.4371
     26  O2N       21.1570   -5.6330   23.5340 O.2   318  NAP318     -0.5170
     27  O5D       20.0160   -4.2450   25.2430 O.3   318  NAP318     -0.3112
     28  C5D       19.1220   -4.0320   26.3550 C.3   318  NAP318      0.1813
     29  C4D       17.6400   -4.0580   26.0180 C.3   318  NAP318      0.1799
     30  O4D       17.4140   -3.0720   24.9740 O.3   318  NAP318     -0.3327
     31  C3D       17.1240   -5.3570   25.3940 C.3   318  NAP318      0.2158
     32  O3D       17.0930   -6.5420   26.1630 O.3   318  NAP318     -0.2175
     33  C2D       15.9010   -4.8820   24.6440 C.3   318  NAP318      0.2309
     34  O2D       14.8510   -4.7720   25.6340 O.3   318  NAP318     -0.2158
     35  C1D       16.4190   -3.5480   24.0690 C.3   318  NAP318      0.2263
     36  N1N       16.9090   -3.5160   22.6480 N.pl3 318  NAP318     -0.2787
     37  C2N       15.9640   -2.9790   21.7320 C.3   318  NAP318      0.1244
     38  C3N       16.3200   -2.8960   20.3720 C.2   318  NAP318      0.0544
     39  C7N       15.4010   -2.3120   19.2820 C.2   318  NAP318      0.2818
     40  O7N       15.5730   -2.6000   18.0920 O.2   318  NAP318     -0.2670
     41  N7N       14.4540   -1.4800   19.6920 N.am  318  NAP318     -0.0839
     42  C4N       17.5910   -3.3920   19.9780 C.2   318  NAP318      0.0033
     43  C5N       18.5480   -3.9480   20.8420 C.2   318  NAP318      0.0157
     44  C6N       18.2060   -3.9730   22.1800 C.2   318  NAP318      0.0633
     45  P2B       23.0330  -11.6710   31.8780 P.3   318  NAP318      0.5328
     46  O1X       23.1340  -11.1980   33.2730 O.3   318  NAP318     -0.1145
     47  O2X       21.7050  -11.4430   31.2400 O.2   318  NAP318     -0.2224
     48  O3X       23.5740  -13.0390   31.6650 O.3   318  NAP318     -0.1145
@<TRIPOS>BOND
     1    40    39    2
     2    39    41   am
     3    39    38    1
     4    42    38    2
     5    42    43    1
     6    38    37    1
     7    43    44    2
     8    37    36    1
     9    44    36    1
    10    36    35    1
    11    26    24    2
    12    35    33    1
    13    35    30    1
    14    33    31    1
    15    33    34    1
    16    24    27    1
    17    24    25    1
    18    24    23    1
    19    30    29    1
    20    27    28    1
    21    31    29    1
    22    31    32    1
    23    23     1    1
    24    29    28    1
    25     2     1    2
    26     1     4    1
    27     1     3    1
    28     4     5    1
    29     5     6    1
    30     9     8    1
    31     6     8    1
    32     6     7    1
    33     8    10    1
    34     7    12    1
    35    10    12    1
    36    10    11    1
    37    12    13    1
    38    11    45    1
    39    47    45    2
    40    48    45    1
    41    45    46    1
    42    13    14    1
    43    13    22    1
    44    14    15    1
    45    21    22    2
    46    21    20    1
    47    22    16    1
    48    15    16    2
    49    20    19    1
    50    16    17    1
    51    19    17    2
    52    17    18    1
