@<TRIPOS>MOLECULE
1el3_I84_A_1.pdb
 27 28 0 0 0
SMALL
GASTEIGER

@<TRIPOS>ATOM
      1  C1        21.9700  -17.0320   16.3330 C.ar  320  I84320     -0.0046
      2  C2        21.7140  -15.8670   15.5630 C.ar  320  I84320     -0.0253
      3  C3        20.4690  -15.1690   15.7140 C.ar  320  I84320     -0.0170
      4  C4        19.5060  -15.6700   16.6430 C.ar  320  I84320     -0.0041
      5  C5        19.7780  -16.8320   17.4030 C.ar  320  I84320     -0.0003
      6  C6        21.0080  -17.5110   17.2470 C.ar  320  I84320     -0.0003
      7  C11       22.7370  -15.3450   14.5830 C.3   320  I84320      0.0307
      8  C15       20.1400  -13.9010   14.9060 C.3   320  I84320      0.1131
      9  C16       19.3430  -12.8140   15.6880 C.2   320  I84320      0.2500
     10  N19       18.4450  -12.1690   14.8910 N.am  320  I84320     -0.1789
     11  C20       17.7570  -11.0480   15.2930 C.ar  320  I84320      0.0728
     12  O21       19.5270  -12.5820   16.8850 O.2   320  I84320     -0.2726
     13  C22       18.1750   -9.7700   14.8680 C.ar  320  I84320      0.0136
     14  C23       17.4790   -8.6090   15.2750 C.ar  320  I84320     -0.0022
     15  C24       16.3300   -8.7180   16.1330 C.ar  320  I84320      0.1157
     16  C25       15.9160  -10.0390   16.5590 C.ar  320  I84320     -0.0022
     17  C26       16.6330  -11.1740   16.1330 C.ar  320  I84320      0.0136
     18  C29       14.7340  -10.2690   17.4510 C.3   320  I84320      0.0325
     19  C33       17.9740   -7.2700   14.7890 C.3   320  I84320      0.0325
     20  S37       15.4470   -7.2130   16.6400 S.O2  320  I84320      0.0768
     21  N38       16.5520   -6.3080   17.6050 N.3   320  I84320     -0.0656
     22  C39       16.7870   -6.8090   18.9360 C.3   320  I84320      0.2288
     23  C40       15.7590   -6.2320   19.8910 C.2   320  I84320      0.3842
     24  O43       16.1070   -6.4410   21.1730 O.co2 320  I84320     -0.2440
     25  O44       14.7770   -5.6490   19.5600 O.co2 320  I84320     -0.2440
     26  O45       14.3650   -7.5250   17.5250 O.2   320  I84320     -0.1516
     27  O46       15.2210   -6.3770   15.4980 O.2   320  I84320     -0.1516
@<TRIPOS>BOND
     1     7     2    1
     2    19    14    1
     3    13    14   ar
     4    13    11   ar
     5    10    11    1
     6    10     9   am
     7     8     9    1
     8     8     3    1
     9    14    15   ar
    10    11    17   ar
    11    27    20    2
    12     2     3   ar
    13     2     1   ar
    14     9    12    2
    15     3     4   ar
    16    15    16   ar
    17    15    20    1
    18    17    16   ar
    19     1     6   ar
    20    16    18    1
    21    20    26    2
    22    20    21    1
    23     4     5   ar
    24     6     5   ar
    25    21    22    1
    26    22    23    1
    27    25    23   ar
    28    23    24   ar
