@<TRIPOS>MOLECULE
1el4_CTZ_A_1.pdb
 33 37 0 0 0
SMALL
GASTEIGER

@<TRIPOS>ATOM
      1  N1        27.1440   12.8210   22.4710 N.2   197  CTZ197     -0.0277
      2  C2        28.2960   12.1750   22.7780 C.3   197  CTZ197      0.3887
      3  C3        28.6020   12.3010   24.1300 C.2   197  CTZ197      0.3886
      4  N4        27.5730   13.0840   24.6840 N.am  197  CTZ197     -0.1262
      5  C5        27.3350   13.5600   26.0170 C.3   197  CTZ197      0.2691
      6  C6        26.1790   14.3510   26.2280 C.2   197  CTZ197      0.1563
      7  N7        25.3090   14.6340   25.1360 N.2   197  CTZ197     -0.3986
      8  C8        25.5170   14.1780   23.8260 C.2   197  CTZ197      0.1948
      9  C9        26.6640   13.3960   23.6060 C.2   197  CTZ197      0.3543
     10  C10       28.1740   10.8820   21.9590 C.3   197  CTZ197      0.1198
     11  C11       29.2520    9.8180   22.0610 C.ar  197  CTZ197     -0.0145
     12  C12       30.2850    9.8260   21.0560 C.ar  197  CTZ197     -0.0007
     13  C13       31.4610    9.0300   21.1890 C.ar  197  CTZ197      0.0417
     14  C14       31.6220    8.2090   22.3400 C.ar  197  CTZ197      0.1957
     15  C15       30.6140    8.1670   23.3700 C.ar  197  CTZ197      0.0417
     16  C16       29.4270    8.9740   23.2260 C.ar  197  CTZ197     -0.0007
     17  O17       32.7470    7.4550   22.4630 O.3   197  CTZ197     -0.2866
     18  O18       29.4910   11.9140   24.8490 O.2   197  CTZ197     -0.2391
     19  C19       25.8670   14.9070   27.5210 C.ar  197  CTZ197      0.0297
     20  C20       26.8770   15.2200   28.5010 C.ar  197  CTZ197      0.0056
     21  C21       26.5500   15.7890   29.7510 C.ar  197  CTZ197      0.0421
     22  C22       25.1840   16.0620   30.0550 C.ar  197  CTZ197      0.1957
     23  C23       24.1410   15.7670   29.1200 C.ar  197  CTZ197      0.0421
     24  C24       24.4880   15.1890   27.8480 C.ar  197  CTZ197      0.0056
     25  O25       24.8790   16.6160   31.2570 O.3   197  CTZ197     -0.2866
     26  C26       24.5070   14.5830   22.8520 C.3   197  CTZ197      0.0931
     27  C27       23.2430   13.7790   22.9650 C.ar  197  CTZ197     -0.0149
     28  C28       22.9400   12.7580   21.9860 C.ar  197  CTZ197     -0.0038
     29  C29       21.7340   11.9780   22.0750 C.ar  197  CTZ197     -0.0003
     30  C30       20.8060   12.2070   23.1490 C.ar  197  CTZ197     -0.0000
     31  C31       21.0870   13.2210   24.1380 C.ar  197  CTZ197     -0.0003
     32  C32       22.3040   14.0040   24.0430 C.ar  197  CTZ197     -0.0038
     33  O33       29.3590   12.6960   21.9110 O.3   197  CTZ197     -0.1608
@<TRIPOS>BOND
     1    12    13   ar
     2    12    11   ar
     3    13    14   ar
     4    33     2    1
     5    10    11    1
     6    10     2    1
     7    28    29   ar
     8    28    27   ar
     9    11    16   ar
    10    29    30   ar
    11    14    17    1
    12    14    15   ar
    13     1     2    1
    14     1     9    2
    15     2     3    1
    16    26    27    1
    17    26     8    1
    18    27    32   ar
    19    30    31   ar
    20    16    15   ar
    21     9     8    1
    22     9     4    1
    23     8     7    2
    24    32    31   ar
    25     3     4   am
    26     3    18    2
    27     4     5    1
    28     7     6    2
    29     5     6    1
    30     6    19    1
    31    19    24   ar
    32    19    20   ar
    33    24    23   ar
    34    20    21   ar
    35    23    22   ar
    36    21    22   ar
    37    22    25    1
