@<TRIPOS>MOLECULE
1ela_0Z1_A_1.pdb
 32 33 0 0 0
SMALL
GASTEIGER

@<TRIPOS>ATOM
      1  C1        41.0260   23.4570   37.5520 C.2   256  0Z1256      0.3371
      2  C2        41.3570   24.7770   38.3540 C.3   256  0Z1256      0.4711
      3  O         40.5080   23.4910   36.4290 O.2   256  0Z1256     -0.2642
      4  F1        40.3210   25.6100   38.3690 F     256  0Z1256     -0.1620
      5  F2        41.6550   24.6140   39.6510 F     256  0Z1256     -0.1620
      6  F3        42.3640   25.4820   37.8480 F     256  0Z1256     -0.1620
      7  N         41.3550   22.2730   38.1070 N.am  256  0Z1256     -0.1908
      8  CA        40.9500   20.9670   37.6240 C.3   256  0Z1256      0.1715
      9  C         39.4240   20.9590   37.3850 C.2   256  0Z1256      0.2458
     10  O1        38.7000   21.3740   38.2770 O.2   256  0Z1256     -0.2730
     11  CB        41.4240   19.9850   38.7160 C.3   256  0Z1256      0.0311
     12  CG        40.6820   18.6700   38.8800 C.3   256  0Z1256      0.0038
     13  CD        41.5880   17.4430   38.7380 C.3   256  0Z1256      0.0206
     14  CE        40.6760   16.2380   38.4700 C.3   256  0Z1256      0.1093
     15  NZ        41.4070   14.9900   38.4870 N.3   256  0Z1256     -0.1314
     16  N1        38.8360   20.5900   36.2350 N.am  256  0Z1256     -0.2716
     17  CA1       37.3820   20.3770   36.1140 C.3   256  0Z1256      0.1539
     18  C3        36.9250   19.0660   36.7880 C.2   256  0Z1256      0.2636
     19  O2        36.9440   17.9560   36.2220 O.2   256  0Z1256     -0.2712
     20  CB1       37.1460   20.4590   34.6080 C.3   256  0Z1256      0.0310
     21  CG1       38.4480   19.9870   33.9860 C.3   256  0Z1256      0.0237
     22  CD1       39.5430   20.4350   34.9620 C.3   256  0Z1256      0.0939
     23  C11       36.2230   18.4440   39.0040 C.ar  256  0Z1256      0.0734
     24  N11       36.5850   19.3630   38.0670 N.am  256  0Z1256     -0.1778
     25  C21       36.6700   17.1060   38.9640 C.ar  256  0Z1256      0.0163
     26  C31       36.3750   16.2270   40.0160 C.ar  256  0Z1256     -0.0029
     27  C4        35.6300   16.6700   41.1260 C.ar  256  0Z1256     -0.0224
     28  C5        35.1810   17.9950   41.1620 C.ar  256  0Z1256     -0.0029
     29  C6        35.4700   18.8690   40.1080 C.ar  256  0Z1256      0.0163
     30  C1'       35.3340   15.7380   42.3120 C.3   256  0Z1256      0.0224
     31  C2'       36.1110   14.4050   42.2320 C.3   256  0Z1256      0.0047
     32  C3'       33.8640   15.4850   42.2850 C.3   256  0Z1256      0.0047
@<TRIPOS>BOND
     1    21    20    1
     2    21    22    1
     3    20    17    1
     4    22    16    1
     5    17    16    1
     6    17    18    1
     7    19    18    2
     8    16     9   am
     9     3     1    2
    10    18    24   am
    11     9     8    1
    12     9    10    2
    13     1     7   am
    14     1     2    1
    15     8     7    1
    16     8    11    1
    17     6     2    1
    18    24    23    1
    19     2     4    1
    20     2     5    1
    21    14    15    1
    22    14    13    1
    23    11    12    1
    24    13    12    1
    25    25    23   ar
    26    25    26   ar
    27    23    29   ar
    28    26    27   ar
    29    29    28   ar
    30    27    28   ar
    31    27    30    1
    32    31    30    1
    33    32    30    1
