@<TRIPOS>MOLECULE
1elb_0Z4_A_1.pdb
 33 33 0 0 0
SMALL
GASTEIGER

@<TRIPOS>ATOM
      1  C1        43.2350   20.8140   35.7780 C.2   256  0Z4256      0.3371
      2  C2        44.0100   22.1540   35.4490 C.3   256  0Z4256      0.4711
      3  O         42.9080   19.9720   34.9160 O.2   256  0Z4256     -0.2642
      4  F1        45.1590   22.3250   36.0450 F     256  0Z4256     -0.1620
      5  F2        44.2650   22.4010   34.1750 F     256  0Z4256     -0.1620
      6  F3        43.2850   23.1710   35.8590 F     256  0Z4256     -0.1620
      7  N         43.0130   20.5400   37.0850 N.am  256  0Z4256     -0.1907
      8  CA        42.0630   19.5230   37.5010 C.3   256  0Z4256      0.1730
      9  C         41.0600   20.3810   38.2600 C.2   256  0Z4256      0.2616
     10  O1        40.6280   20.0570   39.3690 O.2   256  0Z4256     -0.2715
     11  CB        42.6420   18.4860   38.4520 C.3   256  0Z4256      0.0311
     12  CG        42.4980   17.0670   37.9460 C.3   256  0Z4256      0.0038
     13  CD        41.0750   16.5680   38.1170 C.3   256  0Z4256      0.0206
     14  CE        40.9830   15.0620   37.8910 C.3   256  0Z4256      0.1093
     15  NZ        39.6060   14.6180   38.0590 N.3   256  0Z4256     -0.1314
     16  N1        40.7660   21.5380   37.6270 N.am  256  0Z4256     -0.1963
     17  CA1       39.7140   22.4420   38.0170 C.3   256  0Z4256      0.1731
     18  C3        38.5900   21.6150   37.3970 C.2   256  0Z4256      0.2654
     19  O2        38.1910   21.7400   36.2420 O.2   256  0Z4256     -0.2711
     20  CB1       39.9830   23.8480   37.3740 C.3   256  0Z4256      0.0311
     21  CG1       41.0410   24.8200   37.9770 C.3   256  0Z4256      0.0022
     22  CD1       40.4360   26.1060   38.4180 C.3   256  0Z4256      0.0001
     23  CD2       41.4610   24.4040   39.3330 C.3   256  0Z4256      0.0001
     24  C11       37.5070   19.6690   38.1880 C.ar  256  0Z4256      0.0734
     25  N11       38.0760   20.8720   38.3950 N.am  256  0Z4256     -0.1778
     26  C21       36.7500   19.3150   37.0760 C.ar  256  0Z4256      0.0163
     27  C31       36.3940   17.9830   36.8960 C.ar  256  0Z4256     -0.0029
     28  C4        36.7790   17.0180   37.8240 C.ar  256  0Z4256     -0.0224
     29  C5        37.5040   17.3890   38.9220 C.ar  256  0Z4256     -0.0029
     30  C6        37.8600   18.6990   39.0980 C.ar  256  0Z4256      0.0163
     31  C1'       36.4700   15.5280   37.6480 C.3   256  0Z4256      0.0224
     32  C2'       36.6970   15.1050   36.1960 C.3   256  0Z4256      0.0047
     33  C3'       35.0870   15.2850   38.2240 C.3   256  0Z4256      0.0047
@<TRIPOS>BOND
     1     5     2    1
     2     3     1    2
     3     2     1    1
     4     2     6    1
     5     2     4    1
     6     1     7   am
     7    32    31    1
     8    19    18    2
     9    27    26   ar
    10    27    28   ar
    11    26    24   ar
    12     7     8    1
    13    20    21    1
    14    20    17    1
    15    18    17    1
    16    18    25   am
    17     8     9    1
    18     8    11    1
    19    16    17    1
    20    16     9   am
    21    31    28    1
    22    31    33    1
    23    28    29   ar
    24    14    15    1
    25    14    13    1
    26    12    13    1
    27    12    11    1
    28    21    22    1
    29    21    23    1
    30    24    25    1
    31    24    30   ar
    32     9    10    2
    33    29    30   ar
