@<TRIPOS>MOLECULE
1elc_0Z3_A_1.pdb
 36 37 0 0 0
SMALL
GASTEIGER

@<TRIPOS>ATOM
      1  C1        42.8050   20.7570   36.2120 C.2   256  0Z3256      0.3371
      2  C2        43.3350   22.1690   35.5980 C.3   256  0Z3256      0.4711
      3  O         43.2220   19.6600   35.7850 O.2   256  0Z3256     -0.2642
      4  F1        44.5760   22.5880   35.9040 F     256  0Z3256     -0.1620
      5  F2        43.3400   22.1380   34.2310 F     256  0Z3256     -0.1620
      6  F3        42.5450   23.2360   35.9070 F     256  0Z3256     -0.1620
      7  N         41.9850   20.7120   37.3110 N.am  256  0Z3256     -0.1907
      8  CA        41.1470   19.5470   37.7390 C.3   256  0Z3256      0.1730
      9  C         39.9350   20.2470   38.3590 C.2   256  0Z3256      0.2616
     10  O1        39.5500   20.1350   39.5140 O.2   256  0Z3256     -0.2715
     11  CB        41.6950   18.6340   38.8360 C.3   256  0Z3256      0.0311
     12  CG        41.7310   17.1930   38.3090 C.3   256  0Z3256      0.0038
     13  CD        42.0520   16.1940   39.4090 C.3   256  0Z3256      0.0206
     14  CE        42.4190   14.8100   38.8540 C.3   256  0Z3256      0.1093
     15  NZ        43.7640   14.7820   38.3030 N.3   256  0Z3256     -0.1314
     16  N1        39.2820   20.8490   37.3710 N.am  256  0Z3256     -0.1960
     17  CA1       38.3090   21.8990   37.4870 C.3   256  0Z3256      0.1774
     18  C3        36.8880   21.5760   36.9920 C.2   256  0Z3256      0.2657
     19  O2        36.1860   20.7300   37.5860 O.2   256  0Z3256     -0.2711
     20  CB1       39.0710   22.9630   36.7310 C.3   256  0Z3256      0.0574
     21  CG1       39.5100   24.0670   37.6060 C.ar  256  0Z3256     -0.0200
     22  CD1       40.4130   23.8390   38.6290 C.ar  256  0Z3256     -0.0042
     23  CD2       38.9750   25.3110   37.3900 C.ar  256  0Z3256     -0.0042
     24  CE1       40.7890   24.8850   39.4520 C.ar  256  0Z3256     -0.0003
     25  CE2       39.3470   26.3550   38.2160 C.ar  256  0Z3256     -0.0003
     26  CZ        40.2460   26.1450   39.2320 C.ar  256  0Z3256     -0.0000
     27  C11       35.5440   22.3810   35.1150 C.ar  256  0Z3256      0.0734
     28  N11       36.5460   22.4810   36.0050 N.am  256  0Z3256     -0.1778
     29  C21       35.2290   21.1470   34.5420 C.ar  256  0Z3256      0.0163
     30  C31       34.3760   21.0890   33.4530 C.ar  256  0Z3256     -0.0029
     31  C4        33.8090   22.2580   32.9150 C.ar  256  0Z3256     -0.0224
     32  C5        34.1070   23.5020   33.4970 C.ar  256  0Z3256     -0.0029
     33  C6        34.9690   23.5580   34.5920 C.ar  256  0Z3256      0.0163
     34  C1'       32.9050   22.1250   31.6650 C.3   256  0Z3256      0.0224
     35  C2'       33.7410   21.4370   30.5710 C.3   256  0Z3256      0.0047
     36  C3'       32.3370   23.4620   31.2430 C.3   256  0Z3256      0.0047
@<TRIPOS>BOND
     1    35    34    1
     2    36    34    1
     3    34    31    1
     4    31    30   ar
     5    31    32   ar
     6    30    29   ar
     7    32    33   ar
     8     5     2    1
     9    29    27   ar
    10    33    27   ar
    11    27    28    1
    12     2     4    1
    13     2     6    1
    14     2     1    1
    15     3     1    2
    16    28    18   am
    17     1     7   am
    18    20    17    1
    19    20    21    1
    20    18    17    1
    21    18    19    2
    22     7     8    1
    23    16    17    1
    24    16     9   am
    25    23    21   ar
    26    23    25   ar
    27    21    22   ar
    28     8     9    1
    29     8    11    1
    30    25    26   ar
    31    15    14    1
    32    12    11    1
    33    12    13    1
    34     9    10    2
    35    22    24   ar
    36    14    13    1
    37    26    24   ar
