@<TRIPOS>MOLECULE
1eld_0Z0_E_1.pdb
 33 34 0 0 0
SMALL
GASTEIGER

@<TRIPOS>ATOM
      1  C1        40.5660   23.9890   37.1550 C.2   256  0Z0256      0.3371
      2  C2        41.0790   25.0440   38.1940 C.3   256  0Z0256      0.4711
      3  O         39.8620   24.2650   36.1840 O.2   256  0Z0256     -0.2642
      4  F1        40.1680   26.0130   38.4550 F     256  0Z0256     -0.1620
      5  F2        42.1880   25.7120   37.8140 F     256  0Z0256     -0.1620
      6  F3        41.3470   24.4930   39.3840 F     256  0Z0256     -0.1620
      7  N         40.9700   23.1420   37.5630 N.am  256  0Z0256     -0.1903
      8  CA        40.6090   21.7700   37.2920 C.3   256  0Z0256      0.1773
      9  C         39.0940   21.4720   37.3760 C.2   256  0Z0256      0.2620
     10  O1        38.4750   21.6320   38.4420 O.2   256  0Z0256     -0.2715
     11  CB        41.5110   21.1280   38.2940 C.3   256  0Z0256      0.0574
     12  CG        41.2750   19.7220   38.7630 C.ar  256  0Z0256     -0.0200
     13  CD1       40.7010   18.7190   37.9480 C.ar  256  0Z0256     -0.0042
     14  CD2       41.7130   19.4170   40.0480 C.ar  256  0Z0256     -0.0042
     15  CE1       40.5660   17.4020   38.4320 C.ar  256  0Z0256     -0.0003
     16  CE2       41.5820   18.1070   40.5100 C.ar  256  0Z0256     -0.0003
     17  CZ        41.0150   17.1030   39.7210 C.ar  256  0Z0256     -0.0000
     18  N1        38.5180   21.0400   36.2340 N.am  256  0Z0256     -0.1963
     19  CA1       37.0740   20.7830   36.1130 C.3   256  0Z0256      0.1732
     20  C3        36.5670   19.5410   36.8410 C.2   256  0Z0256      0.2654
     21  O2        36.4060   18.4490   36.2810 O.2   256  0Z0256     -0.2711
     22  CB1       36.6840   20.6880   34.6270 C.3   256  0Z0256      0.0334
     23  N2        36.3590   19.8010   38.1430 N.am  256  0Z0256     -0.1778
     24  C11       35.9480   18.8160   38.9570 C.ar  256  0Z0256      0.0734
     25  C21       35.3280   19.1230   40.1680 C.ar  256  0Z0256      0.0165
     26  C31       34.9970   18.1190   41.0610 C.ar  256  0Z0256      0.0052
     27  C4        35.2730   16.7710   40.7610 C.ar  256  0Z0256      0.0715
     28  C5        35.8830   16.4730   39.5350 C.ar  256  0Z0256      0.0052
     29  C6        36.2220   17.4820   38.6430 C.ar  256  0Z0256      0.0165
     30  C7        34.9850   15.6300   41.8210 C.3   256  0Z0256      0.4186
     31  F11       34.8420   14.3280   41.4050 F     256  0Z0256     -0.1659
     32  F21       33.9390   15.8470   42.6480 F     256  0Z0256     -0.1659
     33  F31       36.0810   15.6460   42.6020 F     256  0Z0256     -0.1659
@<TRIPOS>BOND
     1    22    19    1
     2    19    18    1
     3    19    20    1
     4     3     1    2
     5    18     9   am
     6    21    20    2
     7    20    23   am
     8     1     7   am
     9     1     2    1
    10     8     9    1
    11     8     7    1
    12     8    11    1
    13     9    10    2
    14     5     2    1
    15    13    15   ar
    16    13    12   ar
    17    23    24    1
    18     2     4    1
    19     2     6    1
    20    11    12    1
    21    15    17   ar
    22    29    24   ar
    23    29    28   ar
    24    12    14   ar
    25    24    25   ar
    26    28    27   ar
    27    17    16   ar
    28    14    16   ar
    29    25    26   ar
    30    27    26   ar
    31    27    30    1
    32    31    30    1
    33    30    33    1
    34    30    32    1
