@<TRIPOS>MOLECULE
1ele_0QN_E_1.pdb
 29 29 0 0 0
SMALL
GASTEIGER

@<TRIPOS>ATOM
      1  C1        40.8590   23.4540   37.6320 C.2   256  0QN256      0.3371
      2  C2        41.3060   24.6440   38.5650 C.3   256  0QN256      0.4711
      3  O         40.2220   23.6390   36.5760 O.2   256  0QN256     -0.2642
      4  F1        41.9710   24.3170   39.6950 F     256  0QN256     -0.1620
      5  F2        42.1280   25.5110   37.9410 F     256  0QN256     -0.1620
      6  F3        40.2340   25.3420   38.9410 F     256  0QN256     -0.1620
      7  N         41.1110   22.2030   38.0830 N.am  256  0QN256     -0.1907
      8  CA        40.8200   21.0120   37.3320 C.3   256  0QN256      0.1729
      9  C         39.2950   20.8540   37.3190 C.2   256  0QN256      0.2616
     10  O1        38.6170   21.1530   38.3050 O.2   256  0QN256     -0.2715
     11  CB        41.6940   19.9010   38.0520 C.3   256  0QN256      0.0290
     12  CG1       41.0330   19.3510   39.2860 C.3   256  0QN256      0.0023
     13  CG2       42.0020   18.8020   37.0560 C.3   256  0QN256      0.0023
     14  N1        38.7360   20.5480   36.1290 N.am  256  0QN256     -0.1963
     15  CA1       37.2910   20.3340   36.0160 C.3   256  0QN256      0.1732
     16  C3        37.0260   18.9830   36.6670 C.2   256  0QN256      0.2654
     17  O2        37.4970   17.9290   36.2080 O.2   256  0QN256     -0.2711
     18  CB1       36.8060   20.2580   34.5640 C.3   256  0QN256      0.0334
     19  N2        36.3390   19.2080   37.8080 N.am  256  0QN256     -0.1778
     20  C11       36.0000   18.2370   38.6900 C.ar  256  0QN256      0.0734
     21  C21       35.3850   18.6370   39.8610 C.ar  256  0QN256      0.0165
     22  C31       35.0570   17.7240   40.8230 C.ar  256  0QN256      0.0052
     23  C4        35.3420   16.3720   40.6360 C.ar  256  0QN256      0.0715
     24  C5        35.9500   15.9680   39.4500 C.ar  256  0QN256      0.0052
     25  C6        36.2750   16.8880   38.4890 C.ar  256  0QN256      0.0165
     26  C7        35.0370   15.3260   41.7800 C.3   256  0QN256      0.4186
     27  F11       35.4180   14.0140   41.6140 F     256  0QN256     -0.1659
     28  F21       35.6500   15.7270   42.8940 F     256  0QN256     -0.1659
     29  F31       33.7330   15.3160   42.0820 F     256  0QN256     -0.1659
@<TRIPOS>BOND
     1    18    15    1
     2    15    14    1
     3    15    16    1
     4    14     9   am
     5    17    16    2
     6     3     1    2
     7    16    19   am
     8    13    11    1
     9     9     8    1
    10     9    10    2
    11     8    11    1
    12     8     7    1
    13     1     7   am
    14     1     2    1
    15    19    20    1
    16     5     2    1
    17    11    12    1
    18    25    20   ar
    19    25    24   ar
    20     2     6    1
    21     2     4    1
    22    20    21   ar
    23    24    23   ar
    24    21    22   ar
    25    23    22   ar
    26    23    26    1
    27    27    26    1
    28    26    29    1
    29    26    28    1
