@<TRIPOS>MOLECULE
1elf_BAF_A_1.pdb
 18 17 0 0 0
SMALL
GASTEIGER

@<TRIPOS>ATOM
      1  N3        43.4550   23.2530   35.0790 N.am  256  BAF256     -0.1774
      2  C1        43.8940   24.0240   36.1420 C.2   256  BAF256      0.3217
      3  O1        44.7230   24.8430   35.8960 O.2   256  BAF256     -0.2633
      4  CA1       44.3960   22.7400   34.0390 C.3   256  BAF256      0.1898
      5  CB1       45.5650   21.9370   34.6710 C.3   256  BAF256      0.0477
      6  N1        45.0320   23.6080   33.0290 N.am  256  BAF256     -0.1836
      7  C2        44.4440   23.6880   31.8360 C.2   256  BAF256      0.2628
      8  O2        43.4570   23.0590   31.5830 O.2   256  BAF256     -0.2714
      9  CA2       45.0330   24.5590   30.7050 C.3   256  BAF256      0.1762
     10  CB2       45.7140   25.8000   31.2270 C.3   256  BAF256      0.0335
     11  N2        44.1430   25.0220   29.6480 N.am  256  BAF256     -0.1611
     12  C3        44.7340   25.0060   28.4320 C.2   256  BAF256      0.4213
     13  O3        45.8470   24.5860   28.2720 O.2   256  BAF256     -0.2246
     14  O4        44.2180   25.8270   27.3380 O.3   256  BAF256     -0.4408
     15  C4        43.1340   25.3750   26.4930 C.3   256  BAF256      0.1379
     16  C41       42.9280   23.8450   26.4780 C.3   256  BAF256      0.0437
     17  C42       41.8350   26.0310   26.9680 C.3   256  BAF256      0.0437
     18  C43       43.4830   25.8080   25.0750 C.3   256  BAF256      0.0437
@<TRIPOS>BOND
     1    18    15    1
     2    16    15    1
     3    15    17    1
     4    15    14    1
     5    14    12    1
     6    13    12    2
     7    12    11   am
     8    11     9    1
     9     9    10    1
    10     9     7    1
    11     8     7    2
    12     7     6   am
    13     6     4    1
    14     4     5    1
    15     4     1    1
    16     1     2   am
    17     3     2    2
