@<TRIPOS>MOLECULE
1elg_BAA_A_1.pdb
 18 17 0 0 0
SMALL
GASTEIGER

@<TRIPOS>ATOM
      1  N3        43.5690   23.9530   36.3620 N.am  256  BAA256     -0.0863
      2  C1        43.6680   22.7410   35.7380 C.2   256  BAA256      0.2806
      3  O1        43.0480   21.8280   36.1740 O.2   256  BAA256     -0.2698
      4  CA1       44.4830   22.4100   34.4520 C.3   256  BAA256      0.1745
      5  CB1       45.6870   21.5340   34.8790 C.3   256  BAA256      0.0334
      6  N1        44.9880   23.3640   33.4460 N.am  256  BAA256     -0.1963
      7  C2        44.5880   23.3310   32.1380 C.2   256  BAA256      0.2617
      8  O2        43.6900   22.6180   31.8110 O.2   256  BAA256     -0.2715
      9  CA2       45.2050   24.2120   31.0380 C.3   256  BAA256      0.1762
     10  CB2       45.8230   25.5030   31.5540 C.3   256  BAA256      0.0335
     11  N2        44.3240   24.6400   29.9750 N.am  256  BAA256     -0.1611
     12  C3        44.8350   24.8260   28.7610 C.2   256  BAA256      0.4213
     13  O3        45.9950   24.5880   28.5220 O.2   256  BAA256     -0.2246
     14  O4        44.1010   25.8230   28.0120 O.3   256  BAA256     -0.4408
     15  C4        43.9460   25.7480   26.5830 C.3   256  BAA256      0.1379
     16  C41       43.6120   24.3220   26.0410 C.3   256  BAA256      0.0437
     17  C42       42.7450   26.6260   26.3150 C.3   256  BAA256      0.0437
     18  C43       45.1980   26.3470   25.9200 C.3   256  BAA256      0.0437
@<TRIPOS>BOND
     1    18    15    1
     2    16    15    1
     3    17    15    1
     4    15    14    1
     5    14    12    1
     6    13    12    2
     7    12    11   am
     8    11     9    1
     9     9    10    1
    10     9     7    1
    11     8     7    2
    12     7     6   am
    13     6     4    1
    14     4     5    1
    15     4     2    1
    16     2     3    2
    17     2     1   am
