@<TRIPOS>MOLECULE
1elj_GLC_A_1.pdb
 11 11 0 0 0
SMALL
GASTEIGER

@<TRIPOS>ATOM
      1  C1        37.1660   18.1930   12.4510 C.3   1002  GLC1002     0.1777
      2  C2        36.4540   17.7370   13.7260 C.3   1002  GLC1002     0.2141
      3  C3        37.3970   16.9520   14.6150 C.3   1002  GLC1002     0.2173
      4  C4        38.0840   15.8460   13.8150 C.3   1002  GLC1002     0.2142
      5  C5        38.7410   16.4140   12.5800 C.3   1002  GLC1002     0.1810
      6  C6        39.3460   15.3550   11.6780 C.3   1002  GLC1002     0.2141
      7  O2        35.9620   18.8900   14.4130 O.3   1002  GLC1002    -0.2176
      8  O3        36.6700   16.3610   15.6840 O.3   1002  GLC1002    -0.2175
      9  O4        39.1000   15.2560   14.6230 O.3   1002  GLC1002    -0.2176
     10  O5        37.7730   17.1130   11.7720 O.3   1002  GLC1002    -0.3481
     11  O6        40.3090   16.0260   10.8140 O.3   1002  GLC1002    -0.2176
@<TRIPOS>BOND
     1    11     6    1
     2     6     5    1
     3    10     1    1
     4    10     5    1
     5     1     2    1
     6     5     4    1
     7     2     7    1
     8     2     3    1
     9     4     3    1
    10     4     9    1
    11     3     8    1
