@<TRIPOS>MOLECULE
1elq_PLP_A_1.pdb
 15 15 0 0 0
SMALL
GASTEIGER

@<TRIPOS>ATOM
      1  N1       -58.8240  -11.2310  -26.7100 N.ar  400  PLP400     -0.2452
      2  C2       -59.6880  -12.0570  -25.9470 C.ar  400  PLP400      0.0978
      3  C2A      -60.2110  -13.2980  -26.6800 C.3   400  PLP400      0.0555
      4  C3       -59.8530  -11.6890  -24.5470 C.ar  400  PLP400      0.2049
      5  O3       -60.6800  -12.4880  -23.8300 O.3   400  PLP400     -0.2857
      6  C4       -59.1690  -10.5780  -24.0390 C.ar  400  PLP400      0.0182
      7  C4A      -59.3440  -10.3370  -22.6200 C.3   400  PLP400      0.0342
      8  C5       -58.2980   -9.7690  -24.9460 C.ar  400  PLP400      0.0261
      9  C6       -58.1240  -10.1170  -26.2770 C.ar  400  PLP400      0.0965
     10  C5A      -57.6970   -8.4590  -24.3920 C.3   400  PLP400      0.1815
     11  O4P      -56.5780   -8.7020  -23.5780 O.3   400  PLP400     -0.2653
     12  P        -55.5580   -7.5120  -23.2110 P.3   400  PLP400      0.5329
     13  O1P      -56.3000   -6.4190  -22.4900 O.3   400  PLP400     -0.1145
     14  O2P      -55.0590   -7.1720  -24.5470 O.2   400  PLP400     -0.2224
     15  O3P      -54.6060   -8.3080  -22.3570 O.3   400  PLP400     -0.1145
@<TRIPOS>BOND
     1     1     9   ar
     2     1     2   ar
     3     3     2    1
     4     9     8   ar
     5     2     4   ar
     6     8    10    1
     7     8     6   ar
     8     4     6   ar
     9     4     5    1
    10    14    12    2
    11    10    11    1
    12     6     7    1
    13    11    12    1
    14    12    13    1
    15    12    15    1
