@<TRIPOS>MOLECULE
1elr_III_B_1.pdb
 45 44 0 0 0
SMALL
GASTEIGER

@<TRIPOS>ATOM
      1  C         29.7870    6.1460   14.2530 C.2     0  ACE0        0.2423
      2  O         29.5220    5.6090   13.1770 O.2     0  ACE0       -0.2733
      3  CH3       31.0170    7.0030   14.4080 C.3     0  ACE0        0.0964
      4  N         29.0240    6.0220   15.3310 N.am    1  MET1       -0.1977
      5  CA        27.8120    5.2070   15.3320 C.3     1  MET1        0.1736
      6  C         26.6740    5.8570   14.5360 C.2     1  MET1        0.2616
      7  O         26.6340    7.0800   14.3640 O.2     1  MET1       -0.2715
      8  CB        27.3210    5.0030   16.7750 C.3     1  MET1        0.0427
      9  CG        28.3160    4.3950   17.7330 C.3     1  MET1        0.0599
     10  SD        27.6370    4.3870   19.4090 S.3     1  MET1       -0.1393
     11  CE        26.4770    3.0390   19.2830 C.3     1  MET1        0.0692
     12  N         25.7430    5.0300   14.0640 N.am    2  GLU2       -0.1963
     13  CA        24.5780    5.5300   13.3420 C.3     2  GLU2        0.1733
     14  C         23.8740    6.5100   14.2830 C.2     2  GLU2        0.2616
     15  O         23.8990    6.3250   15.4980 O.2     2  GLU2       -0.2715
     16  CB        23.6290    4.3700   12.9940 C.3     2  GLU2        0.0429
     17  CG        24.1060    3.5000   11.8420 C.3     2  GLU2        0.1163
     18  CD        24.1450    4.2770   10.5440 C.2     2  GLU2        0.3649
     19  OE1       23.0660    4.5980   10.0060 O.co2   2  GLU2       -0.2457
     20  OE2       25.2520    4.5890   10.0680 O.co2   2  GLU2       -0.2457
     21  N         23.2470    7.5410   13.7280 N.am    3  GLU3       -0.1963
     22  CA        22.5480    8.5480   14.5320 C.3     3  GLU3        0.1733
     23  C         21.1190    8.1540   14.8850 C.2     3  GLU3        0.2616
     24  O         20.3790    7.6990   14.0230 O.2     3  GLU3       -0.2715
     25  CB        22.4880    9.8810   13.7700 C.3     3  GLU3        0.0429
     26  CG        23.8170   10.6070   13.6400 C.3     3  GLU3        0.1163
     27  CD        23.7290   11.8320   12.7290 C.2     3  GLU3        0.3649
     28  OE1       22.7620   12.6220   12.8640 O.co2   3  GLU3       -0.2457
     29  OE2       24.6360   12.0030   11.8820 O.co2   3  GLU3       -0.2457
     30  N         20.7260    8.3320   16.1460 N.am    4  VAL4       -0.1963
     31  CA        19.3450    8.0420   16.5340 C.3     4  VAL4        0.1727
     32  C         18.6250    9.3680   16.7440 C.2     4  VAL4        0.2617
     33  O         19.2470   10.3740   17.1100 O.2     4  VAL4       -0.2715
     34  CB        19.2250    7.1830   17.8150 C.3     4  VAL4        0.0290
     35  CG1       19.6210    5.7350   17.5080 C.3     4  VAL4        0.0023
     36  CG2       20.0750    7.7570   18.9310 C.3     4  VAL4        0.0023
     37  N         17.3160    9.3620   16.5120 N.am    5  ASP5       -0.1936
     38  CA        16.4950   10.5580   16.6300 C.3     5  ASP5        0.2090
     39  C         15.5980   10.5480   17.8720 C.2     5  ASP5        0.3848
     40  O         15.4870    9.4870   18.5080 O.co2   5  ASP5       -0.2437
     41  CB        15.6340   10.6840   15.3730 C.3     5  ASP5        0.1472
     42  CG        16.4670   10.7630   14.1100 C.2     5  ASP5        0.3672
     43  OD1       17.1010   11.8130   13.8980 O.co2   5  ASP5       -0.2456
     44  OD2       16.5050    9.7720   13.3360 O.co2   5  ASP5       -0.2456
     45  OXT       15.0060   11.6050   18.1750 O.co2   5  ASP5       -0.2437
@<TRIPOS>BOND
     1    19    18   ar
     2    20    18   ar
     3    18    17    1
     4    17    16    1
     5    29    27   ar
     6    27    28   ar
     7    27    26    1
     8    16    13    1
     9     2     1    2
    10    44    42   ar
    11    13    12    1
    12    13    14    1
    13    26    25    1
    14    21    14   am
    15    21    22    1
    16    25    22    1
    17    43    42   ar
    18    24    23    2
    19    12     6   am
    20    42    41    1
    21     1     3    1
    22     1     4   am
    23    14    15    2
    24     7     6    2
    25    22    23    1
    26     6     5    1
    27    23    30   am
    28     4     5    1
    29     5     8    1
    30    41    38    1
    31    30    31    1
    32    37    38    1
    33    37    32   am
    34    31    32    1
    35    31    34    1
    36    38    39    1
    37    32    33    2
    38     8     9    1
    39    35    34    1
    40     9    10    1
    41    34    36    1
    42    39    45   ar
    43    39    40   ar
    44    11    10    1
