@<TRIPOS>MOLECULE
1elu_PDA_A_1.pdb
 21 21 0 0 0
SMALL
GASTEIGER

@<TRIPOS>ATOM
      1  N        -61.1320  -10.4510  -22.5260 N.2   400  PDA400     -0.2593
      2  N1       -58.5770  -11.3650  -26.7940 N.ar  400  PDA400     -0.2452
      3  C2       -59.5310  -12.1950  -26.1180 C.ar  400  PDA400      0.0981
      4  C2A      -59.9950  -13.4020  -26.9580 C.3   400  PDA400      0.0555
      5  C3       -59.9990  -11.7940  -24.7560 C.ar  400  PDA400      0.2103
      6  O3A      -60.9100  -12.5500  -24.0860 O.3   400  PDA400     -0.2853
      7  C4       -59.4540  -10.5230  -24.1590 C.ar  400  PDA400      0.0587
      8  C4A      -59.8790  -10.1140  -22.9200 C.2   400  PDA400      0.0967
      9  C5       -58.4770   -9.7350  -24.9510 C.ar  400  PDA400      0.0316
     10  C5A      -57.8860   -8.3790  -24.4850 C.3   400  PDA400      0.1819
     11  OP4      -57.0340   -8.4890  -23.3780 O.3   400  PDA400     -0.2653
     12  P        -55.7470   -7.5700  -23.2800 P.3   400  PDA400      0.5329
     13  OP1      -56.1200   -6.3290  -22.5090 O.3   400  PDA400     -0.1145
     14  OP2      -55.1810   -7.2270  -24.6200 O.2   400  PDA400     -0.2224
     15  OP3      -54.8300   -8.4520  -22.4760 O.3   400  PDA400     -0.1145
     16  C6       -58.0540  -10.1870  -26.2650 C.ar  400  PDA400      0.0968
     17  CA       -61.7990  -10.0260  -21.4250 C.3   400  PDA400      0.2057
     18  CB       -61.4420   -8.9030  -20.6960 C.3   400  PDA400      0.0385
     19  C        -62.9310  -10.7700  -21.0810 C.2   400  PDA400      0.3866
     20  O        -63.5440  -10.6010  -19.9340 O.co2 400  PDA400     -0.2435
     21  OXT      -63.4040  -11.6060  -21.9720 O.co2 400  PDA400     -0.2435
@<TRIPOS>BOND
     1     4     3    1
     2     2    16   ar
     3     2     3   ar
     4    16     9   ar
     5     3     5   ar
     6     9    10    1
     7     9     7   ar
     8     5     7   ar
     9     5     6    1
    10    14    12    2
    11    10    11    1
    12     7     8    1
    13    11    12    1
    14    12    13    1
    15    12    15    1
    16     8     1    2
    17     1    17    1
    18    21    19   ar
    19    17    19    1
    20    17    18    1
    21    19    20   ar
