@<TRIPOS>MOLECULE
1elv_FUC_A_1.pdb
 10 10 0 0 0
SMALL
GASTEIGER

@<TRIPOS>ATOM
      1  C1        -1.6680   -4.0740   55.2350 C.3   1003  FUC1003     0.1776
      2  C2        -1.2160   -5.2330   56.0110 C.3   1003  FUC1003     0.2141
      3  C3         0.0590   -5.9240   55.4790 C.3   1003  FUC1003     0.2172
      4  C4         1.3440   -4.9790   55.6730 C.3   1003  FUC1003     0.2116
      5  C5         0.4330   -3.3960   54.9740 C.3   1003  FUC1003     0.1483
      6  C6         1.8150   -2.4710   55.1570 C.3   1003  FUC1003     0.0349
      7  O2        -2.2090   -6.2130   55.7730 O.3   1003  FUC1003    -0.2176
      8  O3         0.5690   -7.2270   56.2480 O.3   1003  FUC1003    -0.2175
      9  O4         1.3610   -4.5700   57.0940 O.3   1003  FUC1003    -0.2177
     10  O5        -0.6660   -3.1810   55.2940 O.3   1003  FUC1003    -0.3508
@<TRIPOS>BOND
     1     5     6    1
     2     5    10    1
     3     5     4    1
     4     1    10    1
     5     1     2    1
     6     3     4    1
     7     3     2    1
     8     3     8    1
     9     4     9    1
    10     7     2    1
