@<TRIPOS>MOLECULE
1elv_NES_A_1.pdb
 14 13 0 0 0
SMALL
GASTEIGER

@<TRIPOS>ATOM
      1  N4         7.8210   16.1400   13.4560 N.3   2003  NES2003    -0.2113
      2  C7         7.2760   16.9080   14.5800 C.3   2003  NES2003     0.1103
      3  C8         7.4810   16.1270   15.7960 C.3   2003  NES2003     0.1240
      4  S          6.1560   14.9260   15.9180 S.3   2003  NES2003    -0.1946
      5  O1S        5.7910   14.6350   14.5370 O.3   2003  NES2003    -0.3074
      6  O2S        5.1040   15.5810   16.6540 O.3   2003  NES2003    -0.3074
      7  O3S        6.7740   13.7960   16.5860 O.3   2003  NES2003    -0.3074
      8  O1        10.4310   16.3350   12.0530 O.3   2003  NES2003    -0.2187
      9  C2         9.4690   17.3690   12.2160 C.3   2003  NES2003     0.2031
     10  C3         7.9990   16.8790   12.1970 C.3   2003  NES2003     0.1508
     11  C4         6.8790   17.9860   12.3060 C.3   2003  NES2003     0.2031
     12  O5         5.5290   17.4270   12.2470 O.3   2003  NES2003    -0.2187
     13  C6         7.7400   16.0300   10.9130 C.3   2003  NES2003     0.2031
     14  O7         7.7030   16.7430    9.6590 O.3   2003  NES2003    -0.2187
@<TRIPOS>BOND
     1    14    13    1
     2    13    10    1
     3     8     9    1
     4    10     9    1
     5    10    11    1
     6    10     1    1
     7    12    11    1
     8     1     2    1
     9     5     4    1
    10     2     3    1
    11     3     4    1
    12     4     7    1
    13     4     6    1
