@<TRIPOS>MOLECULE
1em6_NBG_A_1.pdb
 15 15 0 0 0
SMALL
GASTEIGER

@<TRIPOS>ATOM
      1  C1        11.7220   24.4220   97.2030 C.3   861  NBG861      0.2446
      2  C2        11.9160   23.3300   98.3110 C.3   861  NBG861      0.2326
      3  C3        10.6690   22.3670   98.4120 C.3   861  NBG861      0.2190
      4  C4         9.3590   23.1800   98.5240 C.3   861  NBG861      0.2144
      5  C5         9.2540   24.1920   97.3470 C.3   861  NBG861      0.1828
      6  C6         8.0040   25.0710   97.4530 C.3   861  NBG861      0.2142
      7  C7        13.4040   26.0010   96.3300 C.2   861  NBG861      0.2440
      8  C8        14.4880   26.9950   96.6600 C.3   861  NBG861      0.0965
      9  N1        12.7210   25.4700   97.3760 N.am  861  NBG861     -0.1751
     10  O3        10.7830   21.4800   99.5450 O.3   861  NBG861     -0.2174
     11  O2        13.1160   22.5860   98.0900 O.3   861  NBG861     -0.2157
     12  O4         8.2110   22.3130   98.5440 O.3   861  NBG861     -0.2176
     13  O5        10.4250   25.0550   97.3350 O.3   861  NBG861     -0.3315
     14  O6         7.8840   25.6450   98.7640 O.3   861  NBG861     -0.2176
     15  O7        13.1900   25.7150   95.1530 O.2   861  NBG861     -0.2733
@<TRIPOS>BOND
     1    15     7    2
     2     7     8    1
     3     7     9   am
     4     1    13    1
     5     1     9    1
     6     1     2    1
     7    13     5    1
     8     5     6    1
     9     5     4    1
    10     6    14    1
    11    11     2    1
    12     2     3    1
    13     3     4    1
    14     3    10    1
    15     4    12    1
