@<TRIPOS>MOLECULE
1em6_PLP_A_1.pdb
 15 15 0 0 0
SMALL
GASTEIGER

@<TRIPOS>ATOM
      1  N1         8.9900   18.8920   89.3500 N.ar  860  PLP860     -0.2452
      2  C2         7.7830   18.6540   88.7660 C.ar  860  PLP860      0.0978
      3  C2A        7.7490   18.4360   87.2530 C.3   860  PLP860      0.0555
      4  C3         6.6180   18.5960   89.5560 C.ar  860  PLP860      0.2049
      5  O3         5.4170   18.3160   88.9630 O.3   860  PLP860     -0.2857
      6  C4         6.6950   18.7860   90.9410 C.ar  860  PLP860      0.0182
      7  C4A        5.5120   18.7850   91.7330 C.3   860  PLP860      0.0342
      8  C5         7.9680   19.0160   91.5060 C.ar  860  PLP860      0.0261
      9  C6         9.0630   19.0640   90.7030 C.ar  860  PLP860      0.0965
     10  C5A        8.2210   19.1530   93.0270 C.3   860  PLP860      0.1815
     11  O4P        8.5780   17.8140   93.4720 O.3   860  PLP860     -0.2653
     12  P          9.1560   17.4800   94.9240 P.3   860  PLP860      0.5329
     13  O1P       10.4660   18.1440   94.9230 O.3   860  PLP860     -0.1145
     14  O2P        9.2040   15.9970   94.8530 O.2   860  PLP860     -0.2224
     15  O3P        8.1740   18.0660   95.8440 O.3   860  PLP860     -0.1145
@<TRIPOS>BOND
     1     3     2    1
     2     2     1   ar
     3     2     4   ar
     4     5     4    1
     5     1     9   ar
     6     4     6   ar
     7     9     8   ar
     8     6     8   ar
     9     6     7    1
    10     8    10    1
    11    10    11    1
    12    11    12    1
    13    14    12    2
    14    13    12    1
    15    12    15    1
