@<TRIPOS>MOLECULE
1em6_CP4_A_1.pdb
 34 37 0 0 0
SMALL
GASTEIGER

@<TRIPOS>ATOM
      1  C0        -6.1280   35.0740   73.0490 C.ar  862  CP4862      0.0331
      2  C1        -4.8670   34.6920   73.5100 C.ar  862  CP4862      0.1317
      3  C2        -5.8140   35.7050   71.7150 C.2   862  CP4862      0.0394
      4  C3        -7.3100   34.8440   73.7970 C.ar  862  CP4862      0.0140
      5  N4        -3.9470   35.0350   72.5920 N.2   862  CP4862     -0.3972
      6  C5        -4.7000   34.0420   74.7690 C.ar  862  CP4862      0.0329
      7  C6        -4.4840   35.6220   71.5460 C.2   862  CP4862      0.1862
      8  C7        -7.1730   34.1980   75.0640 C.ar  862  CP4862      0.0578
      9  C8        -5.8840   33.8020   75.5470 C.ar  862  CP4862      0.0140
     10  C9        -3.6730   36.1100   70.3930 C.2   862  CP4862      0.2946
     11 CL10       -8.5880   33.8840   76.0230 Cl    862  CP4862     -0.0822
     12  N11       -4.2650   36.7460   69.3280 N.am  862  CP4862     -0.1968
     13  O12       -2.4520   35.9340   70.4660 O.2   862  CP4862     -0.2656
     14  C13       -3.4750   37.3030   68.2180 C.3   862  CP4862      0.1475
     15  C14       -3.6630   36.5930   66.8670 C.3   862  CP4862      0.1656
     16  O15       -3.0110   35.3100   67.0030 O.3   862  CP4862     -0.3492
     17  C16       -1.6740   35.2240   66.4440 C.3   862  CP4862      0.1742
     18  C17       -1.4970   33.7590   65.9740 C.3   862  CP4862      0.1742
     19  O18       -2.4980   33.4600   64.9830 O.3   862  CP4862     -0.3492
     20  C19       -2.9110   32.0760   64.9520 C.3   862  CP4862      0.1656
     21  C20       -2.2180   31.3660   63.7530 C.3   862  CP4862      0.1475
     22  N21       -2.7510   31.7670   62.4360 N.am  862  CP4862     -0.1968
     23  C22       -2.0580   32.5990   61.6040 C.2   862  CP4862      0.2946
     24  C23       -2.5830   32.9810   60.2520 C.2   862  CP4862      0.1862
     25  O24       -0.9590   33.0560   61.9080 O.2   862  CP4862     -0.2656
     26  N25       -1.8460   33.6570   59.3900 N.2   862  CP4862     -0.3972
     27  C26       -3.7930   32.7110   59.7020 C.2   862  CP4862      0.0394
     28  C27       -2.5020   33.8780   58.2300 C.ar  862  CP4862      0.1317
     29  C28       -3.7850   33.3100   58.3180 C.ar  862  CP4862      0.0331
     30  C29       -2.0660   34.5620   57.0560 C.ar  862  CP4862      0.0329
     31  C30       -4.7110   33.3750   57.2460 C.ar  862  CP4862      0.0140
     32  C31       -2.9880   34.6370   55.9630 C.ar  862  CP4862      0.0140
     33  C32       -4.2950   34.0490   56.0560 C.ar  862  CP4862      0.0578
     34 CL33       -5.3900   34.1520   54.7060 Cl    862  CP4862     -0.0822
@<TRIPOS>BOND
     1    34    33    1
     2    32    33   ar
     3    32    30   ar
     4    33    31   ar
     5    30    28   ar
     6    31    29   ar
     7    28    29   ar
     8    28    26    2
     9    29    27    2
    10    26    24    2
    11    27    24    1
    12    24    23    1
    13    23    25    2
    14    23    22   am
    15    22    21    1
    16    21    20    1
    17    20    19    1
    18    19    18    1
    19    18    17    1
    20    17    16    1
    21    15    16    1
    22    15    14    1
    23    14    12    1
    24    12    10   am
    25    10    13    2
    26    10     7    1
    27     7     3    1
    28     7     5    2
    29     3     1    2
    30     5     2    2
    31     1     2   ar
    32     1     4   ar
    33     2     6   ar
    34     4     8   ar
    35     6     9   ar
    36     8     9   ar
    37     8    11    1
