@<TRIPOS>MOLECULE
1emd_CIT_A_1.pdb
 13 12 0 0 0
SMALL
GASTEIGER

@<TRIPOS>ATOM
      1  C1         5.4260   -7.6080   15.7200 C.2   313  CIT313      0.3680
      2  O1         4.7600   -7.2920   16.6960 O.co2 313  CIT313     -0.2455
      3  O2         5.7100   -8.7830   15.4700 O.co2 313  CIT313     -0.2455
      4  C2         5.2200   -6.6910   14.5720 C.3   313  CIT313      0.1560
      5  C3         5.8650   -5.2680   14.9340 C.3   313  CIT313      0.2402
      6  O7         7.1500   -5.3790   15.6680 O.3   313  CIT313     -0.2129
      7  C4         6.2200   -4.4010   13.6660 C.3   313  CIT313      0.1560
      8  C5         6.8720   -5.3500   12.8110 C.2   313  CIT313      0.3680
      9  O3         7.7410   -6.0110   13.3440 O.co2 313  CIT313     -0.2455
     10  O4         6.5060   -5.7330   11.5360 O.co2 313  CIT313     -0.2455
     11  C6         4.8330   -4.5640   15.6970 C.2   313  CIT313      0.3927
     12  O5         5.2620   -3.9410   16.7220 O.co2 313  CIT313     -0.2429
     13  O6         3.6690   -4.6400   15.1740 O.co2 313  CIT313     -0.2429
@<TRIPOS>BOND
     1    10     8   ar
     2     8     9   ar
     3     8     7    1
     4     7     5    1
     5     4     5    1
     6     4     1    1
     7     5     6    1
     8     5    11    1
     9    13    11   ar
    10     3     1   ar
    11    11    12   ar
    12     1     2   ar
