@<TRIPOS>MOLECULE
1emd_NAD_A_1.pdb
 44 48 0 0 0
SMALL
GASTEIGER

@<TRIPOS>ATOM
      1  PA         6.4050  -11.1300    4.9540 P.3   314  NAD314      0.2189
      2  O1A        6.5960  -12.5840    5.1800 O.3   314  NAD314     -0.4371
      3  O2A        5.1640  -10.6310    4.3500 O.2   314  NAD314     -0.5170
      4  O5B        7.6980  -10.3750    4.2740 O.3   314  NAD314     -0.3112
      5  C5B        9.1000  -10.7520    4.4240 C.3   314  NAD314      0.1813
      6  C4B        9.9080  -10.8150    3.1120 C.3   314  NAD314      0.1821
      7  O4B       11.2450  -11.2560    3.4170 O.3   314  NAD314     -0.3135
      8  C3B        9.3770  -11.8520    2.1020 C.3   314  NAD314      0.2184
      9  O3B        8.9180  -11.3000    0.8640 O.3   314  NAD314     -0.2174
     10  C2B       10.5160  -12.8280    1.8560 C.3   314  NAD314      0.2570
     11  O2B       10.5320  -13.4670    0.5580 O.3   314  NAD314     -0.2130
     12  C1B       11.6420  -11.8880    2.1990 C.3   314  NAD314      0.3186
     13  N9A       12.9460  -12.5480    2.2940 N.pl3 314  NAD314     -0.1439
     14  C8A       13.4030  -13.4550    3.1860 C.3   314  NAD314      0.3377
     15  N7A       14.7460  -13.5030    3.1700 N.2   314  NAD314     -0.2095
     16  C5A       15.0760  -12.5980    2.2490 C.2   314  NAD314      0.2526
     17  C6A       16.3470  -12.1150    2.0030 C.2   314  NAD314      0.4393
     18  N6A       17.4650  -12.7330    2.3070 N.pl3 314  NAD314      0.2180
     19  N1A       16.4060  -11.0540    1.1950 N.2   314  NAD314      0.0021
     20  C2A       15.3230  -10.5310    0.6340 C.3   314  NAD314      0.5254
     21  N3A       14.1020  -10.9970    0.8170 N.2   314  NAD314     -0.0055
     22  C4A       13.9720  -12.0180    1.6680 C.2   314  NAD314      0.3518
     23  O3         6.4700  -10.5850    6.4420 O.3   314  NAD314     -0.2703
     24  PN         6.5740   -9.0670    6.8990 P.3   314  NAD314      0.2189
     25  O1N        5.4040   -8.7040    7.7400 O.3   314  NAD314     -0.4371
     26  O2N        6.7700   -8.1910    5.7170 O.2   314  NAD314     -0.5170
     27  O5D        7.8690   -9.3940    7.8480 O.3   314  NAD314     -0.3112
     28  C5D        8.7650   -8.3410    8.2250 C.3   314  NAD314      0.1813
     29  C4D        9.9650   -8.6160    9.1260 C.3   314  NAD314      0.1799
     30  O4D       10.3200   -7.2900    9.5890 O.3   314  NAD314     -0.3327
     31  C3D        9.6430   -9.3730   10.4160 C.3   314  NAD314      0.2158
     32  O3D       10.8030   -9.8310   11.1320 O.3   314  NAD314     -0.2175
     33  C2D        8.9830   -8.2820   11.2580 C.3   314  NAD314      0.2309
     34  O2D        8.6930   -8.7600   12.6020 O.3   314  NAD314     -0.2158
     35  C1D       10.0800   -7.2270   11.0220 C.3   314  NAD314      0.2263
     36  N1N        9.7470   -5.8370   11.3530 N.pl3 314  NAD314     -0.2787
     37  C2N       10.0080   -5.1470   12.5600 C.3   314  NAD314      0.1244
     38  C3N        9.6290   -3.8160   12.7170 C.2   314  NAD314      0.0544
     39  C7N        9.8790   -3.0320   13.9770 C.2   314  NAD314      0.2818
     40  O7N        9.1850   -2.0660   14.2890 O.2   314  NAD314     -0.2670
     41  N7N       10.9250   -3.4360   14.6470 N.am  314  NAD314     -0.0839
     42  C4N        8.9130   -3.1780   11.7540 C.2   314  NAD314      0.0033
     43  C5N        8.5840   -3.8710   10.6030 C.2   314  NAD314      0.0157
     44  C6N        9.0150   -5.1780   10.3980 C.2   314  NAD314      0.0633
@<TRIPOS>BOND
     1    11    10    1
     2    20    21    1
     3    20    19    1
     4    21    22    2
     5     9     8    1
     6    19    17    2
     7    22    16    1
     8    22    13    1
     9    10     8    1
    10    10    12    1
    11    17    16    1
    12    17    18    1
    13     8     6    1
    14    12    13    1
    15    12     7    1
    16    16    15    2
    17    13    14    1
    18     6     7    1
    19     6     5    1
    20    15    14    1
    21     4     5    1
    22     4     1    1
    23     3     1    2
    24     1     2    1
    25     1    23    1
    26    26    24    2
    27    23    24    1
    28    24    25    1
    29    24    27    1
    30    27    28    1
    31    28    29    1
    32    29    30    1
    33    29    31    1
    34    30    35    1
    35    44    43    2
    36    44    36    1
    37    31    32    1
    38    31    33    1
    39    43    42    1
    40    35    33    1
    41    35    36    1
    42    33    34    1
    43    36    37    1
    44    42    38    2
    45    37    38    1
    46    38    39    1
    47    39    40    2
    48    39    41   am
