@<TRIPOS>MOLECULE
1emy_HEM_A_1.pdb
 43 50 0 0 0
SMALL
GASTEIGER

@<TRIPOS>ATOM
      1 FE         20.1280   33.8910   26.8520 Fe    154  HEM154      0.0000
      2  CHA       22.8430   35.7010   25.6230 C.2   154  HEM154      0.0000
      3  CHB       20.4250   35.5270   29.8280 C.2   154  HEM154      0.0000
      4  CHC       17.8110   31.8100   28.2290 C.2   154  HEM154      0.0000
      5  CHD       20.0390   32.1360   24.0070 C.2   154  HEM154      0.0000
      6  NA        21.2670   35.3520   27.5030 N.2   154  HEM154      0.0000
      7  C1A       22.2910   36.0290   26.8720 C.2   154  HEM154      0.0000
      8  C2A       22.8230   37.0590   27.7140 C.2   154  HEM154      0.0000
      9  C3A       22.1080   37.0420   28.8430 C.2   154  HEM154      0.0000
     10  C4A       21.3080   35.8330   28.8180 C.2   154  HEM154      0.0000
     11  CMA       22.3200   37.8230   30.1780 C.3   154  HEM154      0.0000
     12  CAA       23.8550   38.1280   27.2580 C.3   154  HEM154      0.0000
     13  CBA       23.1920   39.4860   26.9060 C.3   154  HEM154      0.0000
     14  CGA       22.1540   39.4290   25.7970 C.2   154  HEM154      0.0000
     15  O1A       22.5730   39.1560   24.6680 O.co2 154  HEM154      0.0000
     16  O2A       20.8940   39.5450   26.0240 O.co2 154  HEM154      0.0000
     17  NB        19.2390   33.7180   28.6690 N.ar  154  HEM154      0.0000
     18  C1B       19.4780   34.5050   29.8060 C.ar  154  HEM154      0.0000
     19  C2B       18.6920   34.0290   30.9220 C.ar  154  HEM154      0.0000
     20  C3B       17.9710   32.9870   30.4830 C.ar  154  HEM154      0.0000
     21  C4B       18.2650   32.8240   29.0530 C.ar  154  HEM154      0.0000
     22  CMB       18.6300   34.7410   32.2840 C.3   154  HEM154      0.0000
     23  CAB       16.8470   32.2190   31.1650 C.2   154  HEM154      0.0000
     24  CBB       16.9030   31.9260   32.4510 C.2   154  HEM154      0.0000
     25  NC        19.0670   32.2940   26.2180 N.2   154  HEM154      0.0000
     26  C1C       18.1880   31.5020   26.9270 C.2   154  HEM154      0.0000
     27  C2C       17.7230   30.3990   26.0730 C.2   154  HEM154      0.0000
     28  C3C       18.3210   30.5070   24.8960 C.2   154  HEM154      0.0000
     29  C4C       19.1460   31.6910   24.9570 C.2   154  HEM154      0.0000
     30  CMC       16.6960   29.3970   26.5970 C.3   154  HEM154      0.0000
     31  CAC       18.5040   29.4950   23.7550 C.2   154  HEM154      0.0000
     32  CBC       17.8770   28.3410   23.6780 C.2   154  HEM154      0.0000
     33  ND        21.0970   34.0440   25.1580 N.ar  154  HEM154      0.0000
     34  C1D       20.8850   33.2050   24.0460 C.ar  154  HEM154      0.0000
     35  C2D       21.8390   33.5020   22.9970 C.ar  154  HEM154      0.0000
     36  C3D       22.6240   34.5060   23.4440 C.ar  154  HEM154      0.0000
     37  C4D       22.2290   34.7920   24.8200 C.ar  154  HEM154      0.0000
     38  CMD       21.7440   32.8970   21.5820 C.3   154  HEM154      0.0000
     39  CAD       23.9540   35.0130   22.8260 C.3   154  HEM154      0.0000
     40  CBD       25.1080   33.9760   23.0710 C.3   154  HEM154      0.0000
     41  CGD       26.3960   34.5160   22.4370 C.3   154  HEM154      0.0000
     42  O1D       26.7920   35.6190   22.9580 O.2   154  HEM154      0.0000
     43  O2D       26.4420   34.5380   21.1660 O.2   154  HEM154      0.0000
@<TRIPOS>BOND
     1    43    41    1
     2    38    35    1
     3    41    42    1
     4    41    40    1
     5    39    40    1
     6    39    36    1
     7    35    36   ar
     8    35    34   ar
     9    36    37   ar
    10    32    31    2
    11    31    28    1
    12     5    34    2
    13     5    29    1
    14    34    33   ar
    15    15    14   ar
    16    37    33   ar
    17    37     2    2
    18    28    29    1
    19    28    27    2
    20    29    25    2
    21    33     1    1
    22     2     7    1
    23    14    16   ar
    24    14    13    1
    25    27    30    1
    26    27    26    1
    27    25     1    1
    28    25    26    1
    29     1     6    1
    30     1    17    1
    31     7     6    2
    32     7     8    1
    33    13    12    1
    34    26     4    2
    35    12     8    1
    36     6    10    1
    37     8     9    2
    38     4    21    1
    39    17    21   ar
    40    17    18   ar
    41    10     9    1
    42    10     3    2
    43     9    11    1
    44    21    20   ar
    45    18     3    1
    46    18    19   ar
    47    20    19   ar
    48    20    23    1
    49    19    22    1
    50    23    24    2
