@<TRIPOS>MOLECULE
1en2_NAG_A_1.pdb
 14 14 0 0 0
SMALL
GASTEIGER

@<TRIPOS>ATOM
      1  C1         2.8450    5.7300    8.4100 C.3    90  NAG90       0.1665
      2  C2         2.9800    4.6000    7.3460 C.3    90  NAG90       0.1576
      3  C3         2.1750    3.4110    7.7930 C.3    90  NAG90       0.2069
      4  C4         2.7740    2.9280    9.1660 C.3    90  NAG90       0.2134
      5  C5         2.6700    4.1220   10.1670 C.3    90  NAG90       0.1809
      6  C6         3.3740    3.7150   11.4710 C.3    90  NAG90       0.2141
      7  C7         3.3480    5.4670    5.0490 C.2    90  NAG90       0.2420
      8  C8         2.7070    6.2190    3.9300 C.3    90  NAG90       0.0964
      9  N2         2.4770    5.1160    6.0440 N.am   90  NAG90      -0.2019
     10  O3         2.4040    2.3420    6.8490 O.3    90  NAG90      -0.2184
     11  O4         1.9060    1.8880    9.6750 O.3    90  NAG90      -0.2176
     12  O5         3.4220    5.1960    9.6360 O.3    90  NAG90      -0.3489
     13  O6         2.8140    4.5210   12.5150 O.3    90  NAG90      -0.2176
     14  O7         4.4760    5.2360    5.1050 O.2    90  NAG90      -0.2733
@<TRIPOS>BOND
     1     8     7    1
     2     7    14    2
     3     7     9   am
     4     9     2    1
     5    10     3    1
     6     2     3    1
     7     2     1    1
     8     3     4    1
     9     1    12    1
    10     4    11    1
    11     4     5    1
    12    12     5    1
    13     5     6    1
    14     6    13    1
