@<TRIPOS>MOLECULE
1enc_THP_A_1.pdb
 25 26 0 0 0
SMALL
GASTEIGER

@<TRIPOS>ATOM
      1  P2         6.5010   14.0240   20.6980 P.3   151  THP151      0.5327
      2  O4P        5.2460   13.8210   19.9590 O.2   151  THP151     -0.2224
      3  O5P        7.5610   14.8910   20.1510 O.3   151  THP151     -0.1145
      4  O6P        7.1350   12.5490   20.8790 O.3   151  THP151     -0.1145
      5  P1         5.1100   11.7080   26.5060 P.3   151  THP151      0.5326
      6  O1P        6.5160   11.6270   26.0530 O.3   151  THP151     -0.1145
      7  O2P        4.7030   11.2850   27.8600 O.3   151  THP151     -0.1145
      8  O3P        4.1880   10.8850   25.4700 O.2   151  THP151     -0.2224
      9  O5'        6.1830   14.4830   22.1750 O.3   151  THP151     -0.2675
     10  C5'        5.0130   13.9790   22.8490 C.3   151  THP151      0.1857
     11  C4'        5.2280   14.1920   24.3190 C.3   151  THP151      0.1748
     12  O4'        5.3960   15.5800   24.5700 O.3   151  THP151     -0.3340
     13  C3'        4.0550   13.7740   25.1920 C.3   151  THP151      0.1600
     14  O3'        4.5900   13.2410   26.4330 O.3   151  THP151     -0.2700
     15  C2'        3.2280   15.0630   25.3450 C.3   151  THP151      0.0847
     16  C1'        4.3610   16.0900   25.3830 C.3   151  THP151      0.2089
     17  N1         3.9270   17.4170   24.8640 N.am  151  THP151     -0.1794
     18  C2         3.4650   18.2830   25.8170 C.1   151  THP151      0.2844
     19  O2         3.6250   18.0210   27.0010 O.2   151  THP151     -0.1918
     20  N3         2.8690   19.4420   25.4210 N.2   151  THP151     -0.2455
     21  C4         2.7320   19.7840   24.1070 C.1   151  THP151      0.2134
     22  O4         2.1530   20.8350   23.8900 O.2   151  THP151     -0.2088
     23  C5         3.1930   18.8930   23.1330 C.2   151  THP151      0.0891
     24  C5M        3.0070   19.2790   21.6940 C.3   151  THP151      0.0462
     25  C6         3.7790   17.6910   23.5280 C.2   151  THP151      0.0877
@<TRIPOS>BOND
     1     2     1    2
     2     3     1    1
     3     1     4    1
     4     1     9    1
     5    24    23    1
     6     9    10    1
     7    10    11    1
     8    23    25    2
     9    23    21    1
    10    25    17    1
    11    22    21    2
    12    21    20    2
    13    11    12    1
    14    11    13    1
    15    12    16    1
    16    17    16    1
    17    17    18   am
    18    13    15    1
    19    13    14    1
    20    15    16    1
    21    20    18    2
    22     8     5    2
    23    18    19    2
    24     6     5    1
    25    14     5    1
    26     5     7    1
