@<TRIPOS>MOLECULE
1enm_NAG_A_1.pdb
 14 14 0 0 0
SMALL
GASTEIGER

@<TRIPOS>ATOM
      1  C1         5.0210   14.2990   -8.0110 C.3    90  NAG90       0.1665
      2  C2         6.0740   14.8120   -9.0390 C.3    90  NAG90       0.1576
      3  C3         7.4220   14.2070   -8.6370 C.3    90  NAG90       0.2069
      4  C4         7.7260   14.8350   -7.2170 C.3    90  NAG90       0.2134
      5  C5         6.5850   14.3920   -6.2370 C.3    90  NAG90       0.1809
      6  C6         6.8110   15.0590   -4.8800 C.3    90  NAG90       0.2141
      7  C7         5.3040   15.1410  -11.3760 C.2    90  NAG90       0.2420
      8  C8         4.8720   14.4630  -12.6150 C.3    90  NAG90       0.0964
      9  N2         5.7070   14.2710  -10.3890 N.am   90  NAG90      -0.2019
     10  O3         8.4290   14.7780   -9.5310 O.3    90  NAG90      -0.2184
     11  O4         8.9380   14.2500   -6.7440 O.3    90  NAG90      -0.2176
     12  O5         5.3700   14.9910   -6.7510 O.3    90  NAG90      -0.3489
     13  O6         5.9000   14.5490   -3.9150 O.3    90  NAG90      -0.2176
     14  O7         5.3170   16.2840  -11.2600 O.2    90  NAG90      -0.2733
@<TRIPOS>BOND
     1     8     7    1
     2     7    14    2
     3     7     9   am
     4     9     2    1
     5    10     3    1
     6     2     3    1
     7     2     1    1
     8     3     4    1
     9     1    12    1
    10     4    11    1
    11     4     5    1
    12    12     5    1
    13     5     6    1
    14     6    13    1
