@<TRIPOS>MOLECULE
1eno_NAD_A_1.pdb
 44 48 0 0 0
SMALL
GASTEIGER

@<TRIPOS>ATOM
      1  PA         2.8550   19.6040   38.8440 P.3   501  NAD501      0.2189
      2  O1A        1.4830   19.2780   38.3810 O.3   501  NAD501     -0.4371
      3  O2A        3.5640   20.4720   37.8750 O.2   501  NAD501     -0.5170
      4  O5B        3.6750   18.2490   39.0630 O.3   501  NAD501     -0.3112
      5  C5B        3.8010   17.3190   37.9800 C.3   501  NAD501      0.1813
      6  C4B        5.1330   17.5140   37.3090 C.3   501  NAD501      0.1821
      7  O4B        5.3850   16.3760   36.4510 O.3   501  NAD501     -0.3135
      8  C3B        5.2600   18.7560   36.4240 C.3   501  NAD501      0.2184
      9  O3B        6.5560   19.3670   36.5980 O.3   501  NAD501     -0.2174
     10  C2B        4.9990   18.1570   35.0430 C.3   501  NAD501      0.2570
     11  O2B        5.5600   18.9250   33.9660 O.3   501  NAD501     -0.2130
     12  C1B        5.6680   16.8080   35.1610 C.3   501  NAD501      0.3186
     13  N9A        5.1970   15.8420   34.1970 N.pl3 501  NAD501     -0.1439
     14  C8A        3.9330   15.4450   33.8980 C.3   501  NAD501      0.3377
     15  N7A        3.9160   14.4580   32.9960 N.2   501  NAD501     -0.2095
     16  C5A        5.2560   14.2430   32.6890 C.2   501  NAD501      0.2526
     17  C6A        5.9170   13.3490   31.8010 C.2   501  NAD501      0.4393
     18  N6A        5.2980   12.4510   31.0380 N.pl3 501  NAD501      0.2180
     19  N1A        7.2720   13.4320   31.7360 N.2   501  NAD501      0.0021
     20  C2A        7.9160   14.3490   32.5170 C.3   501  NAD501      0.5254
     21  N3A        7.4090   15.2010   33.3610 N.2   501  NAD501     -0.0055
     22  C4A        6.0560   15.1030   33.4060 C.2   501  NAD501      0.3518
     23  O3         2.8880   20.1660   40.2890 O.3   501  NAD501     -0.2703
     24  PN         3.1110   19.4130   41.7270 P.3   501  NAD501      0.2189
     25  O1N        1.8890   18.6510   42.0770 O.2   501  NAD501     -0.5170
     26  O2N        3.4600   20.3810   42.7790 O.3   501  NAD501     -0.4371
     27  O5D        4.3210   18.4720   41.3610 O.3   501  NAD501     -0.3112
     28  C5D        4.0540   17.0940   41.2840 C.3   501  NAD501      0.1813
     29  C4D        4.5740   16.4320   42.5040 C.3   501  NAD501      0.1799
     30  O4D        3.5120   16.3210   43.4930 O.3   501  NAD501     -0.3327
     31  C3D        5.0540   15.0890   42.2270 C.3   501  NAD501      0.2158
     32  O3D        6.1830   14.6660   43.0170 O.3   501  NAD501     -0.2175
     33  C2D        3.8230   14.3030   42.5770 C.3   501  NAD501      0.2309
     34  O2D        4.3540   13.1270   42.7050 O.3   501  NAD501     -0.2158
     35  C1D        3.2870   14.9820   43.8360 C.3   501  NAD501      0.2263
     36  N1N        1.8010   14.7330   44.1230 N.pl3 501  NAD501     -0.2787
     37  C2N        1.1970   14.9940   45.4110 C.3   501  NAD501      0.1244
     38  C3N       -0.1660   14.8890   45.5190 C.2   501  NAD501      0.0544
     39  C7N       -0.8220   15.2050   46.9250 C.2   501  NAD501      0.2818
     40  O7N       -0.1140   15.6150   47.8420 O.2   501  NAD501     -0.2670
     41  N7N       -2.1430   14.9740   47.0420 N.am  501  NAD501     -0.0839
     42  C4N       -0.9960   14.3920   44.4800 C.2   501  NAD501      0.0033
     43  C5N       -0.2890   14.0560   43.3280 C.2   501  NAD501      0.0157
     44  C6N        1.0400   14.1890   43.0770 C.2   501  NAD501      0.0633
@<TRIPOS>BOND
     1    18    17    1
     2    19    17    2
     3    19    20    1
     4    17    16    1
     5    20    21    1
     6    16    15    2
     7    16    22    1
     8    15    14    1
     9    21    22    2
    10    22    13    1
    11    14    13    1
    12    11    10    1
    13    13    12    1
    14    10    12    1
    15    10     8    1
    16    12     7    1
    17     8     9    1
    18     8     6    1
    19     7     6    1
    20     6     5    1
    21     3     1    2
    22     5     4    1
    23     2     1    1
    24     1     4    1
    25     1    23    1
    26    23    24    1
    27    28    27    1
    28    28    29    1
    29    27    24    1
    30    24    25    2
    31    24    26    1
    32    31    29    1
    33    31    33    1
    34    31    32    1
    35    29    30    1
    36    33    34    1
    37    33    35    1
    38    44    43    2
    39    44    36    1
    40    43    42    1
    41    30    35    1
    42    35    36    1
    43    36    37    1
    44    42    38    2
    45    37    38    1
    46    38    39    1
    47    39    41   am
    48    39    40    2
