@<TRIPOS>MOLECULE
1enp_NAD_A_1.pdb
 44 48 0 0 0
SMALL
GASTEIGER

@<TRIPOS>ATOM
      1  PA         3.4740   19.3660   39.4590 P.3   501  NAD501      0.2189
      2  O1A        1.9860   19.3980   39.3020 O.3   501  NAD501     -0.4371
      3  O2A        4.3340   20.3550   38.6520 O.2   501  NAD501     -0.5170
      4  O5B        3.9200   17.8540   39.2080 O.3   501  NAD501     -0.3112
      5  C5B        3.8820   17.2200   37.8660 C.3   501  NAD501      0.1813
      6  C4B        5.1440   17.4890   37.1730 C.3   501  NAD501      0.1821
      7  O4B        5.4700   16.3770   36.2770 O.3   501  NAD501     -0.3135
      8  C3B        5.2140   18.7570   36.2430 C.3   501  NAD501      0.2184
      9  O3B        6.5520   19.3600   36.3480 O.3   501  NAD501     -0.2174
     10  C2B        4.9160   18.2410   34.8770 C.3   501  NAD501      0.2570
     11  O2B        5.2650   19.0430   33.8170 O.3   501  NAD501     -0.2130
     12  C1B        5.7180   16.9020   35.0390 C.3   501  NAD501      0.3186
     13  N9A        5.3190   15.8900   34.1290 N.pl3 501  NAD501     -0.1439
     14  C8A        4.0850   15.3440   33.8700 C.3   501  NAD501      0.3377
     15  N7A        4.0860   14.3650   32.9920 N.2   501  NAD501     -0.2095
     16  C5A        5.4080   14.1820   32.6460 C.2   501  NAD501      0.2526
     17  C6A        6.0650   13.1910   31.7060 C.2   501  NAD501      0.4393
     18  N6A        5.4610   12.2550   31.0270 N.pl3 501  NAD501      0.2180
     19  N1A        7.4650   13.3610   31.6330 N.2   501  NAD501      0.0021
     20  C2A        8.1810   14.2270   32.3220 C.3   501  NAD501      0.5254
     21  N3A        7.5950   15.1840   33.1940 N.2   501  NAD501     -0.0055
     22  C4A        6.1770   15.1220   33.3260 C.2   501  NAD501      0.3518
     23  O3         3.8980   19.5370   40.9740 O.3   501  NAD501     -0.2703
     24  PN         3.2520   19.0910   42.4150 P.3   501  NAD501      0.2189
     25  O1N        1.9790   18.4870   42.1600 O.2   501  NAD501     -0.5170
     26  O2N        3.4190   20.2030   43.3760 O.3   501  NAD501     -0.4371
     27  O5D        4.2890   17.9710   42.9110 O.3   501  NAD501     -0.3112
     28  C5D        4.6420   16.8390   42.0780 C.3   501  NAD501      0.1813
     29  C4D        4.6480   15.5490   42.8050 C.3   501  NAD501      0.1799
     30  O4D        4.0840   15.8240   44.1750 O.3   501  NAD501     -0.3327
     31  C3D        3.6650   14.3850   42.3380 C.3   501  NAD501      0.2158
     32  O3D        4.2850   13.2600   42.7890 O.3   501  NAD501     -0.2175
     33  C2D        2.3610   14.6520   43.1170 C.3   501  NAD501      0.2309
     34  O2D        1.5760   13.5220   43.2260 O.3   501  NAD501     -0.2158
     35  C1D        3.0330   14.9470   44.4330 C.3   501  NAD501      0.2263
     36  N1N        2.1780   15.5330   45.5000 N.pl3 501  NAD501     -0.2787
     37  C2N        1.6500   16.8070   45.3470 C.3   501  NAD501      0.1244
     38  C3N        0.7760   17.1480   46.3180 C.2   501  NAD501      0.0544
     39  C7N        0.2000   18.6130   46.0080 C.2   501  NAD501      0.2818
     40  O7N       -0.6050   19.1110   46.8180 O.2   501  NAD501     -0.2670
     41  N7N        0.6950   19.2520   44.8640 N.am  501  NAD501     -0.0839
     42  C4N        0.3850   16.3760   47.4290 C.2   501  NAD501      0.0033
     43  C5N        1.0290   15.0960   47.4720 C.2   501  NAD501      0.0157
     44  C6N        1.9120   14.6760   46.5090 C.2   501  NAD501      0.0633
@<TRIPOS>BOND
     1    18    17    1
     2    19    17    2
     3    19    20    1
     4    17    16    1
     5    20    21    1
     6    16    15    2
     7    16    22    1
     8    15    14    1
     9    21    22    2
    10    22    13    1
    11    11    10    1
    12    14    13    1
    13    13    12    1
    14    10    12    1
    15    10     8    1
    16    12     7    1
    17     8     9    1
    18     8     6    1
    19     7     6    1
    20     6     5    1
    21     5     4    1
    22     3     1    2
    23     4     1    1
    24     2     1    1
    25     1    23    1
    26    23    24    1
    27    28    29    1
    28    28    27    1
    29    25    24    2
    30    31    32    1
    31    31    29    1
    32    31    33    1
    33    24    27    1
    34    24    26    1
    35    29    30    1
    36    33    34    1
    37    33    35    1
    38    30    35    1
    39    35    36    1
    40    41    39   am
    41    37    36    1
    42    37    38    1
    43    36    44    1
    44    39    38    1
    45    39    40    2
    46    38    42    2
    47    44    43    2
    48    42    43    1
