@<TRIPOS>MOLECULE
1ent_0EM_E_1.pdb
 46 47 0 0 0
SMALL
GASTEIGER

@<TRIPOS>ATOM
      1  O1         1.9390   27.2090   19.7660 O.2   822  0EM822     -0.2246
      2  C          2.7800   26.3810   19.3940 C.2   822  0EM822      0.4213
      3  O2         2.5800   24.9860   19.5670 O.3   822  0EM822     -0.4408
      4  CT         1.4470   24.4840   20.2840 C.3   822  0EM822      0.1379
      5  C1         0.1790   24.7600   19.4720 C.3   822  0EM822      0.0437
      6  C2         1.3410   25.1590   21.6570 C.3   822  0EM822      0.0437
      7  C3         1.6150   22.9680   20.4520 C.3   822  0EM822      0.0437
      8  N          3.9230   26.7030   18.8150 N.am  822  0EM822     -0.1607
      9  CA         4.2970   28.1010   18.5560 C.3   822  0EM822      0.1804
     10  C4         3.4020   28.6710   17.4480 C.2   822  0EM822      0.2621
     11  O          2.9540   27.9280   16.5910 O.2   822  0EM822     -0.2715
     12  CB         5.7520   28.2010   18.1070 C.3   822  0EM822      0.0575
     13  CG         6.7300   28.0020   19.2580 C.ar  822  0EM822     -0.0200
     14  CD1        6.7520   26.8100   19.9730 C.ar  822  0EM822     -0.0042
     15  CD2        7.6360   29.0090   19.5810 C.ar  822  0EM822     -0.0042
     16  CE1        7.6560   26.6430   21.0170 C.ar  822  0EM822     -0.0003
     17  CE2        8.5400   28.8390   20.6220 C.ar  822  0EM822     -0.0003
     18  CZ         8.5550   27.6410   21.3370 C.ar  822  0EM822     -0.0000
     19  N1         3.1880   29.9620   17.5180 N.am  822  0EM822     -0.1959
     20  CA1        2.3450   30.6710   16.5180 C.3   822  0EM822      0.1787
     21  C5         3.0170   32.0150   16.2170 C.2   822  0EM822      0.2620
     22  O3         2.5650   33.0570   16.6730 O.2   822  0EM822     -0.2715
     23  CB1        0.9730   30.9290   17.1680 C.3   822  0EM822      0.0781
     24  CG1       -0.0270   31.3150   16.0920 C.2   822  0EM822      0.0769
     25  ND1       -1.4100   31.2680   16.2120 N.2   822  0EM822     -0.2470
     26 CD21        0.2970   31.8100   14.8330 C.2   822  0EM822      0.1098
     27 CE11       -1.9510   31.7320   15.0200 C.3   822  0EM822      0.2505
     28  NE2       -0.8950   32.0800   14.1800 N.2   822  0EM822     -0.2415
     29  N2         4.0970   31.9570   15.4550 N.am  822  0EM822     -0.1957
     30  CA2        4.8680   33.1420   15.0750 C.3   822  0EM822      0.1749
     31  CB2        6.3390   32.9510   15.4960 C.3   822  0EM822      0.0317
     32  CG2        6.4650   32.5330   16.9540 C.3   822  0EM822      0.0023
     33 CD11        7.9020   32.3100   17.3750 C.3   822  0EM822      0.0001
     34 CD22        5.8230   33.5630   17.9340 C.3   822  0EM822      0.0001
     35  P          4.8220   33.4490   13.2960 P.3   822  0EM822      0.2815
     36  O1P        5.1030   32.1610   12.5580 O.2   822  0EM822     -0.2847
     37  O2P        5.8340   34.5250   13.0150 O.3   822  0EM822     -0.1657
     38  CM         3.2250   34.1140   12.7590 C.3   822  0EM822      0.1774
     39  C6         3.1080   35.5420   13.2780 C.2   822  0EM822      0.2514
     40  O4         2.6020   35.7700   14.3720 O.2   822  0EM822     -0.2728
     41  N3         3.5720   36.5380   12.5250 N.am  822  0EM822     -0.2050
     42  CA3        3.4740   37.9230   13.0180 C.3   822  0EM822      0.1151
     43  CB3        3.5640   38.9440   11.9000 C.3   822  0EM822      0.0217
     44 CG11        3.5200   40.3680   12.4820 C.3   822  0EM822      0.0018
     45 CG21        2.4190   38.7520   10.9120 C.3   822  0EM822      0.0018
     46 CD12        4.5270   41.3030   11.8420 C.3   822  0EM822      0.0001
@<TRIPOS>BOND
     1    45    43    1
     2    46    44    1
     3    43    44    1
     4    43    42    1
     5    41    42    1
     6    41    39   am
     7    36    35    2
     8    38    39    1
     9    38    35    1
    10    37    35    1
    11    39    40    2
    12    35    30    1
    13    28    26    2
    14    28    27    1
    15    26    24    1
    16    27    25    1
    17    30    29    1
    18    30    31    1
    19    29    21   am
    20    31    32    1
    21    24    25    2
    22    24    23    1
    23    21    20    1
    24    21    22    2
    25    20    23    1
    26    20    19    1
    27    11    10    2
    28    32    33    1
    29    32    34    1
    30    10    19   am
    31    10     9    1
    32    12     9    1
    33    12    13    1
    34     9     8    1
    35     8     2   am
    36    13    15   ar
    37    13    14   ar
    38     2     3    1
    39     2     1    2
    40     5     4    1
    41     3     4    1
    42    15    17   ar
    43    14    16   ar
    44     4     7    1
    45     4     6    1
    46    17    18   ar
    47    16    18   ar
