@<TRIPOS>MOLECULE
1enu_APZ_A_1.pdb
 13 14 0 0 0
SMALL
GASTEIGER

@<TRIPOS>ATOM
      1  N10       15.8570   17.0170   23.9000 N.2   400  APZ400     -0.0623
      2  C5        15.4180   16.8080   22.6540 C.1   400  APZ400      0.1740
      3  O11       14.2550   16.4500   22.4630 O.2   400  APZ400     -0.2204
      4  C2        16.3270   16.9930   21.5170 C.ar  400  APZ400      0.0956
      5  C6        15.9130   16.7940   20.1850 C.ar  400  APZ400      0.0138
      6  C12       16.8180   16.9950   19.1330 C.ar  400  APZ400      0.0188
      7  C9        18.1390   17.4020   19.4080 C.ar  400  APZ400      0.0898
      8  C4        18.5520   17.6070   20.7330 C.ar  400  APZ400      0.0305
      9  C1        17.6490   17.4110   21.7900 C.ar  400  APZ400      0.0969
     10  C3        18.0560   17.6170   23.1860 C.1   400  APZ400      0.1740
     11  O8        19.2020   17.9730   23.4500 O.2   400  APZ400     -0.2204
     12  N7        17.1670   17.4200   24.1640 N.2   400  APZ400     -0.0623
     13  N13       19.0140   17.5980   18.3900 N.pl3 400  APZ400     -0.1280
@<TRIPOS>BOND
     1    13     7    1
     2     6     7   ar
     3     6     5   ar
     4     7     8   ar
     5     5     4   ar
     6     8     9   ar
     7     4     9   ar
     8     4     2    1
     9     9    10    1
    10     3     2    2
    11     2     1    2
    12    10    11    2
    13    10    12    2
    14     1    12    1
