@<TRIPOS>MOLECULE
1eny_NAD_A_1.pdb
 44 48 0 0 0
SMALL
GASTEIGER

@<TRIPOS>ATOM
      1  PA        -0.9200   34.5170   11.2560 P.3   500  NAD500      0.2189
      2  O1A       -1.3610   33.2410   10.5630 O.2   500  NAD500     -0.5170
      3  O2A        0.2850   35.2250   10.7190 O.3   500  NAD500     -0.4371
      4  O5B       -0.4910   34.1680   12.8140 O.3   500  NAD500     -0.3112
      5  C5B       -1.1390   33.2830   13.7660 C.3   500  NAD500      0.1813
      6  C4B       -0.1110   32.6020   14.6270 C.3   500  NAD500      0.1821
      7  O4B       -0.5760   31.3850   15.3200 O.3   500  NAD500     -0.3135
      8  C3B        1.1420   32.1690   13.8320 C.3   500  NAD500      0.2184
      9  O3B        2.2130   33.0550   14.2430 O.3   500  NAD500     -0.2174
     10  C2B        1.3960   30.7130   14.2590 C.3   500  NAD500      0.2570
     11  O2B        2.7820   30.5070   14.3870 O.3   500  NAD500     -0.2130
     12  C1B        0.5910   30.5950   15.5790 C.3   500  NAD500      0.3186
     13  N9A        0.2200   29.2100   15.9790 N.pl3 500  NAD500     -0.1439
     14  C8A       -0.5210   28.0980   15.6260 C.3   500  NAD500      0.3377
     15  N7A       -0.4760   27.0840   16.4810 N.2   500  NAD500     -0.2095
     16  C5A        0.3250   27.5710   17.5110 C.2   500  NAD500      0.2526
     17  C6A        0.7840   26.9880   18.6730 C.2   500  NAD500      0.4393
     18  N6A        0.5240   25.7410   19.0350 N.pl3 500  NAD500      0.2180
     19  N1A        1.5990   27.7040   19.4310 N.2   500  NAD500      0.0021
     20  C2A        1.8940   28.9520   19.0770 C.3   500  NAD500      0.5254
     21  N3A        1.5840   29.6000   17.9740 N.2   500  NAD500     -0.0055
     22  C4A        0.7630   28.8560   17.2120 C.2   500  NAD500      0.3518
     23  O3        -2.2950   35.1650   11.3000 O.3   500  NAD500     -0.2703
     24  PN        -2.8330   36.4820   11.7650 P.3   500  NAD500      0.2189
     25  O1N       -4.1130   36.6560   11.0080 O.2   500  NAD500     -0.5170
     26  O2N       -1.8660   37.5960   11.9680 O.3   500  NAD500     -0.4371
     27  O5D       -3.5360   36.0030   13.1290 O.3   500  NAD500     -0.3112
     28  C5D       -3.1880   36.4860   14.4230 C.3   500  NAD500      0.1813
     29  C4D       -4.4800   36.6220   15.2400 C.3   500  NAD500      0.1799
     30  O4D       -5.2750   37.7390   14.7400 O.3   500  NAD500     -0.3327
     31  C3D       -5.3170   35.3480   15.1150 C.3   500  NAD500      0.2158
     32  O3D       -5.7630   35.0460   16.3860 O.3   500  NAD500     -0.2175
     33  C2D       -6.4660   35.7990   14.2790 C.3   500  NAD500      0.2309
     34  O2D       -7.6230   35.1180   14.6670 O.3   500  NAD500     -0.2158
     35  C1D       -6.6090   37.2370   14.7110 C.3   500  NAD500      0.2263
     36  N1N       -7.4550   38.0460   13.8530 N.pl3 500  NAD500     -0.2787
     37  C2N       -7.1760   37.9970   12.4940 C.3   500  NAD500      0.1244
     38  C3N       -7.8410   38.5770   11.4530 C.2   500  NAD500      0.0544
     39  C7N       -7.5140   38.5340   10.0170 C.2   500  NAD500      0.2818
     40  O7N       -8.3250   38.9950    9.0560 O.2   500  NAD500     -0.2670
     41  N7N       -6.3410   38.1590    9.5320 N.am  500  NAD500     -0.0839
     42  C4N       -8.7810   39.4170   11.9760 C.2   500  NAD500      0.0033
     43  C5N       -9.0780   39.6550   13.3460 C.2   500  NAD500      0.0157
     44  C6N       -8.3840   38.8970   14.3330 C.2   500  NAD500      0.0633
@<TRIPOS>BOND
     1    40    39    2
     2    41    39   am
     3    39    38    1
     4     2     1    2
     5     3     1    1
     6    25    24    2
     7     1    23    1
     8     1     4    1
     9    23    24    1
    10    38    42    2
    11    38    37    1
    12    24    26    1
    13    24    27    1
    14    42    43    1
    15    37    36    1
    16     4     5    1
    17    27    28    1
    18    43    44    2
    19     5     6    1
    20     8     9    1
    21     8    10    1
    22     8     6    1
    23    36    44    1
    24    36    35    1
    25    10    11    1
    26    10    12    1
    27    33    34    1
    28    33    35    1
    29    33    31    1
    30    28    29    1
    31     6     7    1
    32    35    30    1
    33    30    29    1
    34    31    29    1
    35    31    32    1
    36     7    12    1
    37    12    13    1
    38    14    13    1
    39    14    15    1
    40    13    22    1
    41    15    16    2
    42    22    16    1
    43    22    21    2
    44    16    17    1
    45    21    20    1
    46    17    18    1
    47    17    19    2
    48    20    19    1
