@<TRIPOS>MOLECULE
1enz_NAD_A_1.pdb
 44 48 0 0 0
SMALL
GASTEIGER

@<TRIPOS>ATOM
      1  PA        -1.1470   34.2890   11.0490 P.3   500  NAD500      0.2189
      2  O1A       -1.4090   33.1350   10.0730 O.2   500  NAD500     -0.5170
      3  O2A        0.0520   35.2920   10.9510 O.3   500  NAD500     -0.4371
      4  O5B       -0.8900   33.3500   12.4000 O.3   500  NAD500     -0.3112
      5  C5B       -1.2050   33.4710   13.7960 C.3   500  NAD500      0.1813
      6  C4B       -0.3070   32.4190   14.4150 C.3   500  NAD500      0.1821
      7  O4B       -0.8120   31.1940   15.0400 O.3   500  NAD500     -0.3135
      8  C3B        0.9270   32.0200   13.6300 C.3   500  NAD500      0.2184
      9  O3B        1.7850   32.9110   14.1750 O.3   500  NAD500     -0.2174
     10  C2B        1.2420   30.5830   14.0630 C.3   500  NAD500      0.2570
     11  O2B        2.6060   30.3650   14.3310 O.3   500  NAD500     -0.2130
     12  C1B        0.4070   30.5040   15.3570 C.3   500  NAD500      0.3186
     13  N9A        0.1450   29.1690   15.8810 N.pl3 500  NAD500     -0.1439
     14  C8A       -0.6110   28.0700   15.6430 C.3   500  NAD500      0.3377
     15  N7A       -0.4720   27.1010   16.5210 N.2   500  NAD500     -0.2095
     16  C5A        0.4360   27.6300   17.4040 C.2   500  NAD500      0.2526
     17  C6A        1.0350   27.0700   18.5140 C.2   500  NAD500      0.4393
     18  N6A        0.7650   25.8070   18.8920 N.pl3 500  NAD500      0.2180
     19  N1A        1.9260   27.8440   19.1710 N.2   500  NAD500      0.0021
     20  C2A        2.1780   29.0830   18.7530 C.3   500  NAD500      0.5254
     21  N3A        1.6990   29.6870   17.6730 N.2   500  NAD500     -0.0055
     22  C4A        0.8550   28.8790   17.0190 C.2   500  NAD500      0.3518
     23  O3        -2.3820   35.1860   11.1590 O.3   500  NAD500     -0.2703
     24  PN        -2.9280   36.5000   11.8480 P.3   500  NAD500      0.2189
     25  O1N       -4.3320   36.5930   11.1690 O.2   500  NAD500     -0.5170
     26  O2N       -1.8730   37.5860   11.9490 O.3   500  NAD500     -0.4371
     27  O5D       -3.2180   35.9700   13.4170 O.3   500  NAD500     -0.3112
     28  C5D       -3.2240   36.9490   14.4380 C.3   500  NAD500      0.1813
     29  C4D       -4.5120   36.8260   15.1760 C.3   500  NAD500      0.1799
     30  O4D       -5.4420   37.8410   14.7170 O.3   500  NAD500     -0.3327
     31  C3D       -5.1780   35.5310   14.7870 C.3   500  NAD500      0.2158
     32  O3D       -5.3140   34.7870   15.9640 O.3   500  NAD500     -0.2175
     33  C2D       -6.5600   35.8880   14.2270 C.3   500  NAD500      0.2309
     34  O2D       -7.5710   35.0870   14.8150 O.3   500  NAD500     -0.2158
     35  C1D       -6.7350   37.3050   14.7130 C.3   500  NAD500      0.2263
     36  N1N       -7.5280   38.1380   13.8520 N.pl3 500  NAD500     -0.2787
     37  C2N       -7.2880   38.0450   12.5540 C.3   500  NAD500      0.1244
     38  C3N       -7.9390   38.6140   11.5270 C.2   500  NAD500      0.0544
     39  C7N       -7.5930   38.5130   10.1490 C.2   500  NAD500      0.2818
     40  O7N       -8.5160   38.8750    9.1860 O.2   500  NAD500     -0.2670
     41  N7N       -6.3480   38.1720    9.8270 N.am  500  NAD500     -0.0839
     42  C4N       -8.8630   39.4720   11.9990 C.2   500  NAD500      0.0033
     43  C5N       -9.2120   39.6910   13.3270 C.2   500  NAD500      0.0157
     44  C6N       -8.5070   38.9330   14.2770 C.2   500  NAD500      0.0633
@<TRIPOS>BOND
     1    40    39    2
     2    41    39   am
     3     2     1    2
     4    39    38    1
     5     3     1    1
     6     1    23    1
     7     1     4    1
     8    23    24    1
     9    25    24    2
    10    38    42    2
    11    38    37    1
    12    24    26    1
    13    24    27    1
    14    42    43    1
    15     4     5    1
    16    37    36    1
    17    43    44    2
    18    27    28    1
    19     8    10    1
    20     8     9    1
    21     8     6    1
    22     5     6    1
    23    36    44    1
    24    36    35    1
    25    10    11    1
    26    10    12    1
    27    33    35    1
    28    33    31    1
    29    33    34    1
    30     6     7    1
    31    28    29    1
    32    35    30    1
    33    30    29    1
    34    31    29    1
    35    31    32    1
    36     7    12    1
    37    12    13    1
    38    14    13    1
    39    14    15    1
    40    13    22    1
    41    15    16    2
    42    22    16    1
    43    22    21    2
    44    16    17    1
    45    21    20    1
    46    17    18    1
    47    17    19    2
    48    20    19    1
