@<TRIPOS>MOLECULE
1eo5_BGC_A_1.pdb
 11 11 0 0 0
SMALL
GASTEIGER

@<TRIPOS>ATOM
      1  C2        41.8130   84.5130   43.3830 C.3   691  BGC691      0.2409
      2  C3        41.1870   85.4720   44.3470 C.3   691  BGC691      0.1899
      3  C4        40.8310   84.6690   45.5750 C.3   691  BGC691      0.0681
      4  C5        42.1220   84.1210   46.1640 C.3   691  BGC691      0.1534
      5  C6        41.9630   83.4150   47.4820 C.3   691  BGC691      0.2116
      6  C1        42.9820   83.7660   43.9410 C.3   691  BGC691      0.3022
      7  O1        43.2980   82.7350   43.0380 O.3   691  BGC691     -0.1869
      8  O2        42.2750   85.0630   42.1690 O.3   691  BGC691     -0.2149
      9  O3        40.0010   86.0350   43.7850 O.3   691  BGC691     -0.2201
     10  O5        42.6660   83.2020   45.2060 O.3   691  BGC691     -0.3263
     11  O6        41.1810   82.2300   47.3260 O.3   691  BGC691     -0.2177
@<TRIPOS>BOND
     1     8     1    1
     2     7     6    1
     3     1     6    1
     4     1     2    1
     5     9     2    1
     6     6    10    1
     7     2     3    1
     8    10     4    1
     9     3     4    1
    10     4     5    1
    11    11     5    1
