@<TRIPOS>MOLECULE
1eo5_GLC_A_10.pdb
 11 11 0 0 0
SMALL
GASTEIGER

@<TRIPOS>ATOM
      1  C1        61.0900  102.7710   10.7070 C.3   709  GLC709      0.3022
      2  C2        60.5650  101.8730   11.8100 C.3   709  GLC709      0.2409
      3  C3        61.3710  100.6020   11.9020 C.3   709  GLC709      0.1899
      4  C4        61.3910   99.9190   10.5510 C.3   709  GLC709      0.0681
      5  C5        61.9490  100.8710    9.5160 C.3   709  GLC709      0.1534
      6  C6        61.9320  100.2800    8.1400 C.3   709  GLC709      0.2116
      7  O1        62.3680  103.2260   11.0920 O.3   709  GLC709     -0.1869
      8  O2        60.6120  102.5630   13.0500 O.3   709  GLC709     -0.2149
      9  O3        60.8140   99.6900   12.8530 O.3   709  GLC709     -0.2201
     10  O5        61.1700  102.0690    9.4710 O.3   709  GLC709     -0.3263
     11  O6        62.3550  101.2550    7.1830 O.3   709  GLC709     -0.2177
@<TRIPOS>BOND
     1    11     6    1
     2     6     5    1
     3    10     5    1
     4    10     1    1
     5     5     4    1
     6     4     3    1
     7     1     7    1
     8     1     2    1
     9     2     3    1
    10     2     8    1
    11     3     9    1
