@<TRIPOS>MOLECULE
1eo7_GLC_A_10.pdb
 11 11 0 0 0
SMALL
GASTEIGER

@<TRIPOS>ATOM
      1  C1        64.2640   28.3160   22.9870 C.3   704  GLC704      0.3022
      2  C2        65.0610   28.5820   21.7310 C.3   704  GLC704      0.2409
      3  C3        64.4470   29.6920   20.9140 C.3   704  GLC704      0.1899
      4  C4        62.9690   29.4420   20.6730 C.3   704  GLC704      0.0681
      5  C5        62.2400   29.1790   21.9780 C.3   704  GLC704      0.1534
      6  C6        60.8320   28.7340   21.7150 C.3   704  GLC704      0.2116
      7  O1        64.4930   29.3600   23.9060 O.3   704  GLC704     -0.1869
      8  O2        66.3900   28.9290   22.0860 O.3   704  GLC704     -0.2149
      9  O3        65.0770   29.7940   19.6340 O.3   704  GLC704     -0.2201
     10  O5        62.8780   28.1370   22.7220 O.3   704  GLC704     -0.3263
     11  O6        60.0560   28.7360   22.9160 O.3   704  GLC704     -0.2177
@<TRIPOS>BOND
     1     9     3    1
     2     4     3    1
     3     4     5    1
     4     3     2    1
     5     6     5    1
     6     6    11    1
     7     2     8    1
     8     2     1    1
     9     5    10    1
    10    10     1    1
    11     1     7    1
