@<TRIPOS>MOLECULE
1eob_DHB_B_1.pdb
 11 11 0 0 0
SMALL
GASTEIGER

@<TRIPOS>ATOM
      1  C1        12.0130  -14.7460   40.4240 C.ar  999  DHB999      0.0832
      2  C2        10.6920  -15.0830   40.1750 C.ar  999  DHB999      0.0520
      3  C3         9.6730  -14.2560   40.6080 C.ar  999  DHB999      0.2345
      4  O3         8.3450  -14.5780   40.3690 O.3   999  DHB999     -0.2831
      5  C4         9.9730  -13.0940   41.2860 C.ar  999  DHB999      0.2343
      6  O4         8.9510  -12.2670   41.7220 O.3   999  DHB999     -0.2831
      7  C5        11.2890  -12.7560   41.5360 C.ar  999  DHB999      0.0456
      8  C6        12.3110  -13.5810   41.1030 C.ar  999  DHB999      0.0101
      9  C         13.0890  -15.6260   39.9670 C.2   999  DHB999      0.3879
     10  O1        12.8170  -16.6860   39.3520 O.co2 999  DHB999     -0.2406
     11  O2        14.2830  -15.3320   40.1880 O.co2 999  DHB999     -0.2406
@<TRIPOS>BOND
     1    10     9   ar
     2     9    11   ar
     3     9     1    1
     4     2     1   ar
     5     2     3   ar
     6     4     3    1
     7     1     8   ar
     8     3     5   ar
     9     8     7   ar
    10     5     7   ar
    11     5     6    1
