@<TRIPOS>MOLECULE
1eoc_4NC_B_1.pdb
 11 11 0 0 0
SMALL
GASTEIGER

@<TRIPOS>ATOM
      1  C1         9.9140  -13.0470   41.2840 C.ar  999  4NC999      0.2344
      2  C2         9.6060  -14.1390   40.5030 C.ar  999  4NC999      0.2359
      3  C3        10.5980  -14.9680   40.0260 C.ar  999  4NC999      0.0694
      4  C4        11.9150  -14.6950   40.3430 C.ar  999  4NC999      0.1463
      5  C5        12.2350  -13.6020   41.1310 C.ar  999  4NC999      0.0276
      6  C6        11.2300  -12.7810   41.5960 C.ar  999  4NC999      0.0471
      7  O7         8.8990  -12.2270   41.7550 O.3   999  4NC999     -0.2831
      8  O8         8.2720  -14.3830   40.2150 O.3   999  4NC999     -0.2831
      9  N9        12.9680  -15.5560   39.8370 N.pl3 999  4NC999      0.0578
     10  O10       12.7050  -16.5400   39.1140 O.2   999  4NC999     -0.1261
     11  O11       14.1730  -15.3430   40.0940 O.2   999  4NC999     -0.1261
@<TRIPOS>BOND
     1    10     9    2
     2     9    11    2
     3     9     4    1
     4     3     4   ar
     5     3     2   ar
     6     8     2    1
     7     4     5   ar
     8     2     1   ar
     9     5     6   ar
    10     1     6   ar
    11     1     7    1
