@<TRIPOS>MOLECULE
1eom_NAG_A_1.pdb
 15 15 0 0 0
SMALL
GASTEIGER

@<TRIPOS>ATOM
      1  C1       -17.2120   74.5530   17.1030 C.3   632  NAG632      0.2917
      2  C2       -16.6660   75.9610   16.8070 C.3   632  NAG632      0.1871
      3  C3       -15.4520   76.2810   17.7060 C.3   632  NAG632      0.2095
      4  C4       -15.6990   75.9270   19.1810 C.3   632  NAG632      0.2136
      5  C5       -16.2580   74.5130   19.2790 C.3   632  NAG632      0.1835
      6  C6       -16.5700   74.0570   20.7040 C.3   632  NAG632      0.2142
      7  C7       -15.2830   75.4710   14.8680 C.2   632  NAG632      0.2421
      8  C8       -14.7360   75.9780   13.5260 C.3   632  NAG632      0.0964
      9  N2       -16.3210   76.1180   15.4030 N.am  632  NAG632     -0.1991
     10  O1       -18.4090   74.3430   16.4260 O.3   632  NAG632     -0.1879
     11  O3       -15.1890   77.6650   17.6220 O.3   632  NAG632     -0.2183
     12  O4       -14.4690   76.0090   19.9130 O.3   632  NAG632     -0.2176
     13  O5       -17.4770   74.4370   18.5130 O.3   632  NAG632     -0.3242
     14  O6       -17.6270   74.8150   21.2710 O.3   632  NAG632     -0.2176
     15  O7       -14.7570   74.5020   15.4030 O.2   632  NAG632     -0.2733
@<TRIPOS>BOND
     1     8     7    1
     2     7     9   am
     3     7    15    2
     4     9     2    1
     5    10     1    1
     6     2     1    1
     7     2     3    1
     8     1    13    1
     9    11     3    1
    10     3     4    1
    11    13     5    1
    12     4     5    1
    13     4    12    1
    14     5     6    1
    15     6    14    1
