@<TRIPOS>MOLECULE
1eom_MAN_A_1.pdb
 11 11 0 0 0
SMALL
GASTEIGER

@<TRIPOS>ATOM
      1  C1       -14.4010   76.9710   20.9160 C.3   633  MAN633      0.1777
      2  C2       -13.1880   76.7070   21.7960 C.3   633  MAN633      0.2141
      3  C3       -13.1180   77.7910   22.8790 C.3   633  MAN633      0.2173
      4  C4       -13.0020   79.1630   22.2090 C.3   633  MAN633      0.2142
      5  C5       -14.1870   79.3580   21.2670 C.3   633  MAN633      0.1810
      6  C6       -14.0330   80.6340   20.4690 C.3   633  MAN633      0.2141
      7  O2       -12.0090   76.7850   20.9970 O.3   633  MAN633     -0.2176
      8  O3       -11.9500   77.5580   23.6740 O.3   633  MAN633     -0.2175
      9  O4       -12.9590   80.2080   23.1690 O.3   633  MAN633     -0.2176
     10  O5       -14.2510   78.2650   20.3000 O.3   633  MAN633     -0.3481
     11  O6       -15.3280   81.0240   20.0100 O.3   633  MAN633     -0.2176
@<TRIPOS>BOND
     1    11     6    1
     2    10     1    1
     3    10     5    1
     4     6     5    1
     5     1     2    1
     6     7     2    1
     7     5     4    1
     8     2     3    1
     9     4     3    1
    10     4     9    1
    11     3     8    1
