@<TRIPOS>MOLECULE
1eos_U2G_A_1.pdb
 21 22 0 0 0
SMALL
GASTEIGER

@<TRIPOS>ATOM
      1  O5B       35.2060   -2.7410   23.3720 O.3   130  U2G130     -0.1145
      2  P         36.6980   -2.7690   23.5500 P.3   130  U2G130      0.5327
      3  O1P       37.3280   -3.8720   24.3200 O.3   130  U2G130     -0.1145
      4  O2P       37.3630   -2.6870   22.1120 O.2   130  U2G130     -0.2224
      5  O5D       40.2690    2.3950   22.6400 O.3   130  U2G130     -0.2176
      6  C5D       40.7040    1.2320   23.3720 C.3   130  U2G130      0.2142
      7  C4D       39.5150    0.4160   23.8180 C.3   130  U2G130      0.1828
      8  O4D       38.7750    1.1460   24.8260 O.3   130  U2G130     -0.3319
      9  C3D       38.4700    0.1400   22.7520 C.3   130  U2G130      0.2133
     10  O3D       38.8690   -0.9030   21.8940 O.3   130  U2G130     -0.2176
     11  C2D       37.2330   -0.1860   23.5960 C.3   130  U2G130      0.2063
     12  O2D       37.1050   -1.4070   24.3070 O.3   130  U2G130     -0.2656
     13  C1D       37.3990    0.8070   24.7430 C.3   130  U2G130      0.2373
     14  N1U       36.6110    2.0350   24.5650 N.am  130  U2G130     -0.1767
     15  C2U       35.5070    2.1840   25.3800 C.1   130  U2G130      0.2845
     16  O2U       35.1380    1.3180   26.1600 O.2   130  U2G130     -0.1918
     17  N3U       34.8330    3.3750   25.2250 N.2   130  U2G130     -0.2452
     18  C4U       35.1300    4.3900   24.3280 C.1   130  U2G130      0.2182
     19  O4U       34.4170    5.3900   24.2970 O.2   130  U2G130     -0.2085
     20  C5U       36.2780    4.1440   23.4850 C.2   130  U2G130      0.1242
     21  C6U       36.9680    3.0040   23.6300 C.2   130  U2G130      0.0929
@<TRIPOS>BOND
     1    10     9    1
     2     4     2    2
     3     5     6    1
     4     9    11    1
     5     9     7    1
     6     6     7    1
     7     1     2    1
     8    20    21    2
     9    20    18    1
    10     2    12    1
    11     2     3    1
    12    11    12    1
    13    11    13    1
    14    21    14    1
    15     7     8    1
    16    19    18    2
    17    18    17    2
    18    14    13    1
    19    14    15   am
    20    13     8    1
    21    17    15    2
    22    15    16    2
