@<TRIPOS>MOLECULE
1eou_SMS_A_1.pdb
 22 24 0 0 0
SMALL
GASTEIGER

@<TRIPOS>ATOM
      1  S2        -5.7490    1.3350   16.8390 S.3   301  SMS301      0.0829
      2  N1        -5.3260   -0.1620   16.6210 N.3   301  SMS301      0.0391
      3  O10       -7.1400    1.4650   16.9140 O.3   301  SMS301     -0.0529
      4  O9        -5.0090    1.7710   17.9370 O.3   301  SMS301     -0.0529
      5  O8        -5.2570    1.9910   15.4980 O.3   301  SMS301     -0.2220
      6  C1        -5.5000    3.4020   15.2600 C.3   301  SMS301      0.2324
      7  C2        -4.9520    3.6840   13.8510 C.3   301  SMS301      0.2474
      8  C3        -3.4460    3.3820   13.5500 C.3   301  SMS301      0.2033
      9  C4        -2.6050    4.6660   13.4420 C.3   301  SMS301      0.2113
     10  C5        -3.2590    5.8030   12.5610 C.3   301  SMS301      0.2089
     11  C6        -4.7560    5.6560   12.4450 C.3   301  SMS301      0.1795
     12  O3        -5.2940    5.0590   13.6650 O.3   301  SMS301     -0.3275
     13  O5        -3.0060    7.0210   13.2680 O.3   301  SMS301     -0.1994
     14  S1        -2.3690    6.8260   14.6350 S.O2  301  SMS301      0.2115
     15  O7        -1.0630    7.2750   14.5700 O.2   301  SMS301     -0.1178
     16  O6        -3.1790    7.4270   15.6280 O.2   301  SMS301     -0.1178
     17  O4        -2.4520    5.2600   14.7260 O.3   301  SMS301     -0.1993
     18  O2        -3.4600    2.8030   12.2580 O.3   301  SMS301     -0.3290
     19  C7        -4.6780    2.0790   12.1180 C.3   301  SMS301      0.1900
     20  C9        -4.5610    0.6390   12.6070 C.3   301  SMS301      0.0613
     21  C8        -5.0850    2.1360   10.6670 C.3   301  SMS301      0.0613
     22  O1        -5.6190    2.8570   12.9280 O.3   301  SMS301     -0.3101
@<TRIPOS>BOND
     1    21    19    1
     2    19    18    1
     3    19    20    1
     4    19    22    1
     5    18     8    1
     6    11    10    1
     7    11    12    1
     8    10    13    1
     9    10     9    1
    10    22     7    1
    11    13    14    1
    12     9     8    1
    13     9    17    1
    14     8     7    1
    15    12     7    1
    16     7     6    1
    17    15    14    2
    18    14    17    1
    19    14    16    2
    20     6     5    1
    21     5     1    1
    22     2     1    1
    23     1     3    1
    24     1     4    1
