@<TRIPOS>MOLECULE
1eow_U2G_A_1.pdb
 20 22 0 0 0
SMALL
GASTEIGER

@<TRIPOS>ATOM
      1  N1G        8.5810    2.9870   16.9370 N.2   130  U2G130     -0.2485
      2  C2G        9.5010    3.4550   17.8300 C.1   130  U2G130      0.2531
      3  N2G        9.3070    3.1340   19.1190 N.pl3 130  U2G130     -0.0226
      4  N3G       10.5450    4.1780   17.4900 N.2   130  U2G130     -0.3074
      5  C4G       10.6220    4.3580   16.1610 C.2   130  U2G130      0.2300
      6  C5G        9.7780    3.8960   15.1840 C.2   130  U2G130      0.2182
      7  C6G        8.6490    3.1620   15.5670 C.1   130  U2G130      0.2372
      8  O6G        7.7720    2.7020   14.8660 O.2   130  U2G130     -0.2069
      9  N7G       10.2350    4.2580   13.9320 N.2   130  U2G130     -0.2322
     10  C8G       11.3110    4.9500   14.1620 C.3   130  U2G130      0.2246
     11  N9G       11.5770    5.0880   15.5040 N.pl3 130  U2G130     -0.2354
     12  C1B       12.6190    5.8980   16.1350 C.3   130  U2G130      0.2293
     13  C2B       13.7030    5.0900   16.8360 C.3   130  U2G130      0.2310
     14  O2B       14.1590    5.8570   17.9400 O.3   130  U2G130     -0.2158
     15  C3B       14.6910    4.8740   15.6880 C.3   130  U2G130      0.2159
     16  O3B       16.0290    4.6130   16.1030 O.3   130  U2G130     -0.2175
     17  C4B       14.6010    6.1740   14.8960 C.3   130  U2G130      0.1828
     18  O4B       13.2610    6.6910   15.1440 O.3   130  U2G130     -0.3325
     19  C5B       14.8070    5.9870   13.3990 C.3   130  U2G130      0.2142
     20  O5B       13.9620    4.9060   12.8930 O.3   130  U2G130     -0.2176
@<TRIPOS>BOND
     1    20    19    1
     2    19    17    1
     3     9    10    1
     4     9     6    2
     5    10    11    1
     6     8     7    2
     7    17    18    1
     8    17    15    1
     9    18    12    1
    10     6     7    1
    11     6     5    1
    12    11    12    1
    13    11     5    1
    14     7     1    2
    15    15    16    1
    16    15    13    1
    17    12    13    1
    18     5     4    2
    19    13    14    1
    20     1     2    2
    21     4     2    2
    22     2     3    1
