@<TRIPOS>MOLECULE
1ep1_FMN_A_1.pdb
 31 33 0 0 0
SMALL
GASTEIGER

@<TRIPOS>ATOM
      1  N1        40.0310   34.9880   28.2960 N.2   501  FMN501     -0.2887
      2  C2        39.2640   35.7100   29.1740 C.1   501  FMN501      0.3669
      3  O2        39.5410   36.8620   29.4810 O.2   501  FMN501     -0.1744
      4  N3        38.2470   34.9830   29.7530 N.2   501  FMN501     -0.2300
      5  C4        38.0020   33.6610   29.5540 C.1   501  FMN501      0.2513
      6  O4        37.2300   33.1110   30.3300 O.2   501  FMN501     -0.2057
      7  C4A       38.7350   33.0950   28.4290 C.2   501  FMN501      0.2706
      8  N5        38.4170   31.7710   28.0790 N.2   501  FMN501     -0.3841
      9  C5A       39.2390   31.0640   27.2320 C.2   501  FMN501      0.1452
     10  C6        38.9690   29.7500   26.9570 C.2   501  FMN501      0.0252
     11  C7        39.8680   29.0140   26.2100 C.2   501  FMN501     -0.0375
     12  C7M       39.6390   27.5080   26.0710 C.3   501  FMN501      0.0268
     13  C8        40.9780   29.6210   25.6200 C.3   501  FMN501      0.0417
     14  C8M       42.0180   28.8550   24.7980 C.3   501  FMN501      0.0091
     15  C9        41.1580   30.9830   25.7880 C.2   501  FMN501     -0.0049
     16  C9A       40.3410   31.6950   26.6520 C.2   501  FMN501      0.0795
     17  N10       40.6580   33.0030   27.0230 N.pl3 501  FMN501     -0.2545
     18  C10       39.8350   33.7150   27.8420 C.2   501  FMN501      0.2449
     19  C1'       41.5410   33.6600   26.2840 C.3   501  FMN501      0.1336
     20  C2'       42.8010   33.9080   27.0030 C.3   501  FMN501      0.2048
     21  O2'       42.9460   33.5480   28.3060 O.3   501  FMN501     -0.2185
     22  C3'       44.1170   34.2350   26.4270 C.3   501  FMN501      0.2165
     23  O3'       44.0280   35.6080   26.1670 O.3   501  FMN501     -0.2175
     24  C4'       44.6960   33.4580   25.3450 C.3   501  FMN501      0.2147
     25  O4'       43.9270   32.6110   24.5790 O.3   501  FMN501     -0.2176
     26  C5'       45.8180   33.9970   24.5970 C.3   501  FMN501      0.1892
     27  O5'       46.9130   33.2370   25.1720 O.3   501  FMN501     -0.2674
     28  P         47.3070   31.6910   24.7680 P.3   501  FMN501      0.5327
     29  O1P       48.4320   31.3990   25.7240 O.3   501  FMN501     -0.1145
     30  O2P       46.0460   30.9310   24.9460 O.3   501  FMN501     -0.1145
     31  O3P       47.7840   31.7610   23.3420 O.2   501  FMN501     -0.2224
@<TRIPOS>BOND
     1    31    28    2
     2    25    24    1
     3    26    27    1
     4    26    24    1
     5    28    30    1
     6    28    27    1
     7    28    29    1
     8    14    13    1
     9    24    22    1
    10    13    15    1
    11    13    11    1
    12    15    16    2
    13    12    11    1
    14    23    22    1
    15    11    10    2
    16    19    20    1
    17    19    17    1
    18    22    20    1
    19    16    17    1
    20    16     9    1
    21    10     9    1
    22    20    21    1
    23    17    18    1
    24     9     8    2
    25    18     1    2
    26    18     7    1
    27     8     7    2
    28     1     2    2
    29     7     5    1
    30     2     3    2
    31     2     4    2
    32     5     4    2
    33     5     6    2
