@<TRIPOS>MOLECULE
1ep2_FMN_A_1.pdb
 31 33 0 0 0
SMALL
GASTEIGER

@<TRIPOS>ATOM
      1  N1        40.0130   34.7250   28.1040 N.2   501  FMN501     -0.2890
      2  C2        39.2890   35.4180   29.0530 C.1   501  FMN501      0.3669
      3  O2        39.5920   36.5340   29.4190 O.2   501  FMN501     -0.1744
      4  N3        38.2590   34.7240   29.5950 N.2   501  FMN501     -0.2300
      5  C4        37.9890   33.3980   29.3800 C.1   501  FMN501      0.2513
      6  O4        37.1980   32.8790   30.1750 O.2   501  FMN501     -0.2057
      7  C4A       38.7410   32.8050   28.2950 C.2   501  FMN501      0.2700
      8  N5        38.3840   31.5060   27.9720 N.2   501  FMN501     -0.3878
      9  C5A       39.2530   30.8030   27.1670 C.2   501  FMN501      0.1320
     10  C6        38.9480   29.4690   26.9030 C.2   501  FMN501      0.0250
     11  C7        39.7940   28.7300   26.0980 C.2   501  FMN501     -0.0238
     12  C7M       39.5160   27.2760   25.9220 C.3   501  FMN501      0.0308
     13  C8        40.9400   29.3190   25.5320 C.2   501  FMN501     -0.0280
     14  C8M       41.8650   28.5700   24.6370 C.3   501  FMN501      0.0304
     15  C9        41.2210   30.6330   25.7730 C.2   501  FMN501     -0.0041
     16  C9A       40.3790   31.4080   26.6010 C.3   501  FMN501      0.1497
     17  N10       40.7050   32.7480   26.9140 N.pl3 501  FMN501     -0.2691
     18  C10       39.8590   33.4330   27.7150 C.2   501  FMN501      0.2416
     19  C1'       41.6300   33.3920   26.2120 C.3   501  FMN501      0.1294
     20  C2'       42.8720   33.6420   27.0090 C.3   501  FMN501      0.2044
     21  O2'       43.0330   33.2710   28.3240 O.3   501  FMN501     -0.2185
     22  C3'       44.1710   33.8810   26.3930 C.3   501  FMN501      0.2164
     23  O3'       44.2160   35.2760   26.1040 O.3   501  FMN501     -0.2175
     24  C4'       44.7180   33.0990   25.2600 C.3   501  FMN501      0.2147
     25  O4'       43.9130   32.3080   24.4470 O.3   501  FMN501     -0.2176
     26  C5'       45.7640   33.7620   24.4580 C.3   501  FMN501      0.1892
     27  O5'       46.9350   33.1350   25.0210 O.3   501  FMN501     -0.2674
     28  P         47.3600   31.5790   24.7020 P.3   501  FMN501      0.5327
     29  O1P       48.4500   31.3260   25.6390 O.3   501  FMN501     -0.1145
     30  O2P       46.2000   30.7680   24.8810 O.3   501  FMN501     -0.1145
     31  O3P       47.8400   31.6070   23.3020 O.2   501  FMN501     -0.2224
@<TRIPOS>BOND
     1    31    28    2
     2    25    24    1
     3    26    27    1
     4    26    24    1
     5    14    13    1
     6    28    30    1
     7    28    27    1
     8    28    29    1
     9    24    22    1
    10    13    15    2
    11    13    11    1
    12    15    16    1
    13    12    11    1
    14    11    10    2
    15    23    22    1
    16    19    17    1
    17    19    20    1
    18    22    20    1
    19    16    17    1
    20    16     9    1
    21    10     9    1
    22    17    18    1
    23    20    21    1
    24     9     8    2
    25    18     1    2
    26    18     7    1
    27     8     7    2
    28     1     2    2
    29     7     5    1
    30     2     3    2
    31     2     4    2
    32     5     4    2
    33     5     6    2
