@<TRIPOS>MOLECULE
1ep3_FMN_A_1.pdb
 31 33 0 0 0
SMALL
GASTEIGER

@<TRIPOS>ATOM
      1  N1        10.2980  166.7990   25.5460 N.2   501  FMN501     -0.2890
      2  C2        11.2590  166.5340   24.5660 C.1   501  FMN501      0.3669
      3  O2        12.0690  167.3750   24.3700 O.2   501  FMN501     -0.1744
      4  N3        11.1720  165.2890   23.8860 N.2   501  FMN501     -0.2300
      5  C4        10.1610  164.3470   24.1830 C.1   501  FMN501      0.2513
      6  O4        10.1350  163.2780   23.5640 O.2   501  FMN501     -0.2057
      7  C4A        9.2760  164.6940   25.3140 C.2   501  FMN501      0.2700
      8  N5         8.3220  163.6530   25.7000 N.2   501  FMN501     -0.3878
      9  C5A        7.1510  164.1640   26.2560 C.2   501  FMN501      0.1320
     10  C6         6.1570  163.2300   26.6140 C.2   501  FMN501      0.0250
     11  C7         5.1700  163.5540   27.5700 C.2   501  FMN501     -0.0238
     12  C7M        3.9730  162.5950   27.9190 C.3   501  FMN501      0.0308
     13  C8         5.2610  164.7940   28.3100 C.2   501  FMN501     -0.0280
     14  C8M        4.2450  165.2450   29.3780 C.3   501  FMN501      0.0304
     15  C9         6.3280  165.6550   28.0830 C.2   501  FMN501     -0.0041
     16  C9A        7.3010  165.3670   27.1330 C.3   501  FMN501      0.1497
     17  N10        8.3640  166.3420   26.9370 N.pl3 501  FMN501     -0.2691
     18  C10        9.2940  165.9830   25.9490 C.2   501  FMN501      0.2416
     19  C1'        8.4650  167.5560   27.5420 C.3   501  FMN501      0.1294
     20  C2'        7.4620  168.5790   26.8160 C.3   501  FMN501      0.2044
     21  O2'        7.6540  168.6020   25.3670 O.3   501  FMN501     -0.2185
     22  C3'        7.4920  169.9590   27.4800 C.3   501  FMN501      0.2164
     23  O3'        8.8200  170.4120   27.3390 O.3   501  FMN501     -0.2175
     24  C4'        6.9260  170.0160   28.9970 C.3   501  FMN501      0.2147
     25  O4'        5.9790  168.9290   29.2000 O.3   501  FMN501     -0.2176
     26  C5'        6.3730  171.3710   29.2130 C.3   501  FMN501      0.1892
     27  O5'        5.1390  171.7330   28.4740 O.3   501  FMN501     -0.2674
     28  P          3.6460  171.2880   28.9440 P.3   501  FMN501      0.5327
     29  O1P        2.7390  172.1780   28.1360 O.2   501  FMN501     -0.2224
     30  O2P        3.5010  169.8590   28.7790 O.3   501  FMN501     -0.1145
     31  O3P        3.4680  171.8160   30.4450 O.3   501  FMN501     -0.1145
@<TRIPOS>BOND
     1     6     5    2
     2     4     5    2
     3     4     2    2
     4     5     7    1
     5     3     2    2
     6     2     1    2
     7     7     8    2
     8     7    18    1
     9    21    20    1
    10     1    18    2
    11     8     9    2
    12    18    17    1
    13     9    10    1
    14     9    16    1
    15    10    11    2
    16    20    22    1
    17    20    19    1
    18    17    16    1
    19    17    19    1
    20    16    15    1
    21    23    22    1
    22    22    24    1
    23    11    12    1
    24    11    13    1
    25    15    13    2
    26    29    28    2
    27    13    14    1
    28    27    28    1
    29    27    26    1
    30    30    28    1
    31    28    31    1
    32    24    25    1
    33    24    26    1
