@<TRIPOS>MOLECULE
1ep4_S11_A_1.pdb
 29 31 0 0 0
SMALL
GASTEIGER

@<TRIPOS>ATOM
      1  N1         1.5610  -42.5080   24.0890 N.2   999  S11999     -0.3937
      2  C2         1.7580  -42.9920   25.4190 C.2   999  S11999      0.1164
      3  C3         0.7930  -42.3280   26.0990 C.3   999  S11999      0.1761
      4  N4         0.1070  -41.5550   25.2750 N.pl3 999  S11999     -0.2668
      5  C5         0.6040  -41.6920   24.0690 C.2   999  S11999      0.2051
      6  C6         1.4730  -41.2680   28.6400 C.ar  999  S11999      0.0288
      7  S1         0.4650  -42.4810   27.8470 S.3   999  S11999     -0.0875
      8  C7         1.2540  -41.0430   30.0090 C.ar  999  S11999      0.0177
      9  C8         2.0730  -40.1490   30.7330 C.ar  999  S11999      0.0590
     10 CL1         1.8140  -39.9320   32.4450 Cl    999  S11999     -0.0822
     11  C9         3.0990  -39.4310   30.0720 C.ar  999  S11999      0.0228
     12  C10        3.3320  -39.6440   28.6970 C.ar  999  S11999      0.0590
     13 CL2         4.6400  -38.7960   27.9210 Cl    999  S11999     -0.0822
     14  C11        2.5030  -40.5480   27.9660 C.ar  999  S11999      0.0177
     15  C12        2.7970  -44.0030   25.8540 C.3   999  S11999      0.0508
     16  C13        2.4400  -45.4000   25.2820 C.3   999  S11999      0.0072
     17  C14        4.1900  -43.5390   25.3660 C.3   999  S11999      0.0072
     18  C15       -0.9730  -40.6400   25.6820 C.3   999  S11999      0.1209
     19  C16       -2.3230  -41.3670   25.9320 C.ar  999  S11999      0.0008
     20  C21       -3.2370  -40.8440   26.8910 C.ar  999  S11999      0.0181
     21  C20       -4.4860  -41.4840   27.0990 C.ar  999  S11999      0.0986
     22  N19       -4.8150  -42.5990   26.3790 N.ar  999  S11999     -0.2423
     23  C18       -3.9630  -43.1360   25.4470 C.ar  999  S11999      0.0986
     24  C17       -2.7020  -42.5340   25.2030 C.ar  999  S11999      0.0181
     25  CA         0.1470  -41.0120   22.7970 C.3   999  S11999      0.2839
     26  O22       -1.2790  -41.1440   22.6940 O.3   999  S11999     -0.4231
     27  C23       -1.7470  -42.1440   21.9010 C.2   999  S11999      0.4415
     28  N24       -2.9520  -41.8620   21.3620 N.am  999  S11999     -0.0475
     29  O25       -1.1650  -43.2040   21.7170 O.2   999  S11999     -0.2227
@<TRIPOS>BOND
     1    28    27   am
     2    29    27    2
     3    27    26    1
     4    26    25    1
     5    25     5    1
     6     5     1    2
     7     5     4    1
     8     1     2    2
     9    24    23   ar
    10    24    19   ar
    11     4    18    1
    12     4     3    1
    13    16    15    1
    14    17    15    1
    15     2    15    1
    16     2     3    1
    17    23    22   ar
    18    18    19    1
    19    19    20   ar
    20     3     7    1
    21    22    21   ar
    22    20    21   ar
    23     7     6    1
    24    13    12    1
    25    14     6   ar
    26    14    12   ar
    27     6     8   ar
    28    12    11   ar
    29     8     9   ar
    30    11     9   ar
    31     9    10    1
