@<TRIPOS>MOLECULE
1epb_REA_A_1.pdb
 43 43 0 0 0
SMALL
GASTEIGER

@<TRIPOS>ATOM
      1  C1        -8.9870   13.7700    7.7090 C.3   165  REA165     -0.0093
      2  C2       -10.1220   14.3850    8.5720 C.3   165  REA165     -0.0436
      3  C3        -9.6450   15.5450    9.3990 C.3   165  REA165     -0.0486
      4  C4        -8.6060   15.0660   10.3840 C.3   165  REA165     -0.0314
      5  C5        -7.6080   14.1120    9.7940 C.2   165  REA165     -0.0683
      6  C6        -7.7350   13.5520    8.5650 C.2   165  REA165     -0.0344
      7  C7        -6.6480   12.6930    8.0930 C.2   165  REA165     -0.0054
      8  C8        -6.2300   12.3870    6.8600 C.2   165  REA165     -0.0055
      9  C9        -5.1100   11.5100    6.5500 C.2   165  REA165     -0.0338
     10  C10       -4.4230   10.9350    7.5620 C.2   165  REA165     -0.0052
     11  C11       -3.2480   10.1080    7.4610 C.2   165  REA165     -0.0007
     12  C12       -2.5810    9.6380    8.5230 C.2   165  REA165     -0.0050
     13  C13       -1.3610    8.8480    8.5040 C.2   165  REA165     -0.0272
     14  C14       -0.7880    8.5700    9.6820 C.2   165  REA165      0.0810
     15  C15        0.4150    7.7740    9.9540 C.2   165  REA165      0.3876
     16  C16       -9.5630   12.4310    7.2130 C.3   165  REA165     -0.0558
     17  C17       -8.6890   14.6740    6.5110 C.3   165  REA165     -0.0558
     18  C18       -6.4390   13.8420   10.7250 C.3   165  REA165     -0.0432
     19  C19       -4.7320   11.3130    5.1080 C.3   165  REA165     -0.0385
     20  C20       -0.8160    8.4110    7.1810 C.3   165  REA165     -0.0383
     21  O1         0.7630    7.8200   11.2270 O.co2 165  REA165     -0.2406
     22  O2         1.0430    7.1190    9.1350 O.co2 165  REA165     -0.2406
     23  H21      -10.5490   13.6640    9.2680 H     165  REA165      0.0274
     24  H22      -10.9480   14.7560    7.9660 H     165  REA165      0.0274
     25  H31      -10.4880   15.9760    9.9400 H     165  REA165      0.0269
     26  H32       -9.2070   16.3000    8.7460 H     165  REA165      0.0269
     27  H41       -9.0240   14.5390   11.2410 H     165  REA165      0.0310
     28  H42       -8.0060   15.8680   10.8140 H     165  REA165      0.0310
     29 H161       -8.8380   11.9420    6.5610 H     165  REA165      0.0238
     30 H162       -9.7750   11.7880    8.0670 H     165  REA165      0.0238
     31 H163      -10.4840   12.6140    6.6590 H     165  REA165      0.0238
     32 H171       -9.6090   14.8580    5.9570 H     165  REA165      0.0238
     33 H172       -8.2810   15.6220    6.8630 H     165  REA165      0.0238
     34 H173       -7.9640   14.1870    5.8590 H     165  REA165      0.0238
     35 H181       -6.3420   14.6640   11.4350 H     165  REA165      0.0275
     36 H182       -6.6130   12.9130   11.2680 H     165  REA165      0.0275
     37 H183       -5.5220   13.7550   10.1420 H     165  REA165      0.0275
     38 H191       -4.7750   12.2690    4.5870 H     165  REA165      0.0278
     39 H192       -3.7200   10.9130    5.0490 H     165  REA165      0.0278
     40 H193       -5.4270   10.6140    4.6420 H     165  REA165      0.0278
     41 H201       -0.9840    9.1940    6.4420 H     165  REA165      0.0278
     42 H202        0.2530    8.2210    7.2730 H     165  REA165      0.0278
     43 H203       -1.3200    7.4980    6.8630 H     165  REA165      0.0278
@<TRIPOS>BOND
     1    38    19    1
     2    40    19    1
     3    39    19    1
     4    19     9    1
     5    34    17    1
     6    32    17    1
     7    41    20    1
     8    17    33    1
     9    17     1    1
    10     9     8    1
    11     9    10    2
    12    29    16    1
    13    31    16    1
    14     8     7    2
    15    43    20    1
    16    20    42    1
    17    20    13    1
    18    16     1    1
    19    16    30    1
    20    11    10    1
    21    11    12    2
    22     1     6    1
    23     1     2    1
    24    24     2    1
    25     7     6    1
    26    13    12    1
    27    13    14    2
    28     6     5    2
    29     2    23    1
    30     2     3    1
    31    26     3    1
    32    22    15   ar
    33     3    25    1
    34     3     4    1
    35    14    15    1
    36     5     4    1
    37     5    18    1
    38    15    21   ar
    39    37    18    1
    40     4    28    1
    41     4    27    1
    42    18    36    1
    43    18    35    1
