@<TRIPOS>MOLECULE
1epn_2ZS_E_1.pdb
 43 45 0 0 0
SMALL
GASTEIGER

@<TRIPOS>ATOM
      1  O1         0.9710   23.0370   20.2960 O.3   327  2ZS327     -0.3501
      2  C2         2.0800   23.1270   19.3030 C.3   327  2ZS327      0.1637
      3  C3         2.9490   24.2560   19.7190 C.3   327  2ZS327      0.1271
      4  N4         2.1430   25.4570   19.8590 N.am  327  2ZS327     -0.2577
      5  C5         0.8350   25.4220   20.3920 C.3   327  2ZS327      0.1271
      6  C6         0.0560   24.1520   20.1550 C.3   327  2ZS327      0.1637
      7  C          2.5790   26.7060   19.5070 C.2   327  2ZS327      0.3238
      8  O          1.7950   27.6700   19.7120 O.2   327  2ZS327     -0.2508
      9  N          3.7700   26.8570   19.0040 N.am  327  2ZS327     -0.1804
     10  CA         4.3050   28.1470   18.5880 C.3   327  2ZS327      0.1786
     11  C1         3.5060   28.6630   17.3490 C.2   327  2ZS327      0.2620
     12  O2         3.1020   27.9110   16.4220 O.2   327  2ZS327     -0.2715
     13  CB         5.7770   28.0520   18.2230 C.3   327  2ZS327      0.0575
     14  CG         6.6530   27.8990   19.4590 C.ar  327  2ZS327     -0.0200
     15  CD1        6.6940   28.8620   20.4400 C.ar  327  2ZS327     -0.0042
     16  CD2        7.3580   26.7650   19.5060 C.ar  327  2ZS327     -0.0042
     17  CE1        7.5400   28.5680   21.5250 C.ar  327  2ZS327     -0.0003
     18  CE2        8.1800   26.4580   20.5520 C.ar  327  2ZS327     -0.0003
     19  CZ         8.2320   27.3410   21.5240 C.ar  327  2ZS327     -0.0000
     20  N1         3.2330   30.0280   17.3340 N.am  327  2ZS327     -0.1954
     21  CA1        2.6260   30.6370   16.1390 C.3   327  2ZS327      0.1834
     22  CB1        1.1740   30.4950   15.6450 C.3   327  2ZS327      0.0886
     23  SG        -0.2750   29.6660   16.5430 S.3   327  2ZS327     -0.1370
     24  CS        -1.4150   31.0510   15.9740 C.3   327  2ZS327      0.0692
     25  C4         3.3860   31.9680   15.7850 C.2   327  2ZS327      0.2621
     26  O3         2.8540   32.9710   16.3240 O.2   327  2ZS327     -0.2715
     27  N2         4.8250   32.2950   15.6850 N.am  327  2ZS327     -0.2025
     28  CA2        5.6240   33.4390   15.1820 C.3   327  2ZS327      0.1367
     29  CB2        7.1700   33.1500   15.2470 C.3   327  2ZS327      0.0249
     30  CG1        8.0560   33.3510   16.5820 C.3   327  2ZS327      0.0018
     31 CD11        8.8930   32.0700   16.7940 C.3   327  2ZS327      0.0001
     32 CD21        7.3660   33.5690   17.8240 C.3   327  2ZS327      0.0001
     33 CE11        9.9130   32.2310   17.9180 C.3   327  2ZS327      0.0000
     34 CE21        8.3270   33.6820   19.0620 C.3   327  2ZS327      0.0000
     35  CZ1        9.1720   32.4150   19.2150 C.3   327  2ZS327      0.0000
     36  CH         5.3160   33.6790   13.6550 C.3   327  2ZS327      0.2692
     37  OH         5.4870   32.4730   12.9250 O.3   327  2ZS327     -0.2092
     38  C7         3.8720   34.1710   13.4040 C.2   327  2ZS327      0.3494
     39  O11        3.1720   35.0460   13.9840 O.2   327  2ZS327     -0.2472
     40  O21        3.0780   33.6430   12.3380 O.3   327  2ZS327     -0.4505
     41  CM         1.8260   34.5100   12.1250 C.3   327  2ZS327      0.1692
     42  CM1        1.7810   35.1700   10.7450 C.3   327  2ZS327      0.0473
     43  CM2        0.5210   33.7200   12.2470 C.3   327  2ZS327      0.0473
@<TRIPOS>BOND
     1    42    41    1
     2    41    43    1
     3    41    40    1
     4    40    38    1
     5    37    36    1
     6    38    36    1
     7    38    39    2
     8    36    28    1
     9    28    29    1
    10    28    27    1
    11    29    30    1
    12    22    21    1
    13    22    23    1
    14    27    25   am
    15    25    21    1
    16    25    26    2
    17    24    23    1
    18    21    20    1
    19    12    11    2
    20    30    31    1
    21    30    32    1
    22    31    33    1
    23    20    11   am
    24    11    10    1
    25    32    34    1
    26    33    35    1
    27    13    10    1
    28    13    14    1
    29    10     9    1
    30     9     7   am
    31    34    35    1
    32     2     3    1
    33     2     1    1
    34    14    16   ar
    35    14    15   ar
    36    16    18   ar
    37     7     8    2
    38     7     4   am
    39     3     4    1
    40     4     5    1
    41     6     1    1
    42     6     5    1
    43    15    17   ar
    44    18    19   ar
    45    19    17   ar
