@<TRIPOS>MOLECULE
1epo_2Z3_E_1.pdb
 46 48 0 0 0
SMALL
GASTEIGER

@<TRIPOS>ATOM
      1  O1        30.9720   -7.3220   -7.5670 O.3   327  2Z3327     -0.3501
      2  C2        30.7770   -6.5530   -6.3560 C.3   327  2Z3327      0.1637
      3  C3        32.0090   -6.3100   -5.7150 C.3   327  2Z3327      0.1271
      4  N4        32.8370   -7.4660   -5.6290 N.am  327  2Z3327     -0.2577
      5  C5        32.8620   -8.4650   -6.6830 C.3   327  2Z3327      0.1271
      6  C6        31.4860   -8.6410   -7.1880 C.3   327  2Z3327      0.1637
      7  C         33.6370   -7.6200   -4.5270 C.2   327  2Z3327      0.3238
      8  O         34.3590   -8.5990   -4.4530 O.2   327  2Z3327     -0.2508
      9  N         33.6170   -6.7070   -3.5780 N.am  327  2Z3327     -0.1804
     10  CA        34.4320   -6.8050   -2.3250 C.3   327  2Z3327      0.1786
     11  C1        33.8580   -7.8980   -1.3780 C.2   327  2Z3327      0.2620
     12  O2        32.7320   -8.1850   -1.2680 O.2   327  2Z3327     -0.2715
     13  CB        34.2260   -5.4560   -1.5280 C.3   327  2Z3327      0.0575
     14  CG        35.0450   -4.3950   -2.2620 C.ar  327  2Z3327     -0.0200
     15  CD1       36.3830   -4.5380   -2.4410 C.ar  327  2Z3327     -0.0042
     16  CD2       34.3630   -3.2670   -2.8110 C.ar  327  2Z3327     -0.0042
     17  CE1       37.1650   -3.6050   -3.1060 C.ar  327  2Z3327     -0.0003
     18  CE2       35.1440   -2.3490   -3.4730 C.ar  327  2Z3327     -0.0003
     19  CZ        36.4990   -2.4730   -3.6380 C.ar  327  2Z3327     -0.0000
     20  N1        34.8240   -8.5260   -0.6400 N.am  327  2Z3327     -0.1963
     21  CA1       34.4240   -9.6120    0.2950 C.3   327  2Z3327      0.1728
     22  C4        35.5270   -9.6380    1.4140 C.2   327  2Z3327      0.2614
     23  O3        36.5960  -10.1450    1.1750 O.2   327  2Z3327     -0.2715
     24  CB1       34.5110  -10.9620   -0.4720 C.3   327  2Z3327      0.0311
     25  CG1       34.2020  -12.1490    0.4110 C.3   327  2Z3327      0.0023
     26  CD        33.4710  -13.3180   -0.1940 C.3   327  2Z3327      0.0001
     27  CE        34.0330  -13.8210   -1.4670 C.3   327  2Z3327      0.0000
     28  N2        35.1960   -9.0450    2.5090 N.am  327  2Z3327     -0.1977
     29  CA2       36.2070   -8.7560    3.5860 C.3   327  2Z3327      0.1853
     30  CB2       36.6660   -7.3540    3.6360 C.3   327  2Z3327      0.0297
     31  CG2       36.9750   -6.6040    2.3700 C.3   327  2Z3327      0.0020
     32 CD11       38.2070   -7.0160    1.6900 C.3   327  2Z3327      0.0001
     33 CD21       36.8100   -5.1140    2.4840 C.3   327  2Z3327      0.0001
     34 CE11       38.6760   -6.2700    0.4530 C.3   327  2Z3327      0.0000
     35 CE21       37.3100   -4.3430    1.2730 C.3   327  2Z3327      0.0000
     36  CZ1       38.6020   -4.7580    0.7240 C.3   327  2Z3327      0.0000
     37  CH        35.6750   -9.3170    4.9050 C.3   327  2Z3327      0.4315
     38  OH1       34.3640   -8.7570    5.2470 O.2   327  2Z3327     -0.2669
     39  OH2       36.5070   -8.9240    5.9360 O.2   327  2Z3327     -0.2669
     40  CM        35.5910  -10.8480    4.9370 C.3   327  2Z3327      0.4082
     41  F1        35.1040  -11.2960    3.8410 F     327  2Z3327     -0.1861
     42  F2        34.7100  -11.2810    5.8530 F     327  2Z3327     -0.1861
     43  C7        36.9100  -11.4650    5.2600 C.2   327  2Z3327      0.3105
     44  O4        37.7810  -11.8210    4.4160 O.2   327  2Z3327     -0.2671
     45  N3        37.1720  -11.7830    6.5550 N.am  327  2Z3327     -0.1987
     46  C8        38.5090  -12.4190    6.8120 C.3   327  2Z3327      0.1387
@<TRIPOS>BOND
     1     1     6    1
     2     1     2    1
     3     6     5    1
     4     5     4    1
     5     2     3    1
     6     3     4    1
     7     4     7   am
     8     7     8    2
     9     7     9   am
    10    19    18   ar
    11    19    17   ar
    12     9    10    1
    13    18    16   ar
    14    17    15   ar
    15    16    14   ar
    16    15    14   ar
    17    10    13    1
    18    10    11    1
    19    14    13    1
    20    27    26    1
    21    11    12    2
    22    11    20   am
    23    20    21    1
    24    24    21    1
    25    24    25    1
    26    26    25    1
    27    21    22    1
    28    34    36    1
    29    34    32    1
    30    36    35    1
    31    23    22    2
    32    35    33    1
    33    22    28   am
    34    32    31    1
    35    31    33    1
    36    31    30    1
    37    28    29    1
    38    29    30    1
    39    29    37    1
    40    41    40    1
    41    44    43    2
    42    37    40    1
    43    37    38    1
    44    37    39    1
    45    40    43    1
    46    40    42    1
    47    43    45   am
    48    45    46    1
