@<TRIPOS>MOLECULE
1epp_1Z1_E_1.pdb
 47 47 0 0 0
SMALL
GASTEIGER

@<TRIPOS>ATOM
      1  N          3.8490   36.6850   12.2240 N.am  333  1Z1333     -0.2054
      2  CA         3.9160   38.0280   12.8450 C.3   333  1Z1333      0.1151
      3  CB         3.8700   39.1310   11.7780 C.3   333  1Z1333      0.0217
      4  CG1        3.6940   40.4670   12.6010 C.3   333  1Z1333      0.0018
      5  CG2        2.6370   38.9480   10.9090 C.3   333  1Z1333      0.0018
      6  CD1        4.3500   41.6290   11.8790 C.3   333  1Z1333      0.0001
      7  N1         4.0980   32.2220   14.7740 N.am  333  1Z1333     -0.2031
      8  CA1        4.9880   33.4360   14.6390 C.3   333  1Z1333      0.1261
      9  CB1        6.3970   33.0870   15.1250 C.3   333  1Z1333      0.0243
     10  CG         6.6100   32.5140   16.4990 C.3   333  1Z1333      0.0018
     11 CD11        7.9940   32.0160   16.7980 C.3   333  1Z1333      0.0001
     12  CD2        6.2620   33.5470   17.7020 C.3   333  1Z1333      0.0001
     13  CH         5.0380   33.8050   13.1090 C.3   333  1Z1333      0.1809
     14  OH         5.3950   32.6280   12.4320 O.3   333  1Z1333     -0.2208
     15  CM         3.6240   34.2220   12.6220 C.3   333  1Z1333      0.1214
     16  C          3.4380   35.6740   13.0400 C.2   333  1Z1333      0.2440
     17  O          2.9290   35.9070   14.1210 O.2   333  1Z1333     -0.2733
     18  N2         3.1770   30.2500   17.0990 N.am  333  1Z1333     -0.1966
     19  CA2        2.4710   30.9310   16.0490 C.3   333  1Z1333      0.1727
     20  C1         3.1160   32.2470   15.7100 C.2   333  1Z1333      0.2612
     21  O1         2.7850   33.2590   16.2730 O.2   333  1Z1333     -0.2715
     22  CB2        0.9780   30.9060   16.1100 C.3   333  1Z1333      0.0312
     23  CG3        0.4810   29.9250   15.0800 C.3   333  1Z1333      0.0041
     24  CD        -1.0370   30.1940   14.9770 C.3   333  1Z1333      0.0235
     25  CE        -1.4680   30.0240   16.4460 C.3   333  1Z1333      0.1141
     26  NZ        -2.4360   31.0460   16.7740 N.am  333  1Z1333     -0.2168
     27  C2        -3.4860   30.5610   17.6140 C.2   333  1Z1333      0.1702
     28  S         -4.7240   31.5600   18.1150 S.2   333  1Z1333     -0.0155
     29  N3        -3.4980   29.2060   18.0310 N.am  333  1Z1333     -0.2149
     30  CM1       -4.6470   28.8610   18.8830 C.3   333  1Z1333      0.1375
     31  N4         3.9000   27.1710   18.7470 N.3   333  1Z1333     -0.0583
     32  CA3        4.2750   28.4980   18.3380 C.3   333  1Z1333      0.1806
     33  C3         3.4770   28.9910   17.1450 C.2   333  1Z1333      0.2599
     34  O2         3.0630   28.1880   16.3340 O.2   333  1Z1333     -0.2717
     35  CB3        5.7680   28.5060   17.9040 C.3   333  1Z1333      0.0551
     36  CG4        6.7390   28.3460   19.0560 C.ar  333  1Z1333     -0.0202
     37 CD12        6.9860   27.1770   19.6880 C.ar  333  1Z1333     -0.0042
     38 CD21        7.4330   29.4840   19.4970 C.ar  333  1Z1333     -0.0042
     39  CE1        7.8860   26.9830   20.7710 C.ar  333  1Z1333     -0.0003
     40  CE2        8.3320   29.3350   20.5590 C.ar  333  1Z1333     -0.0003
     41  CZ         8.5660   28.1080   21.1970 C.ar  333  1Z1333     -0.0000
     42  S1         2.5630   27.0290   19.7660 S.O2  333  1Z1333      0.1163
     43  O11        2.9330   27.8050   21.0240 O.2   333  1Z1333     -0.1396
     44  O21        1.3660   27.5080   19.2970 O.2   333  1Z1333     -0.1396
     45  N5         2.4870   25.4020   20.3270 N.3   333  1Z1333     -0.1412
     46  C11        3.3730   25.3100   21.5310 C.3   333  1Z1333      0.1161
     47  C21        1.0760   25.1510   20.8390 C.3   333  1Z1333      0.1161
@<TRIPOS>BOND
     1     5     3    1
     2     3     4    1
     3     3     2    1
     4     6     4    1
     5     1     2    1
     6     1    16   am
     7    14    13    1
     8    15    16    1
     9    15    13    1
    10    16    17    2
    11    13     8    1
    12     8     7    1
    13     8     9    1
    14     7    20   am
    15    24    23    1
    16    24    25    1
    17    23    22    1
    18     9    10    1
    19    20    19    1
    20    20    21    2
    21    19    22    1
    22    19    18    1
    23    34    33    2
    24    25    26    1
    25    10    11    1
    26    10    12    1
    27    26    27    1
    28    18    33   am
    29    33    32    1
    30    27    29    1
    31    27    28    2
    32    35    32    1
    33    35    36    1
    34    29    30    1
    35    32    31    1
    36    31    42    1
    37    36    38   ar
    38    36    37   ar
    39    44    42    2
    40    38    40   ar
    41    37    39   ar
    42    42    45    1
    43    42    43    2
    44    45    47    1
    45    45    46    1
    46    40    41   ar
    47    39    41   ar
