@<TRIPOS>MOLECULE
1epq_0QF_E_1.pdb
 38 39 0 0 0
SMALL
GASTEIGER

@<TRIPOS>ATOM
      1  S          2.5130   26.8580   19.9220 S.3   327  0QF327      0.0657
      2  O1S        2.9150   27.7570   20.9730 O.3   327  0QF327     -0.0598
      3  O2S        1.3800   27.4970   19.3050 O.3   327  0QF327     -0.0598
      4  N          3.3180   26.8670   18.8810 N.3   327  0QF327     -0.0748
      5  CA         3.9880   28.0780   18.4200 C.3   327  0QF327      0.1789
      6  C          3.2950   28.6280   17.1980 C.2   327  0QF327      0.2606
      7  O          2.8370   27.8720   16.3370 O.2   327  0QF327     -0.2717
      8  CB         5.4220   27.7720   18.0490 C.3   327  0QF327      0.0550
      9  CG         6.3260   27.9180   19.2420 C.ar  327  0QF327     -0.0202
     10  CD1        6.3350   29.1240   19.9380 C.ar  327  0QF327     -0.0042
     11  CD2        7.1200   26.8470   19.6350 C.ar  327  0QF327     -0.0042
     12  CE1        7.1530   29.2660   21.0520 C.ar  327  0QF327     -0.0003
     13  CE2        7.9410   26.9860   20.7550 C.ar  327  0QF327     -0.0003
     14  CZ         7.9560   28.1970   21.4640 C.ar  327  0QF327     -0.0000
     15  N1         3.2450   29.9370   17.1640 N.am  327  0QF327     -0.1852
     16  CA1        2.6390   30.6630   16.0500 C.3   327  0QF327      0.2200
     17  C1         3.3440   32.0070   15.8760 C.2   327  0QF327      0.2718
     18  O2         2.9630   33.0130   16.4880 O.2   327  0QF327     -0.2705
     19  S1         0.8220   30.9790   16.2880 S.3   327  0QF327     -0.1106
     20  C11       -0.2300   29.4960   15.8910 C.3   327  0QF327      0.0597
     21  C21       -1.5610   29.8640   15.2340 C.3   327  0QF327      0.0126
     22  C12        5.1670   33.1840   14.7360 C.3   327  0QF327      0.1282
     23  N2         4.3680   31.9850   15.0390 N.am  327  0QF327     -0.2023
     24  C22        4.8790   33.6500   13.3010 C.3   327  0QF327      0.2018
     25  O21        5.2330   32.6290   12.3770 O.3   327  0QF327     -0.2186
     26  C31        3.3850   33.9690   13.1620 C.3   327  0QF327      0.1839
     27  O3         3.0190   35.1530   14.0580 O.3   327  0QF327     -0.2204
     28  C4         3.0280   34.3300   11.7170 C.3   327  0QF327      0.0356
     29  C51        1.5260   34.6330   11.6200 C.3   327  0QF327      0.0026
     30  C61        0.7180   33.3470   11.8200 C.3   327  0QF327      0.0001
     31  C7         1.1910   35.2180   10.2460 C.3   327  0QF327      0.0001
     32  C7'        6.6630   32.8800   14.9000 C.3   327  0QF327      0.0244
     33  C1'        7.0290   32.3230   16.2870 C.3   327  0QF327      0.0018
     34  C2'        6.6760   33.3410   17.3820 C.3   327  0QF327      0.0001
     35  C6'        8.4070   32.0510   16.3450 C.3   327  0QF327      0.0001
     36  C3'        6.9910   32.7630   18.7690 C.3   327  0QF327      0.0000
     37  C5'        8.7680   31.3890   17.6790 C.3   327  0QF327      0.0000
     38  C4'        8.4570   32.3360   18.8350 C.3   327  0QF327      0.0000
@<TRIPOS>BOND
     1    31    29    1
     2    29    28    1
     3    29    30    1
     4    28    26    1
     5    25    24    1
     6    26    24    1
     7    26    27    1
     8    24    22    1
     9    22    32    1
    10    22    23    1
    11    32    33    1
    12    23    17   am
    13    21    20    1
    14    17    16    1
    15    17    18    2
    16    20    19    1
    17    16    19    1
    18    16    15    1
    19    33    35    1
    20    33    34    1
    21     7     6    2
    22    35    37    1
    23    15     6   am
    24     6     5    1
    25    34    36    1
    26    37    38    1
    27     8     5    1
    28     8     9    1
    29     5     4    1
    30    36    38    1
    31     4     1    1
    32     9    11   ar
    33     9    10   ar
    34     3     1    1
    35    11    13   ar
    36     1     2    1
    37    10    12   ar
    38    13    14   ar
    39    12    14   ar
