@<TRIPOS>MOLECULE
1epv_DCS_A_1.pdb
 22 23 0 0 0
SMALL
GASTEIGER

@<TRIPOS>ATOM
      1  N1        23.7030   10.7880   68.9690 N.ar  1001  DCS1001    -0.2452
      2  C2        24.8280   11.4100   69.3680 C.ar  1001  DCS1001     0.0978
      3  C2A       26.0700   10.6090   69.6600 C.3   1001  DCS1001     0.0555
      4  C3        24.8620   12.8230   69.4570 C.ar  1001  DCS1001     0.2065
      5  O3        26.0030   13.4220   69.8090 O.3   1001  DCS1001    -0.2856
      6  C4        23.7300   13.5760   69.1500 C.ar  1001  DCS1001     0.0394
      7  C4A       23.6470   15.0560   69.1280 C.3   1001  DCS1001     0.1425
      8  C5        22.5280   12.8690   68.7760 C.ar  1001  DCS1001     0.0278
      9  C6        22.5720   11.4600   68.6950 C.ar  1001  DCS1001     0.0965
     10  C5A       21.2350   13.5510   68.4110 C.3   1001  DCS1001     0.1816
     11  O4P       20.9360   13.3270   67.0320 O.3   1001  DCS1001    -0.2653
     12  P         19.9160   14.4330   66.4760 P.3   1001  DCS1001     0.5329
     13  O1P       19.6920   15.7210   67.6740 O.3   1001  DCS1001    -0.1145
     14  O2P       20.5350   15.1060   64.9610 O.2   1001  DCS1001    -0.2224
     15  O3P       18.3430   13.6510   66.1750 O.3   1001  DCS1001    -0.1145
     16  N         24.9900   15.5980   68.7450 N.pl3 1001  DCS1001    -0.2188
     17  CA        25.0560   16.8670   68.1800 C.2   1001  DCS1001     0.1923
     18  C         26.2460   17.4820   67.7090 C.1   1001  DCS1001     0.2075
     19  O         27.4740   16.9030   67.7030 O.2   1001  DCS1001    -0.2176
     20  ND        25.9340   18.6260   67.1640 N.2   1001  DCS1001     0.0013
     21  OG        24.5760   18.8280   67.3180 O.2   1001  DCS1001    -0.3387
     22  CB        24.0450   17.7670   67.9680 C.2   1001  DCS1001     0.2410
@<TRIPOS>BOND
     1    14    12    2
     2    15    12    1
     3    12    11    1
     4    12    13    1
     5    11    10    1
     6    20    21    1
     7    20    18    2
     8    21    22    1
     9    19    18    2
    10    18    17    1
    11    22    17    2
    12    17    16    1
    13    10     8    1
    14     9     8   ar
    15     9     1   ar
    16    16     7    1
    17     8     6   ar
    18     1     2   ar
    19     7     6    1
    20     6     4   ar
    21     2     4   ar
    22     2     3    1
    23     4     5    1
