@<TRIPOS>MOLECULE
1eq2_NAP_A_1.pdb
 48 52 0 0 0
SMALL
GASTEIGER

@<TRIPOS>ATOM
      1  PA        22.8860   37.6820   45.0810 P.3   2400  NAP2400     0.2189
      2  O1A       22.3930   38.2450   46.3490 O.3   2400  NAP2400    -0.4371
      3  O2A       22.4680   38.4970   43.8930 O.2   2400  NAP2400    -0.5170
      4  O5B       22.3550   36.1510   44.8800 O.3   2400  NAP2400    -0.3112
      5  C5B       22.3550   35.1890   46.0090 C.3   2400  NAP2400     0.1813
      6  C4B       20.8530   34.6990   46.0990 C.3   2400  NAP2400     0.1820
      7  O4B       20.7550   33.5870   47.0130 O.3   2400  NAP2400    -0.3136
      8  C3B       19.8910   35.8070   46.6200 C.3   2400  NAP2400     0.2157
      9  O3B       18.7880   35.8590   45.7540 O.3   2400  NAP2400    -0.2175
     10  C2B       19.6100   35.3130   48.1250 C.3   2400  NAP2400     0.2314
     11  O2B       18.3740   35.6690   48.7170 O.3   2400  NAP2400    -0.2630
     12  C1B       19.6830   33.8240   47.9350 C.3   2400  NAP2400     0.3158
     13  N9A       20.0750   33.0780   49.0920 N.pl3 2400  NAP2400    -0.1439
     14  C8A       20.4890   33.5300   50.3300 C.3   2400  NAP2400     0.3377
     15  N7A       20.8040   32.5590   51.1690 N.2   2400  NAP2400    -0.2095
     16  C5A       20.5860   31.4340   50.4210 C.2   2400  NAP2400     0.2526
     17  C6A       20.7610   30.0450   50.7400 C.2   2400  NAP2400     0.4393
     18  N6A       21.2130   29.6880   51.9580 N.pl3 2400  NAP2400     0.2180
     19  N1A       20.4390   29.1250   49.7480 N.2   2400  NAP2400     0.0021
     20  C2A       19.9850   29.5980   48.5250 C.3   2400  NAP2400     0.5254
     21  N3A       19.8100   30.8550   48.1480 N.2   2400  NAP2400    -0.0055
     22  C4A       20.1300   31.7230   49.1540 C.2   2400  NAP2400     0.3518
     23  O3        24.3900   37.4970   45.0770 O.3   2400  NAP2400    -0.2703
     24  PN        25.6530   37.3570   44.1250 P.3   2400  NAP2400     0.2189
     25  O1N       26.3470   38.6680   43.9470 O.3   2400  NAP2400    -0.4371
     26  O2N       25.3550   36.6400   42.8450 O.2   2400  NAP2400    -0.5170
     27  O5D       26.6240   36.3610   44.9870 O.3   2400  NAP2400    -0.3112
     28  C5D       26.4390   34.9360   44.8000 C.3   2400  NAP2400     0.1813
     29  C4D       27.4900   34.2820   45.6960 C.3   2400  NAP2400     0.1799
     30  O4D       28.7540   34.9180   45.4150 O.3   2400  NAP2400    -0.3327
     31  C3D       27.1890   34.5310   47.2040 C.3   2400  NAP2400     0.2158
     32  O3D       27.4960   33.3340   47.9530 O.3   2400  NAP2400    -0.2175
     33  C2D       28.1240   35.7760   47.4820 C.3   2400  NAP2400     0.2309
     34  O2D       28.4390   35.8690   48.8840 O.3   2400  NAP2400    -0.2158
     35  C1D       29.3430   35.4220   46.6250 C.3   2400  NAP2400     0.2263
     36  N1N       30.2540   36.5840   46.3070 N.pl3 2400  NAP2400    -0.2787
     37  C2N       29.7890   37.5070   45.3130 C.3   2400  NAP2400     0.1244
     38  C3N       30.6440   38.5850   45.0000 C.2   2400  NAP2400     0.0544
     39  C7N       30.1350   39.6050   43.8930 C.2   2400  NAP2400     0.2818
     40  O7N       29.0400   39.3910   43.3620 O.2   2400  NAP2400    -0.2670
     41  N7N       30.9770   40.6620   43.6040 N.am  2400  NAP2400    -0.0839
     42  C4N       31.9400   38.8230   45.6060 C.2   2400  NAP2400     0.0033
     43  C5N       32.2640   37.8140   46.5850 C.2   2400  NAP2400     0.0157
     44  C6N       31.4920   36.7400   46.9400 C.2   2400  NAP2400     0.0633
     45  P2B       18.3810   36.3800   50.3040 P.3   2400  NAP2400     0.5328
     46  O1X       19.8460   36.7190   50.4120 O.3   2400  NAP2400    -0.1145
     47  O2X       17.4800   37.5520   50.0880 O.2   2400  NAP2400    -0.2224
     48  O3X       17.8770   35.3540   51.2000 O.3   2400  NAP2400    -0.1145
@<TRIPOS>BOND
     1    26    24    2
     2    40    39    2
     3    41    39   am
     4     3     1    2
     5    39    38    1
     6    25    24    1
     7    24    27    1
     8    24    23    1
     9    28    27    1
    10    28    29    1
    11     4     1    1
    12     4     5    1
    13    38    37    1
    14    38    42    2
    15    23     1    1
    16     1     2    1
    17    37    36    1
    18    30    29    1
    19    30    35    1
    20    42    43    1
    21    29    31    1
    22     9     8    1
    23     5     6    1
    24     6     8    1
    25     6     7    1
    26    36    35    1
    27    36    44    1
    28    43    44    2
    29     8    10    1
    30    35    33    1
    31     7    12    1
    32    31    33    1
    33    31    32    1
    34    33    34    1
    35    12    10    1
    36    12    13    1
    37    10    11    1
    38    21    20    1
    39    21    22    2
    40    20    19    1
    41    11    45    1
    42    13    22    1
    43    13    14    1
    44    22    16    1
    45    19    17    2
    46    47    45    2
    47    45    46    1
    48    45    48    1
    49    14    15    1
    50    16    17    1
    51    16    15    2
    52    17    18    1
