@<TRIPOS>MOLECULE
1eq2_ADQ_A_1.pdb
 27 29 0 0 0
SMALL
GASTEIGER

@<TRIPOS>ATOM
      1  PB        32.4260   45.2680   47.6970 P.3   2500  ADQ2500     0.5373
      2  O1B       32.5730   46.1740   46.5120 O.2   2500  ADQ2500    -0.2221
      3  O2B       33.5450   44.0650   47.7880 O.3   2500  ADQ2500    -0.1143
      4  O3B       31.0600   44.6740   47.7300 O.3   2500  ADQ2500    -0.1143
      5  PA        32.3180   47.5410   49.5030 P.3   2500  ADQ2500     0.2231
      6  O1A       33.5600   48.3200   49.7220 O.2   2500  ADQ2500    -0.5169
      7  O2A       31.5680   47.3730   50.7630 O.3   2500  ADQ2500    -0.4370
      8  O3A       32.7290   46.1140   48.9630 O.3   2500  ADQ2500    -0.2261
      9  O5D       31.3920   48.1970   48.3580 O.3   2500  ADQ2500    -0.3111
     10  C5D       31.1460   49.6330   48.3490 C.3   2500  ADQ2500     0.1813
     11  C4D       29.7330   49.9090   47.7760 C.3   2500  ADQ2500     0.1821
     12  O4D       29.5270   51.3410   47.6870 O.3   2500  ADQ2500    -0.3135
     13  C3D       29.5160   49.3640   46.3540 C.3   2500  ADQ2500     0.2184
     14  O3D       28.4290   48.4150   46.2880 O.3   2500  ADQ2500    -0.2174
     15  C2D       29.2350   50.5760   45.4430 C.3   2500  ADQ2500     0.2570
     16  O2D       27.8800   50.5930   44.9480 O.3   2500  ADQ2500    -0.2130
     17  C1D       29.6130   51.7830   46.3080 C.3   2500  ADQ2500     0.3186
     18  N9        31.0210   52.3530   46.0340 N.pl3 2500  ADQ2500    -0.1439
     19  C8        32.1740   51.7550   46.3930 C.3   2500  ADQ2500     0.3377
     20  N7        33.2160   52.4070   45.8630 N.2   2500  ADQ2500    -0.2095
     21  C5        32.7670   53.4150   45.1550 C.2   2500  ADQ2500     0.2526
     22  C6        33.3550   54.4310   44.3900 C.2   2500  ADQ2500     0.4393
     23  N6        34.6930   54.5040   44.2720 N.pl3 2500  ADQ2500     0.2180
     24  N1        32.5740   55.3650   43.7760 N.2   2500  ADQ2500     0.0021
     25  C2        31.2290   55.3300   43.8800 C.3   2500  ADQ2500     0.5254
     26  N3        30.6440   54.3550   44.6080 N.2   2500  ADQ2500    -0.0055
     27  C4        31.3530   53.3970   45.2610 C.2   2500  ADQ2500     0.3518
@<TRIPOS>BOND
     1    24    25    1
     2    24    22    2
     3    25    26    1
     4    23    22    1
     5    22    21    1
     6    26    27    2
     7    16    15    1
     8    21    27    1
     9    21    20    2
    10    27    18    1
    11    15    17    1
    12    15    13    1
    13    20    19    1
    14    18    17    1
    15    18    19    1
    16    14    13    1
    17    17    12    1
    18    13    11    1
    19     2     1    2
    20    12    11    1
    21     1     4    1
    22     1     3    1
    23     1     8    1
    24    11    10    1
    25    10     9    1
    26     9     5    1
    27     8     5    1
    28     5     6    2
    29     5     7    1
