@<TRIPOS>MOLECULE
1eq9_PMS_A_1.pdb
 10 10 0 0 0
SMALL
GASTEIGER

@<TRIPOS>ATOM
      1  C         36.6770   10.9070   35.8620 C.3   1201  PMS1201     0.1742
      2  C1        37.5480   11.2370   37.0510 C.ar  1201  PMS1201     0.0010
      3  C2        37.1790   12.1090   38.0510 C.ar  1201  PMS1201    -0.0026
      4  C3        37.8390   12.5320   39.1830 C.ar  1201  PMS1201    -0.0003
      5  C4        39.1480   12.0210   39.4410 C.ar  1201  PMS1201    -0.0000
      6  C5        39.6310   11.0920   38.4450 C.ar  1201  PMS1201    -0.0003
      7  C6        38.8800   10.7020   37.2900 C.ar  1201  PMS1201    -0.0026
      8  S         35.3110    9.7790   36.0320 S.3   1201  PMS1201    -0.0138
      9  O1S       35.6730    8.4660   36.7090 O.3   1201  PMS1201    -0.0778
     10  O2S       34.7520    9.4230   34.7870 O.3   1201  PMS1201    -0.0778
@<TRIPOS>BOND
     1    10     8    1
     2     1     8    1
     3     1     2    1
     4     8     9    1
     5     2     7   ar
     6     2     3   ar
     7     7     6   ar
     8     3     4   ar
     9     6     5   ar
    10     4     5   ar
