@<TRIPOS>MOLECULE
1eqa_MG7_A_1.pdb
 21 23 0 0 0
SMALL
GASTEIGER

@<TRIPOS>ATOM
      1  N9        16.4460   12.0020   22.8010 N.pl3 600  MG7600     -0.2454
      2  C8        15.6940   13.0580   23.2270 C.3   600  MG7600      0.1735
      3  N7        15.8730   14.1410   22.5550 N.3   600  MG7600     -0.2343
      4  C5        16.8220   13.7960   21.6120 C.3   600  MG7600      0.2475
      5  C6        17.4060   14.5860   20.6030 C.1   600  MG7600      0.2145
      6  O6        17.1770   15.7610   20.3510 O.2   600  MG7600     -0.2115
      7  N1        18.3230   13.8770   19.8630 N.2   600  MG7600     -0.2526
      8  C2        18.6590   12.5490   20.0470 C.1   600  MG7600      0.2525
      9  N2        19.5660   12.0280   19.2200 N.pl3 600  MG7600     -0.0226
     10  N3        18.0980   11.7990   21.0060 N.2   600  MG7600     -0.3118
     11  C4        17.1900   12.4840   21.7490 C.2   600  MG7600      0.2086
     12  O5'       13.1860   11.1370   25.6180 O.3   600  MG7600     -0.2176
     13  C5'       13.5550    9.7670   25.3880 C.3   600  MG7600      0.2142
     14  C4'       14.9260    9.5910   24.7350 C.3   600  MG7600      0.1828
     15  O4'       14.9950   10.3240   23.5120 O.3   600  MG7600     -0.3325
     16  C1'       16.3880   10.6130   23.2870 C.3   600  MG7600      0.2287
     17  CN7       15.1610   15.3790   22.7870 C.3   600  MG7600      0.0924
     18  C2'       17.1500   10.3950   24.5990 C.3   600  MG7600      0.2310
     19  O2'       17.9650    9.2300   24.4240 O.3   600  MG7600     -0.2158
     20  C3'       16.0270   10.1770   25.5960 C.3   600  MG7600      0.2159
     21  O3'       16.4310    9.2450   26.6160 O.3   600  MG7600     -0.2175
@<TRIPOS>BOND
     1     9     8    1
     2     7     8    2
     3     7     5    2
     4     8    10    2
     5     6     5    2
     6     5     4    1
     7    10    11    2
     8     4    11    1
     9     4     3    1
    10    11     1    1
    11     3    17    1
    12     3     2    1
    13     1     2    1
    14     1    16    1
    15    16    15    1
    16    16    18    1
    17    15    14    1
    18    19    18    1
    19    18    20    1
    20    14    13    1
    21    14    20    1
    22    13    12    1
    23    20    21    1
