@<TRIPOS>MOLECULE
1eqa_SAH_A_1.pdb
 30 32 0 0 0
SMALL
GASTEIGER

@<TRIPOS>ATOM
      1  N         -4.5370   12.7670   24.1200 N.3   400  SAH400     -0.2362
      2  CA        -4.5710   11.7670   25.1860 C.3   400  SAH400      0.1728
      3  CB        -3.2690   10.9670   25.2050 C.3   400  SAH400      0.0403
      4  CG        -2.9490   10.2740   23.8880 C.3   400  SAH400      0.0596
      5  SD        -1.7290    9.0130   24.0630 S.3   400  SAH400     -0.1375
      6  C         -4.7990   12.4260   26.5410 C.2   400  SAH400      0.3800
      7  O         -5.3450   13.5470   26.5300 O.co2 400  SAH400     -0.2441
      8  OXT       -4.7180   11.7150   27.5640 O.co2 400  SAH400     -0.2441
      9  C5'       -1.7250    8.4200   22.3490 C.3   400  SAH400      0.0899
     10  C4'       -3.0000    7.6860   21.9780 C.3   400  SAH400      0.1629
     11  O4'       -3.1400    7.6680   20.5470 O.3   400  SAH400     -0.3154
     12  C3'       -3.1090    6.2900   22.5130 C.3   400  SAH400      0.2132
     13  O3'       -4.2380    6.2620   23.4620 O.3   400  SAH400     -0.2176
     14  C2'       -3.3680    5.4700   21.3390 C.3   400  SAH400      0.2171
     15  O2'       -4.3400    4.3850   21.4890 O.3   400  SAH400     -0.3762
     16  C1'       -3.9390    6.4620   20.4240 C.3   400  SAH400      0.3149
     17  N9        -3.8370    6.0430   19.0430 N.pl3 400  SAH400     -0.1440
     18  C8        -2.7310    5.5760   18.3610 C.3   400  SAH400      0.3377
     19  N7        -3.0410    5.3520   16.9940 N.2   400  SAH400     -0.2098
     20  C5        -4.4050    5.7140   16.9140 C.2   400  SAH400      0.2438
     21  C6        -5.3440    5.7310   15.8750 C.2   400  SAH400      0.3428
     22  N6        -5.0540    5.3870   14.6070 N.pl3 400  SAH400     -0.2449
     23  N1        -6.5740    6.1260   16.1480 N.2   400  SAH400     -0.0059
     24  C2        -6.8960    6.4900   17.3370 C.3   400  SAH400      0.5252
     25  N3        -6.1140    6.5150   18.3740 N.2   400  SAH400     -0.0055
     26  C4        -4.8690    6.1150   18.1180 C.2   400  SAH400      0.3515
     27  HN1       -4.3990   12.4440   23.2080 H     400  SAH400      0.1419
     28 HO2'       -4.0050    3.7340   20.8660 H     400  SAH400      0.2107
     29 HN61       -4.1090    5.1080   14.3690 H     400  SAH400      0.2885
     30 HN62       -5.7410    5.3760   13.8540 H     400  SAH400      0.2885
@<TRIPOS>BOND
     1    30    22    1
     2    29    22    1
     3    22    21    1
     4    21    23    2
     5    21    20    1
     6    23    24    1
     7    20    19    2
     8    20    26    1
     9    19    18    1
    10    24    25    1
    11    26    25    2
    12    26    17    1
    13    18    17    1
    14    17    16    1
    15    16    11    1
    16    16    14    1
    17    11    10    1
    18    28    15    1
    19    14    15    1
    20    14    12    1
    21    10     9    1
    22    10    12    1
    23     9     5    1
    24    12    13    1
    25    27     1    1
    26     4     5    1
    27     4     3    1
    28     1     2    1
    29     2     3    1
    30     2     6    1
    31     7     6   ar
    32     6     8   ar
