@<TRIPOS>MOLECULE
1eqb_PLP_A_1.pdb
 15 15 0 0 0
SMALL
GASTEIGER

@<TRIPOS>ATOM
      1  N1         5.3650   90.6930   49.2800 N.ar  1291  PLP1291    -0.2452
      2  C2         5.6320   90.3880   47.9890 C.ar  1291  PLP1291     0.0978
      3  C2A        4.4670   90.1130   47.1110 C.3   1291  PLP1291     0.0555
      4  C3         7.0100   90.3600   47.6130 C.ar  1291  PLP1291     0.2049
      5  O3         7.3070   90.0750   46.3760 O.3   1291  PLP1291    -0.2857
      6  C4         8.0140   90.6270   48.6080 C.ar  1291  PLP1291     0.0182
      7  C4A        9.4170   90.5730   48.2000 C.3   1291  PLP1291     0.0342
      8  C5         7.6730   90.9180   49.9390 C.ar  1291  PLP1291     0.0261
      9  C6         6.2930   90.9580   50.2550 C.ar  1291  PLP1291     0.0965
     10  C5A        8.5440   91.1410   51.1150 C.3   1291  PLP1291     0.1815
     11  O4P        9.4940   92.1730   51.0780 O.3   1291  PLP1291    -0.2653
     12  P         10.8440   92.2450   51.8290 P.3   1291  PLP1291     0.5329
     13  O1P       10.5210   91.5980   53.1390 O.3   1291  PLP1291    -0.1145
     14  O2P       11.8450   91.4570   50.9250 O.2   1291  PLP1291    -0.2224
     15  O3P       11.3860   93.6340   51.9790 O.3   1291  PLP1291    -0.1145
@<TRIPOS>BOND
     1     5     4    1
     2     3     2    1
     3     4     2   ar
     4     4     6   ar
     5     2     1   ar
     6     7     6    1
     7     6     8   ar
     8     1     9   ar
     9     8     9   ar
    10     8    10    1
    11    14    12    2
    12    11    10    1
    13    11    12    1
    14    12    15    1
    15    12    13    1
