@<TRIPOS>MOLECULE
1eqb_FFO_A_1.pdb
 34 36 0 0 0
SMALL
GASTEIGER

@<TRIPOS>ATOM
      1  N1         9.3360   83.7480   43.5750 N.2   1293  FFO1293    -0.2723
      2  C2         8.1500   83.3420   44.0560 C.1   1293  FFO1293     0.2603
      3  NA2        7.1480   82.7240   43.4750 N.pl3 1293  FFO1293    -0.0221
      4  N3         7.9470   83.6290   45.4240 N.2   1293  FFO1293    -0.2512
      5  C4         8.8230   84.2770   46.2830 C.1   1293  FFO1293     0.2256
      6  O4         8.5410   84.4880   47.5030 O.2   1293  FFO1293    -0.2106
      7  C4A       10.1050   84.7060   45.6730 C.3   1293  FFO1293     0.2939
      8  N5        11.1560   85.4050   46.4120 N.am  1293  FFO1293    -0.2448
      9  C6        12.4700   85.0420   45.9540 C.3   1293  FFO1293     0.1243
     10  C7        12.4600   85.2400   44.4840 C.3   1293  FFO1293     0.1586
     11  N8        11.5480   84.5690   43.7290 N.2   1293  FFO1293    -0.2090
     12  C8A       10.3010   84.4040   44.3300 C.1   1293  FFO1293     0.1088
     13  C9        12.8080   83.5550   46.1510 C.3   1293  FFO1293     0.1340
     14  N10       12.8740   83.2410   47.6260 N.pl3 1293  FFO1293    -0.2358
     15  C11       12.6010   79.5840   49.5120 C.ar  1293  FFO1293     0.0551
     16  C12       13.3250   80.6610   50.1370 C.ar  1293  FFO1293     0.0059
     17  C13       13.4090   81.8860   49.4910 C.ar  1293  FFO1293     0.0162
     18  C14       12.7430   81.9760   48.2060 C.ar  1293  FFO1293     0.0654
     19  C15       12.0470   80.9960   47.5700 C.ar  1293  FFO1293     0.0162
     20  C16       11.9960   79.7700   48.2770 C.ar  1293  FFO1293     0.0059
     21  C         12.4710   78.2600   50.1260 C.2   1293  FFO1293     0.2655
     22  O         11.3960   77.6620   49.9790 O.2   1293  FFO1293    -0.2683
     23  N         13.4590   77.7120   50.8240 N.am  1293  FFO1293    -0.1872
     24  CA        13.2970   76.4450   51.6000 C.3   1293  FFO1293     0.2202
     25  CB        13.8190   75.2610   50.7250 C.2   1293  FFO1293     0.0133
     26  CG        15.1460   75.6010   49.8030 C.2   1293  FFO1293     0.0838
     27  CD        15.9660   74.5310   49.0220 C.2   1293  FFO1293     0.3877
     28  OE1       15.5280   74.2730   47.8930 O.co2 1293  FFO1293    -0.2406
     29  OE2       17.0270   73.9650   49.5940 O.co2 1293  FFO1293    -0.2406
     30  CT        14.1470   76.4940   52.8270 C.2   1293  FFO1293     0.3884
     31  O1        15.0880   77.2970   52.9340 O.co2 1293  FFO1293    -0.2434
     32  O2        13.8820   75.7040   53.7530 O.co2 1293  FFO1293    -0.2434
     33  C5A       10.7860   86.4220   47.2010 C.2   1293  FFO1293     0.3045
     34  O5B       11.6730   87.0230   47.8470 O.2   1293  FFO1293    -0.2649
@<TRIPOS>BOND
     1     3     2    1
     2     1     2    2
     3     1    12    2
     4    11    12    2
     5    11    10    1
     6     2     4    2
     7    12     7    1
     8    10     9    1
     9     4     5    2
    10     7     5    1
    11     7     8    1
    12     9    13    1
    13     9     8    1
    14    13    14    1
    15     5     6    2
    16     8    33   am
    17    33    34    2
    18    19    18   ar
    19    19    20   ar
    20    14    18    1
    21    28    27   ar
    22    18    17   ar
    23    20    15   ar
    24    27    29   ar
    25    27    26    1
    26    17    16   ar
    27    15    21    1
    28    15    16   ar
    29    26    25    2
    30    22    21    2
    31    21    23   am
    32    25    24    1
    33    23    24    1
    34    24    30    1
    35    30    31   ar
    36    30    32   ar
