@<TRIPOS>MOLECULE
1eqc_CTS_A_1.pdb
 13 14 0 0 0
SMALL
GASTEIGER

@<TRIPOS>ATOM
      1  C1        33.4400   37.0920   57.0870 C.3   401  CTS401      0.1082
      2  C2        32.8900   35.8950   56.2880 C.3   401  CTS401      0.2006
      3  C3        34.0050   35.2170   55.4850 C.3   401  CTS401      0.2150
      4  C4        35.0440   36.2820   55.1170 C.3   401  CTS401      0.2017
      5  C5        35.7630   36.7420   56.4040 C.3   401  CTS401      0.1215
      6  C6        36.6150   38.0170   56.3110 C.3   401  CTS401      0.1704
      7  O2        32.2660   34.9570   57.1370 O.3   401  CTS401     -0.2188
      8  O3        33.3990   34.7060   54.2680 O.3   401  CTS401     -0.2176
      9  O4        36.0330   35.7950   54.2330 O.3   401  CTS401     -0.2188
     10  O6        35.8660   39.0730   55.7020 O.3   401  CTS401     -0.2216
     11  N         34.8380   36.9200   57.4880 N.3   401  CTS401     -0.2673
     12  C7        36.7760   38.2990   57.8280 C.3   401  CTS401      0.0517
     13  C8        35.2940   38.0930   58.2670 C.3   401  CTS401      0.0749
@<TRIPOS>BOND
     1     9     4    1
     2     8     3    1
     3     4     3    1
     4     4     5    1
     5     3     2    1
     6    10     6    1
     7     2     1    1
     8     2     7    1
     9     6     5    1
    10     6    12    1
    11     5    11    1
    12     1    11    1
    13    11    13    1
    14    12    13    1
