@<TRIPOS>MOLECULE
1eqd_HEV_A_1.pdb
 45 52 0 0 0
SMALL
GASTEIGER

@<TRIPOS>ATOM
      1 FE         11.0270   20.2760   36.1880 Fe    185  HEV185      0.0000
      2  CHA       11.4880   23.1900   34.7240 C.2   185  HEV185      0.0000
      3  CHB        7.6860   20.4720   35.6890 C.2   185  HEV185      0.0000
      4  CHC       10.6350   17.5610   38.1720 C.2   185  HEV185      0.0000
      5  CHD       14.3960   19.6500   36.1420 C.2   185  HEV185      0.0000
      6  NA         9.8430   21.5790   35.3910 N.2   185  HEV185      0.0000
      7  C1A       10.1840   22.8470   35.0290 C.2   185  HEV185      0.0000
      8  C2A        8.9630   23.5640   34.5830 C.2   185  HEV185      0.0000
      9  C3A        7.8630   22.8320   34.9070 C.2   185  HEV185      0.0000
     10  C4A        8.4440   21.5810   35.4010 C.2   185  HEV185      0.0000
     11  CMA        6.3570   23.1720   34.8280 C.3   185  HEV185      0.0000
     12  CAA        9.0200   24.9890   33.9720 C.3   185  HEV185      0.0000
     13  CBA        8.6770   25.9810   35.1020 C.3   185  HEV185      0.0000
     14  CGA        8.7850   27.4450   34.6870 C.2   185  HEV185      0.0000
     15  O1A        9.6140   27.7480   33.7930 O.co2 185  HEV185      0.0000
     16  O2A        8.0170   28.2640   35.2710 O.co2 185  HEV185      0.0000
     17  NB         9.4950   19.2670   36.8880 N.ar  185  HEV185      0.0000
     18  C1B        8.1640   19.4400   36.5400 C.ar  185  HEV185      0.0000
     19  C2B        7.2700   18.3790   37.0450 C.ar  185  HEV185      0.0000
     20  C3B        8.1290   17.6430   37.8970 C.ar  185  HEV185      0.0000
     21  C4B        9.5010   18.0960   37.6120 C.ar  185  HEV185      0.0000
     22  CMB        5.7680   18.4070   36.9510 C.2   185  HEV185      0.0000
     23  CM1       13.5030   15.9230   40.4740 C.2   185  HEV185      0.0000
     24  CAB        7.7820   16.5380   38.7310 C.2   185  HEV185      0.0000
     25  CBB        7.4700   16.5920   40.0460 C.2   185  HEV185      0.0000
     26  NC        12.2960   18.8390   36.9610 N.2   185  HEV185      0.0000
     27  C1C       11.9600   17.8280   37.7560 C.2   185  HEV185      0.0000
     28  C2C       13.1810   17.1880   38.3520 C.2   185  HEV185      0.0000
     29  C3C       14.1740   17.6000   37.6220 C.2   185  HEV185      0.0000
     30  C4C       13.6180   18.7150   36.7530 C.2   185  HEV185      0.0000
     31  CMC       13.2470   15.8480   39.1390 C.2   185  HEV185      0.0000
     32  CM2        4.9290   17.9940   37.9420 C.2   185  HEV185      0.0000
     33  CAC       15.3780   16.9520   37.5570 C.3   185  HEV185      0.0000
     34  CBC       15.4030   16.0190   36.5910 C.3   185  HEV185      0.0000
     35  ND        12.5500   21.1620   35.5120 N.ar  185  HEV185      0.0000
     36  C1D       13.9340   20.8420   35.6440 C.ar  185  HEV185      0.0000
     37  C2D       14.7780   21.8270   35.0480 C.ar  185  HEV185      0.0000
     38  C3D       13.9130   22.7340   34.4890 C.ar  185  HEV185      0.0000
     39  C4D       12.5820   22.4530   35.0090 C.ar  185  HEV185      0.0000
     40  CMD       16.2890   21.7680   34.8350 C.3   185  HEV185      0.0000
     41  CAD       14.3540   24.0730   33.8700 C.3   185  HEV185      0.0000
     42  CBD       13.9940   23.9870   32.4240 C.3   185  HEV185      0.0000
     43  CGD       14.6420   25.0660   31.6610 C.2   185  HEV185      0.0000
     44  O1D       14.0860   26.1760   31.6390 O.co2 185  HEV185      0.0000
     45  O2D       15.7040   24.7960   31.0860 O.co2 185  HEV185      0.0000
@<TRIPOS>BOND
     1    45    43   ar
     2    44    43   ar
     3    43    42    1
     4    42    41    1
     5    15    14   ar
     6    41    38    1
     7    12     8    1
     8    12    13    1
     9    38    39   ar
    10    38    37   ar
    11     8     9    2
    12     8     7    1
    13    14    13    1
    14    14    16   ar
    15     2    39    2
    16     2     7    1
    17    11     9    1
    18    40    37    1
    19     9    10    1
    20    39    35   ar
    21     7     6    2
    22    37    36   ar
    23     6    10    1
    24     6     1    1
    25    10     3    2
    26    35    36   ar
    27    35     1    1
    28    36     5    2
    29     3    18    1
    30     5    30    1
    31     1    17    1
    32     1    26    1
    33    18    17   ar
    34    18    19   ar
    35    34    33    1
    36    30    26    2
    37    30    29    1
    38    17    21   ar
    39    22    19    1
    40    22    32    2
    41    26    27    1
    42    19    20   ar
    43    33    29    1
    44    21    20   ar
    45    21     4    1
    46    29    28    2
    47    27     4    2
    48    27    28    1
    49    20    24    1
    50    28    31    1
    51    24    25    2
    52    31    23    2
