@<TRIPOS>MOLECULE
1eqg_IBP_A_1.pdb
 15 15 0 0 0
SMALL
GASTEIGER

@<TRIPOS>ATOM
      1  C1        27.4310   30.8740  203.0250 C.2   701  IBP701      0.3683
      2  C2        26.2030   35.7940  198.7640 C.3   701  IBP701      0.0263
      3  C3        26.0080   35.0600  197.4310 C.3   701  IBP701      0.0044
      4  C4        26.4240   35.9590  196.2740 C.3   701  IBP701      0.0003
      5  C5        24.5690   34.6350  197.2440 C.3   701  IBP701      0.0003
      6  C6        27.4180   32.3300  203.4660 C.3   701  IBP701      0.1256
      7  C7        28.7160   32.7010  204.1890 C.3   701  IBP701      0.0166
      8  C8        27.1220   33.2170  202.2330 C.ar  701  IBP701     -0.0118
      9  C9        25.8230   33.7370  202.0240 C.ar  701  IBP701     -0.0041
     10  C10       25.5310   34.5610  200.9080 C.ar  701  IBP701     -0.0046
     11  C11       26.5280   34.8990  199.9550 C.ar  701  IBP701     -0.0222
     12  C12       27.8220   34.3800  200.1620 C.ar  701  IBP701     -0.0046
     13  C13       28.1160   33.5540  201.2790 C.ar  701  IBP701     -0.0041
     14  O1        26.2960   30.2520  203.2070 O.co2 701  IBP701     -0.2453
     15  O2        28.4160   30.3120  202.5590 O.co2 701  IBP701     -0.2453
@<TRIPOS>BOND
     1     4     3    1
     2     5     3    1
     3     3     2    1
     4     2    11    1
     5    11    12   ar
     6    11    10   ar
     7    12    13   ar
     8    10     9   ar
     9    13     8   ar
    10     9     8   ar
    11     8     6    1
    12    15     1   ar
    13     1    14   ar
    14     1     6    1
    15     6     7    1
