@<TRIPOS>MOLECULE
1eqg_HEM_A_1.pdb
 43 50 0 0 0
SMALL
GASTEIGER

@<TRIPOS>ATOM
      1  CHA       22.9590   44.2620  183.4110 C.2   601  HEM601      0.0000
      2  CHB       20.0220   48.0090  183.8920 C.2   601  HEM601      0.0000
      3  CHC       20.0130   47.4030  188.6520 C.2   601  HEM601      0.0000
      4  CHD       22.9380   43.6050  188.1640 C.2   601  HEM601      0.0000
      5  C1A       22.1350   45.3270  183.1120 C.ar  601  HEM601      0.0000
      6  C2A       21.8770   45.8320  181.7650 C.ar  601  HEM601      0.0000
      7  C3A       21.0490   46.8990  181.9200 C.ar  601  HEM601      0.0000
      8  C4A       20.8010   47.0320  183.3450 C.ar  601  HEM601      0.0000
      9  CMA       20.4900   47.7930  180.8030 C.3   601  HEM601      0.0000
     10  CAA       22.4320   45.2690  180.4480 C.3   601  HEM601      0.0000
     11  CBA       21.2150   44.6260  179.7560 C.3   601  HEM601      0.0000
     12  CGA       21.4110   43.9750  178.4050 C.2   601  HEM601      0.0000
     13  O1A       22.5450   43.9560  177.8610 O.co2 601  HEM601      0.0000
     14  O2A       20.3810   43.4700  177.8750 O.co2 601  HEM601      0.0000
     15  C1B       19.7580   48.1940  185.2310 C.2   601  HEM601      0.0000
     16  C2B       18.9490   49.2770  185.7290 C.2   601  HEM601      0.0000
     17  C3B       18.9460   49.1070  187.1060 C.2   601  HEM601      0.0000
     18  C4B       19.7580   47.9170  187.3930 C.2   601  HEM601      0.0000
     19  CMB       18.2620   50.3810  184.8710 C.3   601  HEM601      0.0000
     20  CAB       18.2280   50.0220  188.1130 C.3   601  HEM601      0.0000
     21  CBB       16.7310   50.2010  187.8800 C.3   601  HEM601      0.0000
     22  C1C       20.8000   46.2920  188.9390 C.ar  601  HEM601      0.0000
     23  C2C       21.0450   45.7900  190.2920 C.ar  601  HEM601      0.0000
     24  C3C       21.8600   44.7230  190.1500 C.ar  601  HEM601      0.0000
     25  C4C       22.1200   44.5730  188.7180 C.ar  601  HEM601      0.0000
     26  CMC       20.4740   46.3920  191.5890 C.3   601  HEM601      0.0000
     27  CAC       22.3340   43.8000  191.2840 C.3   601  HEM601      0.0000
     28  CBC       23.8200   43.7090  191.5710 C.3   601  HEM601      0.0000
     29  C1D       23.2150   43.4580  186.8240 C.2   601  HEM601      0.0000
     30  C2D       24.1280   42.4580  186.2930 C.2   601  HEM601      0.0000
     31  C3D       24.1260   42.6700  184.9430 C.2   601  HEM601      0.0000
     32  C4D       23.2270   43.7600  184.6830 C.2   601  HEM601      0.0000
     33  CMD       24.9190   41.4150  187.0970 C.3   601  HEM601      0.0000
     34  CAD       24.9330   41.9280  183.8740 C.3   601  HEM601      0.0000
     35  CBD       26.3380   42.5430  183.7330 C.3   601  HEM601      0.0000
     36  CGD       27.1140   42.1710  182.4890 C.2   601  HEM601      0.0000
     37  O1D       27.0000   41.0220  182.0110 O.co2 601  HEM601      0.0000
     38  O2D       27.8770   43.0340  181.9810 O.co2 601  HEM601      0.0000
     39  NA        21.4560   46.0560  184.0680 N.ar  601  HEM601      0.0000
     40  NB        20.2630   47.3590  186.2280 N.2   601  HEM601      0.0000
     41  NC        21.4530   45.5320  187.9820 N.ar  601  HEM601      0.0000
     42  ND        22.6820   44.2570  185.8350 N.2   601  HEM601      0.0000
     43 FE         21.4320   45.7790  186.0080 Fe    601  HEM601      0.0000
@<TRIPOS>BOND
     1    13    12   ar
     2    14    12   ar
     3    12    11    1
     4    11    10    1
     5    10     6    1
     6     9     7    1
     7     6     7   ar
     8     6     5   ar
     9     7     8   ar
    10    38    36   ar
    11    37    36   ar
    12    36    35    1
    13     5     1    2
    14     5    39   ar
    15     8     2    2
    16     8    39   ar
    17     1    32    1
    18    35    34    1
    19    34    31    1
    20     2    15    1
    21    39    43    1
    22    32    31    1
    23    32    42    2
    24    19    16    1
    25    31    30    2
    26    15    16    1
    27    15    40    2
    28    16    17    2
    29    42    43    1
    30    42    29    1
    31    43    40    1
    32    43    41    1
    33    40    18    1
    34    30    29    1
    35    30    33    1
    36    29     4    2
    37    17    18    1
    38    17    20    1
    39    18     3    2
    40    21    20    1
    41    41    25   ar
    42    41    22   ar
    43     4    25    1
    44     3    22    1
    45    25    24   ar
    46    22    23   ar
    47    24    23   ar
    48    24    27    1
    49    23    26    1
    50    27    28    1
