@<TRIPOS>MOLECULE
1eqh_FLP_A_1.pdb
 18 19 0 0 0
SMALL
GASTEIGER

@<TRIPOS>ATOM
      1  C         25.1840   34.9700  194.6400 C.ar  701  FLP701      0.0000
      2  C1        25.4610   34.2690  195.8540 C.ar  701  FLP701      0.0001
      3  C2        26.3190   34.8930  196.8560 C.ar  701  FLP701      0.0022
      4  C3        26.8640   36.1890  196.6020 C.ar  701  FLP701      0.0001
      5  C4        26.5660   36.8590  195.3740 C.ar  701  FLP701      0.0000
      6  C5        25.7300   36.2390  194.4070 C.ar  701  FLP701      0.0000
      7  C6        26.6410   34.1630  198.1470 C.ar  701  FLP701      0.0275
      8  C7        28.0210   33.9920  198.5920 C.ar  701  FLP701      0.0019
      9  C8        28.2740   33.2820  199.8150 C.ar  701  FLP701     -0.0036
     10  C9        27.1880   32.7460  200.5990 C.ar  701  FLP701     -0.0096
     11  C10       25.8690   32.9130  200.1750 C.ar  701  FLP701      0.0259
     12  C11       25.6180   33.5970  198.9930 C.ar  701  FLP701      0.1398
     13  C12       27.3720   31.9620  201.9180 C.3   701  FLP701      0.1257
     14  C13       28.5160   32.5010  202.7870 C.3   701  FLP701      0.0166
     15  C14       27.5070   30.5100  201.5050 C.2   701  FLP701      0.3683
     16  O         26.4490   29.8240  201.7470 O.co2 701  FLP701     -0.2453
     17  O1        28.4850   30.0390  200.9950 O.co2 701  FLP701     -0.2453
     18  F         24.3090   33.7030  198.6640 F     701  FLP701     -0.2042
@<TRIPOS>BOND
     1     6     1   ar
     2     6     5   ar
     3     1     2   ar
     4     5     4   ar
     5     2     3   ar
     6     4     3   ar
     7     3     7    1
     8     7     8   ar
     9     7    12   ar
    10     8     9   ar
    11    18    12    1
    12    12    11   ar
    13     9    10   ar
    14    11    10   ar
    15    10    13    1
    16    17    15   ar
    17    15    16   ar
    18    15    13    1
    19    13    14    1
