@<TRIPOS>MOLECULE
1eqh_HEM_A_1.pdb
 43 50 0 0 0
SMALL
GASTEIGER

@<TRIPOS>ATOM
      1  CHA       22.9940   44.2390  181.9990 C.2   601  HEM601      0.0000
      2  CHB       19.9460   47.8870  182.5470 C.2   601  HEM601      0.0000
      3  CHC       19.9680   47.2190  187.3120 C.2   601  HEM601      0.0000
      4  CHD       23.0320   43.5220  186.7450 C.2   601  HEM601      0.0000
      5  C1A       22.1420   45.2870  181.7160 C.ar  601  HEM601      0.0000
      6  C2A       21.8580   45.8050  180.3660 C.ar  601  HEM601      0.0000
      7  C3A       20.9940   46.8430  180.5470 C.ar  601  HEM601      0.0000
      8  C4A       20.7560   46.9470  181.9800 C.ar  601  HEM601      0.0000
      9  CMA       20.3890   47.7390  179.4510 C.3   601  HEM601      0.0000
     10  CAA       22.4250   45.2810  179.0320 C.3   601  HEM601      0.0000
     11  CBA       21.2650   44.6040  178.2650 C.3   601  HEM601      0.0000
     12  CGA       21.5900   44.0170  176.8880 C.2   601  HEM601      0.0000
     13  O1A       22.7540   44.0910  176.4200 O.co2 601  HEM601      0.0000
     14  O2A       20.6430   43.4710  176.2620 O.co2 601  HEM601      0.0000
     15  C1B       19.6800   48.0480  183.8890 C.2   601  HEM601      0.0000
     16  C2B       18.8160   49.0850  184.3950 C.2   601  HEM601      0.0000
     17  C3B       18.8090   48.8940  185.7730 C.2   601  HEM601      0.0000
     18  C4B       19.6900   47.7410  186.0530 C.2   601  HEM601      0.0000
     19  CMB       18.0800   50.1570  183.5300 C.3   601  HEM601      0.0000
     20  CAB       18.0240   49.7350  186.7960 C.3   601  HEM601      0.0000
     21  CBB       18.1430   51.2460  186.6800 C.3   601  HEM601      0.0000
     22  C1C       20.8080   46.1310  187.5820 C.ar  601  HEM601      0.0000
     23  C2C       21.0870   45.6040  188.9350 C.ar  601  HEM601      0.0000
     24  C3C       21.9370   44.5710  188.7640 C.ar  601  HEM601      0.0000
     25  C4C       22.1910   44.4590  187.3210 C.ar  601  HEM601      0.0000
     26  CMC       20.5110   46.1410  190.2610 C.3   601  HEM601      0.0000
     27  CAC       22.4360   43.6270  189.8810 C.3   601  HEM601      0.0000
     28  CBC       23.9350   43.5050  190.1310 C.3   601  HEM601      0.0000
     29  C1D       23.2990   43.4020  185.4010 C.2   601  HEM601      0.0000
     30  C2D       24.2280   42.4220  184.8480 C.2   601  HEM601      0.0000
     31  C3D       24.2080   42.6480  183.4970 C.2   601  HEM601      0.0000
     32  C4D       23.2820   43.7300  183.2600 C.2   601  HEM601      0.0000
     33  CMD       25.0470   41.3860  185.6330 C.3   601  HEM601      0.0000
     34  CAD       25.0150   41.9230  182.4070 C.3   601  HEM601      0.0000
     35  CBD       26.4580   42.4430  182.3110 C.3   601  HEM601      0.0000
     36  CGD       27.1320   42.2520  180.9730 C.2   601  HEM601      0.0000
     37  O1D       26.9260   41.2050  180.3260 O.co2 601  HEM601      0.0000
     38  O2D       27.9000   43.1510  180.5560 O.co2 601  HEM601      0.0000
     39  NA        21.4500   45.9890  182.6870 N.ar  601  HEM601      0.0000
     40  NB        20.2240   47.2230  184.8780 N.2   601  HEM601      0.0000
     41  NC        21.4880   45.4140  186.6040 N.ar  601  HEM601      0.0000
     42  ND        22.7360   44.2040  184.4250 N.2   601  HEM601      0.0000
     43 FE         21.4520   45.7010  184.6300 Fe    601  HEM601      0.0000
@<TRIPOS>BOND
     1    14    12   ar
     2    13    12   ar
     3    12    11    1
     4    11    10    1
     5    10     6    1
     6     9     7    1
     7    37    36   ar
     8     6     7   ar
     9     6     5   ar
    10     7     8   ar
    11    38    36   ar
    12    36    35    1
    13     5     1    2
    14     5    39   ar
    15     8     2    2
    16     8    39   ar
    17     1    32    1
    18    35    34    1
    19    34    31    1
    20     2    15    1
    21    39    43    1
    22    32    31    1
    23    32    42    2
    24    31    30    2
    25    19    16    1
    26    15    16    1
    27    15    40    2
    28    16    17    2
    29    42    43    1
    30    42    29    1
    31    43    40    1
    32    43    41    1
    33    30    29    1
    34    30    33    1
    35    40    18    1
    36    29     4    2
    37    17    18    1
    38    17    20    1
    39    18     3    2
    40    41    25   ar
    41    41    22   ar
    42    21    20    1
    43     4    25    1
    44     3    22    1
    45    25    24   ar
    46    22    23   ar
    47    24    23   ar
    48    24    27    1
    49    23    26    1
    50    27    28    1
