@<TRIPOS>MOLECULE
1eqj_2PG_A_1.pdb
 11 10 0 0 0
SMALL
GASTEIGER

@<TRIPOS>ATOM
      1  C1        14.7270   77.5390    9.3820 C.2   801  2PG801      0.3946
      2  C2        15.5660   78.1080    8.2220 C.3   801  2PG801      0.2610
      3  C3        15.9620   79.5330    8.5870 C.3   801  2PG801      0.2237
      4  P         16.5470   76.0810    6.8100 P.3   801  2PG801      0.5331
      5  O1        15.4720   77.1250   10.3610 O.co2 801  2PG801     -0.2428
      6  O2        13.4420   77.5100    9.2900 O.co2 801  2PG801     -0.2428
      7  O3        14.9170   80.4530    8.8310 O.3   801  2PG801     -0.2170
      8  O1P       16.6800   77.2260    7.9180 O.3   801  2PG801     -0.2583
      9  O2P       15.5070   75.1290    7.3140 O.3   801  2PG801     -0.1145
     10  O3P       16.1000   76.7410    5.5410 O.2   801  2PG801     -0.2224
     11  O4P       17.8230   75.3910    6.6370 O.3   801  2PG801     -0.1145
@<TRIPOS>BOND
     1    10     4    2
     2    11     4    1
     3     4     9    1
     4     4     8    1
     5     8     2    1
     6     2     3    1
     7     2     1    1
     8     3     7    1
     9     6     1   ar
    10     1     5   ar
