@<TRIPOS>MOLECULE
1eqm_ADP_A_1.pdb
 27 29 0 0 0
SMALL
GASTEIGER

@<TRIPOS>ATOM
      1  PB        16.6390    5.9320    5.2250 P.3   171  ADP171      0.5373
      2  O1B       16.7650    4.4550    5.0370 O.2   171  ADP171     -0.2221
      3  O2B       15.6470    6.4110    6.1850 O.3   171  ADP171     -0.1143
      4  O3B       18.1260    6.5380    5.5660 O.3   171  ADP171     -0.1143
      5  PA        16.2870    7.9570    3.1450 P.3   171  ADP171      0.2231
      6  O1A       15.9590    7.8090    1.7220 O.2   171  ADP171     -0.5169
      7  O2A       15.4230    8.8320    3.9830 O.3   171  ADP171     -0.4370
      8  O3A       16.4450    6.5190    3.7930 O.3   171  ADP171     -0.2261
      9  O5'       17.7540    8.4560    3.2500 O.3   171  ADP171     -0.3111
     10  C5'       18.8090    8.0830    2.3550 C.3   171  ADP171      0.1813
     11  C4'       19.9660    9.0170    2.4990 C.3   171  ADP171      0.1821
     12  O4'       20.3270    9.1020    3.9060 O.3   171  ADP171     -0.3135
     13  C3'       21.1930    8.5620    1.7770 C.3   171  ADP171      0.2184
     14  O3'       21.4950    9.3860    0.6520 O.3   171  ADP171     -0.2174
     15  C2'       22.2610    8.4170    2.8090 C.3   171  ADP171      0.2570
     16  O2'       23.5070    8.9640    2.3920 O.3   171  ADP171     -0.2130
     17  C1'       21.7550    9.2230    4.0130 C.3   171  ADP171      0.3186
     18  N9        22.2190    8.7760    5.3500 N.pl3 171  ADP171     -0.1439
     19  C8        22.6490    9.5700    6.3880 C.3   171  ADP171      0.3377
     20  N7        23.0080    8.9390    7.4570 N.2   171  ADP171     -0.2095
     21  C5        22.8300    7.6170    7.1120 C.2   171  ADP171      0.2526
     22  C6        23.0330    6.4260    7.8540 C.2   171  ADP171      0.4393
     23  N6        23.4630    6.4590    9.1070 N.pl3 171  ADP171      0.2180
     24  N1        22.6790    5.2690    7.2680 N.2   171  ADP171      0.0021
     25  C2        22.2340    5.2750    6.0200 C.3   171  ADP171      0.5254
     26  N3        22.0470    6.3190    5.1990 N.2   171  ADP171     -0.0055
     27  C4        22.3160    7.4970    5.8450 C.2   171  ADP171      0.3518
@<TRIPOS>BOND
     1    14    13    1
     2     6     5    2
     3    13    11    1
     4    13    15    1
     5    10    11    1
     6    10     9    1
     7    16    15    1
     8    11    12    1
     9    15    17    1
    10     5     9    1
    11     5     8    1
    12     5     7    1
    13     8     1    1
    14    12    17    1
    15    17    18    1
    16     2     1    2
    17    26    27    2
    18    26    25    1
    19     1     4    1
    20     1     3    1
    21    18    27    1
    22    18    19    1
    23    27    21    1
    24    25    24    1
    25    19    20    1
    26    21    20    2
    27    21    22    1
    28    24    22    2
    29    22    23    1
