@<TRIPOS>MOLECULE
1eqq_NUC_N_1.pdb
 18 19 0 0 0
SMALL
GASTEIGER

@<TRIPOS>ATOM
      1  N1        23.0700   15.8630   11.5230 N.am  900  RU900      -0.1770
      2  C2        21.8750   15.6920   12.1710 C.1   900  RU900       0.2845
      3  N3        21.9210   15.8920   13.5230 N.2   900  RU900      -0.2455
      4  C4        23.0140   16.2430   14.2760 C.1   900  RU900       0.2134
      5  C5        24.2450   16.4110   13.5330 C.2   900  RU900       0.0891
      6  C5M       25.4940   16.7990   14.2630 C.3   900  RU900       0.0462
      7  C6        24.2100   16.2110   12.2110 C.2   900  RU900       0.0878
      8  O2        20.8470   15.3890   11.5950 O.2   900  RU900      -0.1918
      9  O4        22.8920   16.3870   15.4860 O.2   900  RU900      -0.2088
     10  C1'       23.0960   15.6640   10.0580 C.3   900  RU900       0.2400
     11  C2'       22.7330   16.9310    9.2780 C.3   900  RU900       0.2319
     12  O2'       22.1450   16.5940    8.0350 O.3   900  RU900      -0.2157
     13  C3'       24.1030   17.5680    9.1100 C.3   900  RU900       0.2159
     14  C4'       24.9930   16.3570    8.8550 C.3   900  RU900       0.1829
     15  O3'       24.1310   18.5740    8.0940 O.3   900  RU900      -0.2175
     16  O4'       24.4190   15.3090    9.6860 O.3   900  RU900      -0.3318
     17  C5'       26.4700   16.5230    9.1820 C.3   900  RU900       0.2142
     18  O5'       26.7840   16.7770   10.5740 O.3   900  RU900      -0.2176
@<TRIPOS>BOND
     1    12    11    1
     2    15    13    1
     3    14    13    1
     4    14    17    1
     5    14    16    1
     6    13    11    1
     7    17    18    1
     8    11    10    1
     9    16    10    1
    10    10     1    1
    11     1     2   am
    12     1     7    1
    13     8     2    2
    14     2     3    2
    15     7     5    2
    16     3     4    2
    17     5     6    1
    18     5     4    1
    19     4     9    2
