@<TRIPOS>MOLECULE
1equ_EQI_A_1.pdb
 20 23 0 0 0
SMALL
GASTEIGER

@<TRIPOS>ATOM
      1  C1         6.6600   28.9550   31.9800 C.ar  329  EQI329      0.1957
      2  C2         8.0050   29.1450   31.6810 C.ar  329  EQI329      0.0420
      3  C3         9.0150   28.9190   32.5970 C.ar  329  EQI329      0.0029
      4  C4         8.6440   28.4550   33.9470 C.ar  329  EQI329     -0.0041
      5  C5         7.2980   28.2820   34.2040 C.ar  329  EQI329      0.0030
      6  C6         6.3070   28.5150   33.2850 C.ar  329  EQI329      0.0420
      7  C10       10.4650   29.0980   32.2520 C.ar  329  EQI329     -0.0002
      8  C11       11.4530   28.6260   33.2830 C.ar  329  EQI329     -0.0046
      9  C12       11.1030   28.1760   34.5280 C.ar  329  EQI329     -0.0260
     10  C13        9.6570   28.0850   34.9750 C.ar  329  EQI329     -0.0261
     11  C16       12.0680   27.6940   35.5850 C.3   329  EQI329      0.0290
     12  C17       11.7550   26.2140   35.9710 C.3   329  EQI329      0.0556
     13  C18       10.3420   26.1200   36.4880 C.3   329  EQI329      0.0119
     14  C19        9.3530   26.6360   35.4730 C.3   329  EQI329      0.0265
     15  C24       13.5620   27.6490   35.4000 C.3   329  EQI329      0.0125
     16  C25       14.0600   26.8080   36.6460 C.3   329  EQI329      0.0648
     17  C26       12.8590   25.9030   36.9540 C.2   329  EQI329      0.1502
     18  C27       11.9750   25.2210   34.7910 C.3   329  EQI329      0.0077
     19  O1         5.6680   29.1620   31.1040 O.3   329  EQI329     -0.2866
     20  O26       12.8210   25.0470   37.8300 O.2   329  EQI329     -0.2961
@<TRIPOS>BOND
     1    19     1    1
     2     2     1   ar
     3     2     3   ar
     4     1     6   ar
     5     7     3   ar
     6     7     8   ar
     7     3     4   ar
     8     8     9   ar
     9     6     5   ar
    10     4     5   ar
    11     4    10   ar
    12     9    10   ar
    13     9    11    1
    14    18    12    1
    15    10    14    1
    16    15    11    1
    17    15    16    1
    18    14    13    1
    19    11    12    1
    20    12    13    1
    21    12    17    1
    22    16    17    1
    23    17    20    2
