@<TRIPOS>MOLECULE
1equ_NAP_A_1.pdb
 48 52 0 0 0
SMALL
GASTEIGER

@<TRIPOS>ATOM
      1  PA        21.2030   28.0590   43.3010 P.3   328  NAP328      0.2189
      2  O1A       21.9780   27.4970   42.1900 O.2   328  NAP328     -0.5170
      3  O2A       21.5570   29.4290   43.6190 O.3   328  NAP328     -0.4371
      4  O5B       21.4810   27.1170   44.5150 O.3   328  NAP328     -0.3112
      5  C5B       22.2980   25.8820   44.3750 C.3   328  NAP328      0.1813
      6  C4B       23.5470   25.8840   43.7990 C.3   328  NAP328      0.1820
      7  O4B       24.1650   24.5750   43.6010 O.3   328  NAP328     -0.3136
      8  C3B       24.5530   26.7060   44.5280 C.3   328  NAP328      0.2157
      9  O3B       24.3780   28.0930   44.6130 O.3   328  NAP328     -0.2175
     10  C2B       25.7230   25.8410   44.8530 C.3   328  NAP328      0.2314
     11  O2B       26.9830   26.5780   44.7590 O.3   328  NAP328     -0.2630
     12  C1B       25.5710   24.6930   43.8970 C.3   328  NAP328      0.3158
     13  N9A       26.4440   24.0760   42.8720 N.pl3 328  NAP328     -0.1439
     14  C8A       26.6580   24.5850   41.6250 C.3   328  NAP328      0.3377
     15  N7A       27.5660   23.9310   40.9170 N.2   328  NAP328     -0.2095
     16  C5A       28.0520   23.0230   41.7940 C.2   328  NAP328      0.2526
     17  C6A       29.1860   22.0040   41.7240 C.2   328  NAP328      0.4393
     18  N6A       29.9880   21.8130   40.6640 N.pl3 328  NAP328      0.2180
     19  N1A       29.3190   21.2190   42.8310 N.2   328  NAP328      0.0021
     20  C2A       28.5450   21.3850   43.9060 C.3   328  NAP328      0.5254
     21  N3A       27.5930   22.3040   44.0360 N.2   328  NAP328     -0.0055
     22  C4A       27.3400   23.1030   42.9840 C.2   328  NAP328      0.3518
     23  O3        19.6940   28.0040   43.2620 O.3   328  NAP328     -0.2703
     24  PN        18.4000   27.1090   43.4680 P.3   328  NAP328      0.2189
     25  O1N       17.1980   27.6260   42.7800 O.2   328  NAP328     -0.5170
     26  O2N       18.4000   26.5120   44.8510 O.3   328  NAP328     -0.4371
     27  O5D       18.7290   25.8320   42.5090 O.3   328  NAP328     -0.3112
     28  C5D       19.7280   24.9450   42.9780 C.3   328  NAP328      0.1813
     29  C4D       19.5690   23.5250   42.5360 C.3   328  NAP328      0.1799
     30  O4D       18.3520   22.8800   43.0740 O.3   328  NAP328     -0.3327
     31  C3D       19.6500   23.0180   41.0940 C.3   328  NAP328      0.2158
     32  O3D       20.5520   23.5350   40.0740 O.3   328  NAP328     -0.2175
     33  C2D       18.2650   22.7450   40.5320 C.3   328  NAP328      0.2309
     34  O2D       17.8250   23.4350   39.3490 O.3   328  NAP328     -0.2158
     35  C1D       17.5210   22.6310   41.8650 C.3   328  NAP328      0.2263
     36  N1N       16.1970   23.2140   41.5610 N.pl3 328  NAP328     -0.2787
     37  C2N       16.2260   24.6570   41.6470 C.3   328  NAP328      0.1244
     38  C3N       15.3470   25.3600   40.8260 C.2   328  NAP328      0.0544
     39  C7N       15.1830   26.8590   40.9180 C.2   328  NAP328      0.2818
     40  O7N       14.9670   27.5610   39.8850 O.2   328  NAP328     -0.2670
     41  N7N       14.9110   26.9040   42.2130 N.am  328  NAP328     -0.0839
     42  C4N       14.4990   24.7390   39.8880 C.2   328  NAP328      0.0033
     43  C5N       14.5150   23.3300   39.7730 C.2   328  NAP328      0.0157
     44  C6N       15.3380   22.5790   40.6060 C.2   328  NAP328      0.0633
     45  P2B       27.7610   27.5840   43.7470 P.3   328  NAP328      0.5328
     46  O1X       29.2510   27.6350   44.3900 O.3   328  NAP328     -0.1145
     47  O2X       27.0210   28.8620   43.6950 O.3   328  NAP328     -0.1145
     48  O3X       27.8710   26.9850   42.3490 O.2   328  NAP328     -0.2224
@<TRIPOS>BOND
     1    34    33    1
     2    43    42    1
     3    43    44    2
     4    40    39    2
     5    42    38    2
     6    32    31    1
     7    33    31    1
     8    33    35    1
     9    44    36    1
    10    18    17    1
    11    38    39    1
    12    38    37    1
    13    15    14    1
    14    15    16    2
    15    39    41   am
    16    31    29    1
    17    36    37    1
    18    36    35    1
    19    14    13    1
    20    17    16    1
    21    17    19    2
    22    16    22    1
    23    35    30    1
    24     2     1    2
    25    48    45    2
    26    27    28    1
    27    27    24    1
    28    29    28    1
    29    29    30    1
    30    25    24    2
    31    19    20    1
    32    13    22    1
    33    13    12    1
    34    22    21    2
    35    23     1    1
    36    23    24    1
    37     1     3    1
    38     1     4    1
    39    24    26    1
    40     7     6    1
    41     7    12    1
    42    47    45    1
    43    45    46    1
    44    45    11    1
    45     6     5    1
    46     6     8    1
    47    12    10    1
    48    20    21    1
    49     5     4    1
    50     8     9    1
    51     8    10    1
    52    11    10    1
