@<TRIPOS>MOLECULE
1eqy_ATP_A_1.pdb
 31 33 0 0 0
SMALL
GASTEIGER

@<TRIPOS>ATOM
      1  PG        22.7000    2.6290   72.0790 P.3   380  ATP380      0.5373
      2  O1G       21.9270    1.3670   72.4100 O.3   380  ATP380     -0.1143
      3  O2G       23.9300    2.7580   72.9540 O.3   380  ATP380     -0.1143
      4  O3G       23.0690    2.6760   70.6100 O.2   380  ATP380     -0.2221
      5  PB        20.8240    4.8120   71.5620 P.3   380  ATP380      0.2277
      6  O1B       19.5270    4.9870   72.3040 O.3   380  ATP380     -0.4368
      7  O2B       20.6240    4.2460   70.1790 O.2   380  ATP380     -0.5168
      8  O3B       21.7580    3.8600   72.3800 O.3   380  ATP380     -0.2258
      9  PA        21.5700    7.4530   70.5550 P.3   380  ATP380      0.2189
     10  O1A       22.4550    7.2230   69.3590 O.2   380  ATP380     -0.5170
     11  O2A       20.1550    7.7980   70.1560 O.3   380  ATP380     -0.4371
     12  O3A       21.5630    6.1820   71.4560 O.3   380  ATP380     -0.2700
     13  O5'       22.1630    8.6110   71.4160 O.3   380  ATP380     -0.3112
     14  C5'       21.5020    9.1840   72.5780 C.3   380  ATP380      0.1813
     15  C4'       22.6980    9.5530   73.6070 C.3   380  ATP380      0.1821
     16  O4'       23.4860   10.5730   72.9080 O.3   380  ATP380     -0.3135
     17  C3'       22.3130   10.1790   74.9370 C.3   380  ATP380      0.2184
     18  O3'       23.1560    9.5740   75.8960 O.3   380  ATP380     -0.2174
     19  C2'       22.4960   11.5910   74.7550 C.3   380  ATP380      0.2570
     20  O2'       22.8330   12.3810   75.9340 O.3   380  ATP380     -0.2130
     21  C1'       23.6690   11.6790   73.7950 C.3   380  ATP380      0.3186
     22  N9        23.6330   12.8960   72.9930 N.pl3 380  ATP380     -0.1439
     23  C8        22.6600   13.3440   72.1590 C.3   380  ATP380      0.3377
     24  N7        22.9650   14.4850   71.5650 N.2   380  ATP380     -0.2095
     25  C5        24.2620   14.7980   72.0000 C.2   380  ATP380      0.2526
     26  C6        25.0420   15.9610   71.8780 C.2   380  ATP380      0.4393
     27  N6        24.7700   16.9730   71.0720 N.pl3 380  ATP380      0.2180
     28  N1        26.2270   15.9530   72.4890 N.2   380  ATP380      0.0021
     29  C2        26.5300   14.8990   73.3090 C.3   380  ATP380      0.5254
     30  N3        25.8050   13.8190   73.6140 N.2   380  ATP380     -0.0055
     31  C4        24.6700   13.8500   72.9320 C.2   380  ATP380      0.3518
@<TRIPOS>BOND
     1    10     9    2
     2    11     9    1
     3     7     5    2
     4     9    13    1
     5     9    12    1
     6     4     1    2
     7    27    26    1
     8    13    14    1
     9    12     5    1
    10     5     6    1
    11     5     8    1
    12    24    25    2
    13    24    23    1
    14    26    25    1
    15    26    28    2
    16    25    31    1
    17     1     8    1
    18     1     2    1
    19     1     3    1
    20    23    22    1
    21    28    29    1
    22    14    15    1
    23    16    15    1
    24    16    21    1
    25    31    22    1
    26    31    30    2
    27    22    21    1
    28    29    30    1
    29    15    17    1
    30    21    19    1
    31    19    17    1
    32    19    20    1
    33    17    18    1
