@<TRIPOS>MOLECULE
1erb_ETR_A_1.pdb
 24 24 0 0 0
SMALL
GASTEIGER

@<TRIPOS>ATOM
      1  C1        30.0350   21.4960   45.3510 C.3   184  ETR184      0.0146
      2  C2        29.5360   21.5490   43.9000 C.3   184  ETR184      0.0040
      3  C3        30.0000   20.3840   43.0340 C.3   184  ETR184      0.0046
      4  C4        31.2680   19.7840   43.6060 C.3   184  ETR184      0.0214
      5  C5        30.9700   19.3160   45.0280 C.2   184  ETR184     -0.0518
      6  C6        30.2620   20.0880   45.9100 C.2   184  ETR184     -0.0527
      7  C7        30.3430   19.5080   47.2550 C.3   184  ETR184      0.0214
      8  C8        31.6130   19.5150   47.7410 C.3   184  ETR184      0.0043
      9  C9        31.6720   19.1860   49.1630 C.3   184  ETR184      0.0007
     10  C10       32.9770   19.1300   49.5110 C.3   184  ETR184      0.0047
     11  C11       33.0790   18.9470   50.9230 C.3   184  ETR184      0.0254
     12  C12       34.4980   18.8310   51.1830 C.2   184  ETR184     -0.0341
     13  C13       35.0440   18.6470   52.4650 C.2   184  ETR184     -0.0391
     14  C14       36.1710   18.4870   52.6170 C.3   184  ETR184      0.1085
     15  C15       36.5720   18.2850   53.9970 C.2   184  ETR184      0.2455
     16  O         35.6070   18.3500   54.9850 O.2   184  ETR184     -0.2730
     17  N         37.6270   17.9910   54.1300 N.am  184  ETR184     -0.2052
     18  C16       28.5990   21.6060   45.8100 C.3   184  ETR184      0.0040
     19  C17       30.7830   22.7870   45.6750 C.3   184  ETR184      0.0040
     20  C18       31.5600   17.9330   45.2190 C.3   184  ETR184      0.0257
     21  C19       30.3050   18.9370   49.7900 C.3   184  ETR184      0.0000
     22  C20       34.0830   18.7640   53.5240 C.3   184  ETR184      0.0265
     23  C21       37.9900   16.7390   55.0200 C.3   184  ETR184      0.1152
     24  C22       38.3520   17.4810   56.2650 C.3   184  ETR184      0.0252
@<TRIPOS>BOND
     1     3     4    1
     2     3     2    1
     3     4     5    1
     4     2     1    1
     5     5    20    1
     6     5     6    2
     7     1    19    1
     8     1    18    1
     9     1     6    1
    10     6     7    1
    11     7     8    1
    12     8     9    1
    13     9    10    1
    14     9    21    1
    15    10    11    1
    16    11    12    1
    17    12    13    2
    18    13    14    1
    19    13    22    1
    20    14    15    1
    21    15    17   am
    22    15    16    2
    23    17    23    1
    24    23    24    1
