@<TRIPOS>MOLECULE
1ere_EST_A_1.pdb
 20 23 0 0 0
SMALL
GASTEIGER

@<TRIPOS>ATOM
      1  C1         7.1020   47.1420  129.4860 C.ar  600  EST600     -0.0013
      2  C2         6.5600   48.2350  128.8130 C.ar  600  EST600      0.0417
      3  C3         7.0140   49.4700  129.1690 C.ar  600  EST600      0.1954
      4  O3         6.4960   50.5650  128.5160 O.3   600  EST600     -0.2866
      5  C4         7.9670   49.7080  130.1610 C.ar  600  EST600      0.0375
      6  C5         8.4910   48.5860  130.8260 C.ar  600  EST600     -0.0230
      7  C6         9.2580   48.8540  132.0910 C.3   600  EST600      0.0261
      8  C7         9.6040   47.5900  132.8650 C.3   600  EST600      0.0050
      9  C8         9.9070   46.4370  131.9130 C.3   600  EST600      0.0044
     10  C9         8.6090   46.1010  131.1520 C.3   600  EST600      0.0220
     11  C10        8.0610   47.3120  130.4770 C.ar  600  EST600     -0.0263
     12  C11        8.8490   44.9590  130.1640 C.3   600  EST600      0.0044
     13  C12        9.2400   43.6710  130.9520 C.3   600  EST600      0.0028
     14  C13       10.5000   44.0090  131.7360 C.3   600  EST600      0.0282
     15  C14       10.2590   45.2020  132.6850 C.3   600  EST600      0.0028
     16  C15       11.6130   45.1940  133.4060 C.3   600  EST600      0.0027
     17  C16       11.6390   43.7080  133.9160 C.3   600  EST600      0.0329
     18  C17       10.9140   42.9670  132.7780 C.3   600  EST600      0.1519
     19  O17       11.6950   41.8830  132.2930 O.3   600  EST600     -0.2232
     20  C18       11.6410   44.2340  130.7550 C.3   600  EST600      0.0025
@<TRIPOS>BOND
     1     4     3    1
     2     2     3   ar
     3     2     1   ar
     4     3     5   ar
     5     1    11   ar
     6     5     6   ar
     7    12    13    1
     8    12    10    1
     9    11     6   ar
    10    11    10    1
    11    20    14    1
    12     6     7    1
    13    13    14    1
    14    10     9    1
    15    14    15    1
    16    14    18    1
    17     9    15    1
    18     9     8    1
    19     7     8    1
    20    19    18    1
    21    15    16    1
    22    18    17    1
    23    16    17    1
