@<TRIPOS>MOLECULE
1erm_BJI_A_1.pdb
 18 18 0 0 0
SMALL
GASTEIGER

@<TRIPOS>ATOM
      1  C2        40.9070   38.3460   31.7430 C.3   500  BJI500      0.0000
      2  C1        39.6290   37.9240   32.4420 C.3   500  BJI500      0.0000
      3  N1        40.0350   37.4950   33.7900 N.am  500  BJI500      0.0000
      4  C3        40.4830   38.2740   34.7960 C.2   500  BJI500      0.0000
      5  C4        40.8420   37.5320   36.1030 C.3   500  BJI500      0.0000
      6  O2        40.6550   39.4990   34.7000 O.2   500  BJI500      0.0000
      7  C11       42.0280   33.8090   29.2100 C.2   500  BJI500      0.0000
      8  O3        41.4730   34.2630   28.2000 O.co2 500  BJI500      0.0000
      9  O4        42.5250   32.6870   29.2880 O.co2 500  BJI500      0.0000
     10  B         38.2570   36.8980   31.8840 B     500  BJI500      0.0000
     11  OB1       38.6010   35.4410   32.3390 O.3   500  BJI500      0.0000
     12  C6        42.7080   36.8280   32.4440 C.ar  500  BJI500      0.0000
     13  C5        41.5400   36.9600   31.5000 C.ar  500  BJI500      0.0000
     14  C7        43.6720   35.6460   32.3200 C.ar  500  BJI500      0.0000
     15  C10       41.3370   35.9110   30.4380 C.ar  500  BJI500      0.0000
     16  C8        43.4090   34.5510   31.3090 C.ar  500  BJI500      0.0000
     17  C9        42.2750   34.7590   30.3580 C.ar  500  BJI500      0.0000
     18  OB2       37.0300   37.3850   32.6460 O.3   500  BJI500      0.0000
@<TRIPOS>BOND
     1     8     7   ar
     2     7     9   ar
     3     7    17    1
     4    17    15   ar
     5    17    16   ar
     6    15    13   ar
     7    16    14   ar
     8    13     1    1
     9    13    12   ar
    10     1     2    1
    11    10    11    1
    12    10     2    1
    13    10    18    1
    14    14    12   ar
    15     2     3    1
    16     3     4   am
    17     6     4    2
    18     4     5    1
