@<TRIPOS>MOLECULE
1ero_BJP_A_1.pdb
 24 25 0 0 0
SMALL
GASTEIGER

@<TRIPOS>ATOM
      1  C2        40.6060   38.2530   31.6170 C.3   300  BJP300      0.0000
      2  C1        39.3440   38.1560   32.5030 C.3   300  BJP300      0.0000
      3  C11       42.1430   33.5950   29.1060 C.2   300  BJP300      0.0000
      4  O3        41.2050   33.4320   28.3110 O.co2 300  BJP300      0.0000
      5  O4        43.1470   32.8230   29.1750 O.co2 300  BJP300      0.0000
      6  B         38.3540   37.0660   31.9790 B     300  BJP300      0.0000
      7  OB1       38.7210   35.7600   32.4630 O.3   300  BJP300      0.0000
      8  C6        42.8620   36.8800   32.1550 C.ar  300  BJP300      0.0000
      9  C5        41.5380   37.0390   31.3630 C.ar  300  BJP300      0.0000
     10  C7        43.7960   35.6720   31.8850 C.ar  300  BJP300      0.0000
     11  C10       41.1400   36.0010   30.2940 C.ar  300  BJP300      0.0000
     12  C8        43.3960   34.6350   30.8060 C.ar  300  BJP300      0.0000
     13  C9        42.0740   34.8160   30.0300 C.ar  300  BJP300      0.0000
     14  OB2       37.1220   37.5390   32.6150 O.3   300  BJP300      0.0000
     15  C19       42.8300   37.8170   35.3760 C.ar  300  BJP300      0.0000
     16  C20       43.5400   38.9400   34.8940 C.ar  300  BJP300      0.0000
     17  C21       44.9110   38.8130   34.6150 C.ar  300  BJP300      0.0000
     18  C22       45.5540   37.5790   34.8020 C.ar  300  BJP300      0.0000
     19  C23       44.8250   36.4870   35.2960 C.ar  300  BJP300      0.0000
     20  C24       43.4570   36.5860   35.5060 C.ar  300  BJP300      0.0000
     21  C25       41.4410   37.7880   35.6230 C.3   300  BJP300      0.0000
     22  C26       40.7620   38.4910   34.4220 C.2   300  BJP300      0.0000
     23  O6        40.9920   39.6620   34.0870 O.2   300  BJP300      0.0000
     24  N1        39.9560   37.7010   33.7310 N.am  300  BJP300      0.0000
@<TRIPOS>BOND
     1     4     3   ar
     2     3     5   ar
     3     3    13    1
     4    13    11   ar
     5    13    12   ar
     6    11     9   ar
     7    12    10   ar
     8     9     1    1
     9     9     8   ar
    10     1     2    1
    11    10     8   ar
    12     6     7    1
    13     6     2    1
    14     6    14    1
    15     2    24    1
    16    24    22   am
    17    23    22    2
    18    22    21    1
    19    17    18   ar
    20    17    16   ar
    21    18    19   ar
    22    16    15   ar
    23    19    20   ar
    24    15    20   ar
    25    15    21    1
