@<TRIPOS>MOLECULE
1erq_BJH_A_1.pdb
 19 19 0 0 0
SMALL
GASTEIGER

@<TRIPOS>ATOM
      1  C2        40.7560   38.4160   31.5970 C.3   300  BJH300      0.0000
      2  C1        39.6690   37.8600   32.5410 C.3   300  BJH300      0.0000
      3  N1        40.2880   37.1840   33.6800 N.am  300  BJH300      0.0000
      4  C3        40.7800   37.9460   34.6630 C.2   300  BJH300      0.0000
      5  C4        41.3700   37.2190   35.8960 C.3   300  BJH300      0.0000
      6  O2        40.7870   39.1810   34.5970 O.2   300  BJH300      0.0000
      7  C11       42.3520   33.7590   29.4730 C.2   300  BJH300      0.0000
      8  O3        41.5740   33.8730   28.5000 O.co2 300  BJH300      0.0000
      9  O4        43.0410   32.7160   29.6600 O.co2 300  BJH300      0.0000
     10  B         38.6610   36.8700   31.7770 B     300  BJH300      0.0000
     11  OB1       38.8690   35.4150   32.1530 O.3   300  BJH300      0.0000
     12  C6        43.1790   37.7940   31.5490 C.2   300  BJH300      0.0000
     13  C5        41.7580   37.3140   31.1930 C.2   300  BJH300      0.0000
     14  C7        44.4100   36.9040   31.2200 C.3   300  BJH300      0.0000
     15  C10       41.5970   35.9600   30.4950 C.2   300  BJH300      0.0000
     16  C8        44.2120   35.5280   30.5100 C.2   300  BJH300      0.0000
     17  C9        42.7840   35.0650   30.1720 C.2   300  BJH300      0.0000
     18  OB2       37.4150   37.4190   32.3100 O.3   300  BJH300      0.0000
     19  O5        40.4230   35.6180   30.2410 O.2   300  BJH300      0.0000
@<TRIPOS>BOND
     1     8     7   ar
     2     7     9   ar
     3     7    17    1
     4    17    15    1
     5    17    16    2
     6    19    15    2
     7    15    13    1
     8    16    14    1
     9    13    12    2
    10    13     1    1
    11    14    12    1
    12     1     2    1
    13    10    11    1
    14    10    18    1
    15    10     2    1
    16     2     3    1
    17     3     4   am
    18     6     4    2
    19     4     5    1
