@<TRIPOS>MOLECULE
1err_RAL_A_1.pdb
 34 38 0 0 0
SMALL
GASTEIGER

@<TRIPOS>ATOM
      1  C1        69.5710   36.2230   71.9170 C.ar  600  RAL600      0.0039
      2  C2        69.8160   37.4480   71.3520 C.ar  600  RAL600      0.0421
      3  C3        69.0830   37.9330   70.3050 C.ar  600  RAL600      0.1962
      4  O3        69.4100   39.1860   69.8500 O.3   600  RAL600     -0.2866
      5  C4        68.0290   37.1670   69.7940 C.ar  600  RAL600      0.0485
      6  C5        67.7650   35.9560   70.3850 C.ar  600  RAL600      0.0327
      7  S6        66.6380   34.8150   69.9860 S.2   600  RAL600     -0.0867
      8  C7        67.0010   33.6910   71.1920 C.ar  600  RAL600      0.0325
      9  C8        66.3470   32.3560   71.3010 C.ar  600  RAL600      0.0063
     10  C9        66.0870   31.7270   70.0990 C.ar  600  RAL600      0.0038
     11  C10       65.5600   30.4460   70.1280 C.ar  600  RAL600      0.0420
     12  C11       65.2590   29.8170   71.3200 C.ar  600  RAL600      0.1957
     13  O11       64.7350   28.5250   71.2490 O.3   600  RAL600     -0.2866
     14  C12       65.5620   30.4280   72.5190 C.ar  600  RAL600      0.0420
     15  C13       66.1060   31.7060   72.4800 C.ar  600  RAL600      0.0038
     16  C14       68.5560   35.4680   71.4640 C.ar  600  RAL600      0.0098
     17  C15       68.1280   34.1500   71.9060 C.ar  600  RAL600      0.0454
     18  C16       68.7710   33.4630   72.9180 C.2   600  RAL600      0.1960
     19  O16       69.3680   32.4120   72.6530 O.2   600  RAL600     -0.2866
     20  C17       68.7680   33.9170   74.3130 C.ar  600  RAL600      0.0392
     21  C18       69.6210   33.3510   75.2390 C.ar  600  RAL600      0.0063
     22  C19       69.6330   33.7450   76.5630 C.ar  600  RAL600      0.0370
     23  C20       68.7330   34.7250   76.9780 C.ar  600  RAL600      0.1386
     24  C21       67.8790   35.3050   76.0570 C.ar  600  RAL600      0.0370
     25  C22       67.9070   34.9100   74.7300 C.ar  600  RAL600      0.0063
     26  O23       68.5550   35.2590   78.2200 O.3   600  RAL600     -0.4740
     27  C24       69.4610   34.8370   79.2280 C.3   600  RAL600      0.2226
     28  C25       69.3110   35.6920   80.4580 C.3   600  RAL600      0.1200
     29  N26       69.0230   37.1100   80.5570 N.3   600  RAL600     -0.2696
     30  C27       68.7200   37.4370   81.9650 C.3   600  RAL600      0.0722
     31  C28       68.5440   38.9460   82.2290 C.3   600  RAL600      0.0174
     32  C29       67.3380   39.4040   81.3930 C.3   600  RAL600      0.0029
     33  C30       67.8040   39.1970   79.9190 C.3   600  RAL600      0.0174
     34  C31       67.9600   37.6810   79.7070 C.3   600  RAL600      0.0722
@<TRIPOS>BOND
     1     5     3   ar
     2     5     6   ar
     3     4     3    1
     4     7     6   ar
     5     7     8   ar
     6    10    11   ar
     7    10     9   ar
     8    11    12   ar
     9     3     2   ar
    10     6    16   ar
    11     8     9    1
    12     8    17   ar
    13    13    12    1
    14     9    15   ar
    15    12    14   ar
    16     2     1   ar
    17    16    17   ar
    18    16     1   ar
    19    17    18    1
    20    15    14   ar
    21    19    18    2
    22    18    20    1
    23    20    25   ar
    24    20    21   ar
    25    25    24   ar
    26    21    22   ar
    27    24    23   ar
    28    22    23   ar
    29    23    26    1
    30    26    27    1
    31    27    28    1
    32    34    33    1
    33    34    29    1
    34    33    32    1
    35    28    29    1
    36    29    30    1
    37    32    31    1
    38    30    31    1
