@<TRIPOS>MOLECULE
1erx_HEV_A_1.pdb
 45 52 0 0 0
SMALL
GASTEIGER

@<TRIPOS>ATOM
      1 FE         10.8540   20.2750   36.2890 Fe    185  HEV185      0.0000
      2  CHA       11.4590   23.3270   34.9310 C.2   185  HEV185      0.0000
      3  CHB        7.4820   20.7980   35.8930 C.2   185  HEV185      0.0000
      4  CHC       10.3230   17.7130   38.2110 C.2   185  HEV185      0.0000
      5  CHD       14.1420   19.6000   36.2140 C.2   185  HEV185      0.0000
      6  NA         9.7330   21.7530   35.5220 N.ar  185  HEV185      0.0000
      7  C1A       10.1380   22.9320   34.9860 C.ar  185  HEV185      0.0000
      8  C2A        8.9740   23.7860   34.7160 C.ar  185  HEV185      0.0000
      9  C3A        7.8400   23.1020   35.0420 C.ar  185  HEV185      0.0000
     10  C4A        8.3340   21.7860   35.4530 C.ar  185  HEV185      0.0000
     11  CMA        6.3700   23.5070   34.8490 C.3   185  HEV185      0.0000
     12  CAA        9.0690   25.2130   34.1660 C.3   185  HEV185      0.0000
     13  CBA        8.9250   26.2280   35.3150 C.3   185  HEV185      0.0000
     14  CGA        8.8470   27.6620   34.8170 C.2   185  HEV185      0.0000
     15  O1A        9.5500   27.9630   33.8290 O.co2 185  HEV185      0.0000
     16  O2A        8.0830   28.4590   35.4360 O.co2 185  HEV185      0.0000
     17  NB         9.2580   19.4380   36.9450 N.2   185  HEV185      0.0000
     18  C1B        7.9150   19.6840   36.6500 C.2   185  HEV185      0.0000
     19  C2B        7.0150   18.6430   37.1340 C.2   185  HEV185      0.0000
     20  C3B        7.8270   17.9040   38.0440 C.2   185  HEV185      0.0000
     21  C4B        9.1930   18.4060   37.8900 C.2   185  HEV185      0.0000
     22  CMB        5.5300   18.6480   36.9260 C.2   185  HEV185      0.0000
     23  CM1       13.4190   16.1030   40.4570 C.3   185  HEV185      0.0000
     24  CAB        7.3870   16.7320   38.7320 C.2   185  HEV185      0.0000
     25  CBB        7.9390   16.0780   39.7680 C.2   185  HEV185      0.0000
     26  NC        12.0700   18.9940   37.1450 N.ar  185  HEV185      0.0000
     27  C1C       11.6580   17.9520   37.8540 C.ar  185  HEV185      0.0000
     28  C2C       12.8110   17.1640   38.4360 C.ar  185  HEV185      0.0000
     29  C3C       13.8750   17.6220   37.8410 C.ar  185  HEV185      0.0000
     30  C4C       13.3680   18.7810   36.9770 C.ar  185  HEV185      0.0000
     31  CMC       12.6560   15.9250   39.3500 C.3   185  HEV185      0.0000
     32  CM2        4.7120   18.5190   38.0070 C.2   185  HEV185      0.0000
     33  CAC       15.1450   17.0700   37.8240 C.3   185  HEV185      0.0000
     34  CBC       15.1900   16.1450   36.8560 C.3   185  HEV185      0.0000
     35  ND        12.4280   21.2420   35.6500 N.2   185  HEV185      0.0000
     36  C1D       13.7920   20.8450   35.7590 C.2   185  HEV185      0.0000
     37  C2D       14.6630   21.7400   35.0820 C.2   185  HEV185      0.0000
     38  C3D       13.8860   22.8140   34.7660 C.2   185  HEV185      0.0000
     39  C4D       12.5090   22.5320   35.1720 C.2   185  HEV185      0.0000
     40  CMD       16.1410   21.5320   34.7670 C.3   185  HEV185      0.0000
     41  CAD       14.3490   24.0790   34.0290 C.3   185  HEV185      0.0000
     42  CBD       14.6410   23.9220   32.5800 C.3   185  HEV185      0.0000
     43  CGD       14.0810   25.0550   31.8440 C.2   185  HEV185      0.0000
     44  O1D       12.8910   24.9540   31.5250 O.co2 185  HEV185      0.0000
     45  O2D       14.8510   25.9960   31.6600 O.co2 185  HEV185      0.0000
@<TRIPOS>BOND
     1    44    43   ar
     2    45    43   ar
     3    43    42    1
     4    42    41    1
     5    15    14   ar
     6    41    38    1
     7    12     8    1
     8    12    13    1
     9     8     7   ar
    10     8     9   ar
    11    38    37    2
    12    38    39    1
    13    40    37    1
    14    14    13    1
    15    14    16   ar
    16    11     9    1
    17     2     7    2
    18     2    39    1
    19     7     6   ar
    20     9    10   ar
    21    37    36    1
    22    39    35    2
    23    10     6   ar
    24    10     3    2
    25     6     1    1
    26    35    36    1
    27    35     1    1
    28    36     5    2
    29     3    18    1
    30     5    30    1
    31     1    17    1
    32     1    26    1
    33    18    17    2
    34    18    19    1
    35    34    33    1
    36    22    19    1
    37    22    32    2
    38    17    21    1
    39    30    26   ar
    40    30    29   ar
    41    19    20    2
    42    26    27   ar
    43    33    29    1
    44    29    28   ar
    45    27     4    1
    46    27    28   ar
    47    21    20    1
    48    21     4    2
    49    20    24    1
    50    28    31    1
    51    24    25    2
    52    31    23    1
