@<TRIPOS>MOLECULE
1es1_HEM_A_1.pdb
 43 50 0 0 0
SMALL
GASTEIGER

@<TRIPOS>ATOM
      1 FE         11.7220    2.1740   -2.3110 Fe    201  HEM201      0.0000
      2  CHA       10.6040    2.7400   -5.4770 C.2   201  HEM201      0.0000
      3  CHB       14.4650    4.1180   -2.9570 C.2   201  HEM201      0.0000
      4  CHC       13.0230    1.4090    0.7620 C.2   201  HEM201      0.0000
      5  CHD        8.9490    0.2480   -1.6430 C.2   201  HEM201      0.0000
      6  NA        12.4030    3.1730   -3.8620 N.ar  201  HEM201      0.0000
      7  C1A       11.8470    3.2430   -5.1380 C.ar  201  HEM201      0.0000
      8  C2A       12.6890    3.9800   -6.0450 C.ar  201  HEM201      0.0000
      9  C3A       13.7410    4.4200   -5.3130 C.ar  201  HEM201      0.0000
     10  C4A       13.5530    3.9270   -3.9640 C.ar  201  HEM201      0.0000
     11  CMA       14.9260    5.2060   -5.8290 C.3   201  HEM201      0.0000
     12  CAA       12.5160    4.1970   -7.5440 C.3   201  HEM201      0.0000
     13  CBA       12.7040    2.9380   -8.3800 C.3   201  HEM201      0.0000
     14  CGA       14.0300    2.2600   -8.1150 C.2   201  HEM201      0.0000
     15  O1A       15.0810    2.9050   -8.3070 O.co2 201  HEM201      0.0000
     16  O2A       14.0210    1.0800   -7.7090 O.co2 201  HEM201      0.0000
     17  NB        13.3410    2.7060   -1.2910 N.2   201  HEM201      0.0000
     18  C1B       14.3780    3.5190   -1.7050 C.2   201  HEM201      0.0000
     19  C2B       15.4540    3.5760   -0.7320 C.2   201  HEM201      0.0000
     20  C3B       15.0670    2.7790    0.2970 C.2   201  HEM201      0.0000
     21  C4B       13.7400    2.2800   -0.0260 C.2   201  HEM201      0.0000
     22  CMB       16.7670    4.3560   -0.9010 C.3   201  HEM201      0.0000
     23  CAB       15.8910    2.3440    1.3200 C.3   201  HEM201      0.0000
     24  CBB       15.8110    2.8260    2.6130 C.3   201  HEM201      0.0000
     25  NC        11.1140    1.0690   -0.7550 N.ar  201  HEM201      0.0000
     26  C1C       11.8030    0.8240    0.4110 C.ar  201  HEM201      0.0000
     27  C2C       11.0680   -0.0790    1.2790 C.ar  201  HEM201      0.0000
     28  C3C        9.8940   -0.3890    0.6470 C.ar  201  HEM201      0.0000
     29  C4C        9.9290    0.3300   -0.6270 C.ar  201  HEM201      0.0000
     30  CMC       11.4900   -0.4550    2.7070 C.3   201  HEM201      0.0000
     31  CAC        8.8430   -1.2030    1.0730 C.3   201  HEM201      0.0000
     32  CBC        8.7240   -1.8700    2.2980 C.3   201  HEM201      0.0000
     33  ND        10.1190    1.6480   -3.3150 N.2   201  HEM201      0.0000
     34  C1D        9.0380    0.8960   -2.8870 C.2   201  HEM201      0.0000
     35  C2D        8.0050    0.9070   -3.9190 C.2   201  HEM201      0.0000
     36  C3D        8.4920    1.5770   -4.9930 C.2   201  HEM201      0.0000
     37  C4D        9.8010    2.0150   -4.6230 C.2   201  HEM201      0.0000
     38  CMD        6.5800    0.3990   -3.8080 C.3   201  HEM201      0.0000
     39  CAD        7.7910    1.7840   -6.3370 C.3   201  HEM201      0.0000
     40  CBD        7.8880    0.5210   -7.1740 C.3   201  HEM201      0.0000
     41  CGD        6.9830    0.5540   -8.3910 C.2   201  HEM201      0.0000
     42  O1D        6.8940   -0.4780   -9.0900 O.co2 201  HEM201      0.0000
     43  O2D        6.3570    1.6060   -8.6460 O.co2 201  HEM201      0.0000
@<TRIPOS>BOND
     1    42    41   ar
     2    43    41   ar
     3    41    40    1
     4    13    14    1
     5    13    12    1
     6    15    14   ar
     7    14    16   ar
     8    12     8    1
     9    40    39    1
    10    39    36    1
    11     8     9   ar
    12     8     7   ar
    13    11     9    1
    14     2     7    2
    15     2    37    1
    16     9    10   ar
    17     7     6   ar
    18    36    37    1
    19    36    35    2
    20    37    33    2
    21    10     6   ar
    22    10     3    2
    23    35    38    1
    24    35    34    1
    25     6     1    1
    26    33    34    1
    27    33     1    1
    28     3    18    1
    29    34     5    2
    30     1    17    1
    31     1    25    1
    32    18    17    2
    33    18    19    1
    34     5    29    1
    35    17    21    1
    36    22    19    1
    37    25    29   ar
    38    25    26   ar
    39    19    20    2
    40    29    28   ar
    41    21    20    1
    42    21     4    2
    43    20    23    1
    44    26     4    1
    45    26    27   ar
    46    28    31    1
    47    28    27   ar
    48    31    32    1
    49    27    30    1
    50    23    24    1
