@<TRIPOS>MOLECULE
1esb_BBL_A_1.pdb
 15 15 0 0 0
SMALL
GASTEIGER

@<TRIPOS>ATOM
      1  CB2       43.7290   23.9350   36.6300 C.3   256  BBL256      0.2037
      2  OG1       44.1310   24.8780   36.0080 O.3   256  BBL256     -0.2185
      3  CA        44.0820   22.6860   35.8250 C.3   256  BBL256      0.1316
      4  CBZ       44.7620   23.1980   34.5680 C.3   256  BBL256      0.0263
      5  N         43.2420   21.6460   35.3270 N.am  256  BBL256     -0.1678
      6  C         41.9090   21.5290   35.4890 C.2   256  BBL256      0.4215
      7  O         41.1880   22.3430   36.0860 O.2   256  BBL256     -0.2246
      8  OEZ       41.3510   20.2760   34.8800 O.3   256  BBL256     -0.4285
      9  CB        40.2990   19.6150   35.5740 C.3   256  BBL256      0.2368
     10  CG        40.6040   19.5030   37.0800 C.ar  256  BBL256      0.0213
     11  CD1       40.0140   20.3550   38.0180 C.ar  256  BBL256     -0.0007
     12  CE1       40.3850   20.3230   39.3400 C.ar  256  BBL256     -0.0002
     13  CZ        41.3570   19.4410   39.7490 C.ar  256  BBL256     -0.0000
     14  CE2       41.9530   18.5800   38.8390 C.ar  256  BBL256     -0.0002
     15  CD2       41.5820   18.6100   37.5130 C.ar  256  BBL256     -0.0007
@<TRIPOS>BOND
     1     4     3    1
     2     8     6    1
     3     8     9    1
     4     5     6   am
     5     5     3    1
     6     6     7    2
     7     9    10    1
     8     3     1    1
     9     2     1    1
    10    10    15   ar
    11    10    11   ar
    12    15    14   ar
    13    11    12   ar
    14    14    13   ar
    15    12    13   ar
