@<TRIPOS>MOLECULE
1esm_COA_A_1.pdb
 48 50 0 0 0
SMALL
GASTEIGER

@<TRIPOS>ATOM
      1  N1A       24.2470    5.8470   75.1970 N.2   401  COA401      0.0021
      2  C2A       23.7700    6.8130   76.0060 C.3   401  COA401      0.5254
      3  N3A       23.9990    8.1410   75.9240 N.2   401  COA401     -0.0055
      4  C4A       24.8120    8.4640   74.8500 C.2   401  COA401      0.3518
      5  C5A       25.3760    7.5860   73.9510 C.2   401  COA401      0.2526
      6  C6A       25.0470    6.2250   74.1540 C.2   401  COA401      0.4393
      7  N6A       25.5160    5.2840   73.3630 N.pl3 401  COA401      0.2180
      8  N7A       26.1420    8.2630   73.0010 N.2   401  COA401     -0.2095
      9  C8A       26.0310    9.5120   73.3750 C.3   401  COA401      0.3377
     10  N9A       25.2460    9.7060   74.4880 N.pl3 401  COA401     -0.1439
     11  C1B       24.8790   10.9380   75.2110 C.3   401  COA401      0.3185
     12  C2B       25.9210   11.7590   76.0090 C.3   401  COA401      0.2543
     13  O2B       25.9460   11.3570   77.3940 O.3   401  COA401     -0.2131
     14  C3B       25.4910   13.2080   75.7400 C.3   401  COA401      0.1928
     15  O3B       24.5680   13.8150   76.7230 O.3   401  COA401     -0.2673
     16  P3B       24.9150   14.3800   78.1760 P.3   401  COA401      0.5327
     17  O7A       26.2280   13.7330   78.5080 O.3   401  COA401     -0.1145
     18  O8A       23.7670   13.8710   78.9450 O.3   401  COA401     -0.1145
     19  O9A       24.8660   15.8160   77.9020 O.2   401  COA401     -0.2224
     20  C4B       24.6880   13.1300   74.4760 C.3   401  COA401      0.1795
     21  O4B       24.2780   11.8030   74.2630 O.3   401  COA401     -0.3136
     22  C5B       25.4630   13.6150   73.2120 C.3   401  COA401      0.1812
     23  O5B       26.6100   12.7950   72.9000 O.3   401  COA401     -0.3112
     24  P1A       27.6110   13.2870   71.7280 P.3   401  COA401      0.2189
     25  O1A       28.5230   12.1820   71.3340 O.2   401  COA401     -0.5170
     26  O2A       28.2910   14.5300   72.2060 O.3   401  COA401     -0.4371
     27  O3A       26.7630   13.8020   70.5260 O.3   401  COA401     -0.2703
     28  P2A       26.8560   13.3080   69.0350 P.3   401  COA401      0.2188
     29  O4A       28.2770   13.5260   68.6960 O.3   401  COA401     -0.4371
     30  O5A       25.9000   14.1900   68.2940 O.2   401  COA401     -0.5170
     31  O6A       26.5630   11.7530   68.6640 O.3   401  COA401     -0.3138
     32  CBP       25.4930    9.5530   68.3660 C.3   401  COA401      0.0645
     33  CCP       25.4070   10.9580   69.0090 C.3   401  COA401      0.1519
     34  CDP       25.7200    9.8220   66.9150 C.3   401  COA401      0.0056
     35  CEP       24.1250    8.9030   68.4000 C.3   401  COA401      0.0056
     36  CAP       26.6450    8.6200   68.9760 C.3   401  COA401      0.2312
     37  OAP       26.1680    8.2130   70.2610 O.3   401  COA401     -0.2131
     38  C9P       26.5360    7.2810   68.1180 C.2   401  COA401      0.2719
     39  O9P       25.8980    6.5460   67.8960 O.2   401  COA401     -0.2706
     40  N8P       27.9710    7.2060   67.4060 N.am  401  COA401     -0.2028
     41  C7P       28.3620    6.0960   66.4420 C.3   401  COA401      0.1248
     42  C6P       29.2980    5.0090   67.0910 C.3   401  COA401      0.1102
     43  C5P       29.1440    4.9230   68.6000 C.2   401  COA401      0.2432
     44  O5P       29.9400    5.3990   69.3940 O.2   401  COA401     -0.2733
     45  N4P       28.0280    4.2920   68.8760 N.am  401  COA401     -0.2044
     46  C3P       27.4610    4.0120   70.2250 C.3   401  COA401      0.1276
     47  C2P       28.4120    2.9800   70.8260 C.3   401  COA401      0.0920
     48  S1P       27.9530    2.4830   72.5010 S.3   401  COA401     -0.0802
@<TRIPOS>BOND
     1    41    42    1
     2    41    40    1
     3    34    32    1
     4    42    43    1
     5    40    38   am
     6    39    38    2
     7    38    36    1
     8    30    28    2
     9    32    35    1
    10    32    36    1
    11    32    33    1
    12    43    45   am
    13    43    44    2
    14    31    33    1
    15    31    28    1
    16    29    28    1
    17    45    46    1
    18    36    37    1
    19    28    27    1
    20    46    47    1
    21    27    24    1
    22    47    48    1
    23    25    24    2
    24    24    26    1
    25    24    23    1
    26    23    22    1
    27     8     9    1
    28     8     5    2
    29    22    20    1
    30     7     6    1
    31     9    10    1
    32     5     6    1
    33     5     4    1
    34     6     1    2
    35    21    20    1
    36    21    11    1
    37    20    14    1
    38    10     4    1
    39    10    11    1
    40     4     3    2
    41     1     2    1
    42    11    12    1
    43    14    12    1
    44    14    15    1
    45     3     2    1
    46    12    13    1
    47    15    16    1
    48    19    16    2
    49    16    17    1
    50    16    18    1
