@<TRIPOS>MOLECULE
1esn_ANP_A_1.pdb
 31 33 0 0 0
SMALL
GASTEIGER

@<TRIPOS>ATOM
      1  PG        -2.6560   63.0420   -3.0110 P.3   401  ANP401      0.4884
      2  O1G       -1.6770   63.7840   -3.8850 O.2   401  ANP401     -0.2331
      3  O2G       -2.6410   61.5470   -3.2230 O.3   401  ANP401     -0.1240
      4  O3G       -4.1670   63.4110   -3.2730 O.3   401  ANP401     -0.1240
      5  PB        -2.4510   62.5740   -0.0520 P.3   401  ANP401      0.4669
      6  O1B       -3.8570   62.4900    0.2610 O.3   401  ANP401     -0.1253
      7  O2B       -1.8230   61.2040   -0.1460 O.2   401  ANP401     -0.2351
      8  N3B       -2.1870   63.3860   -1.4730 N.3   401  ANP401     -0.0163
      9  PA        -0.1570   63.3700    1.5490 P.3   401  ANP401      0.2220
     10  O1A       -0.0170   62.1590    2.5310 O.3   401  ANP401     -0.4370
     11  O2A        0.7710   63.3000    0.3810 O.2   401  ANP401     -0.5170
     12  O3A       -1.6870   63.4170    1.0710 O.3   401  ANP401     -0.2360
     13  O5'        0.0620   64.7240    2.3820 O.3   401  ANP401     -0.3111
     14  C5'       -0.0340   65.9720    1.6480 C.3   401  ANP401      0.1813
     15  C4'        0.5550   67.1070    2.4940 C.3   401  ANP401      0.1821
     16  O4'       -0.2830   67.2510    3.6390 O.3   401  ANP401     -0.3135
     17  C3'        1.9260   66.7880    3.0460 C.3   401  ANP401      0.2184
     18  O3'        2.9160   67.3730    2.2120 O.3   401  ANP401     -0.2174
     19  C2'        1.8500   67.3230    4.4240 C.3   401  ANP401      0.2570
     20  O2'        2.3070   68.7030    4.4150 O.3   401  ANP401     -0.2130
     21  C1'        0.4270   67.2840    4.7860 C.3   401  ANP401      0.3186
     22  N9         0.0140   66.1900    5.6690 N.pl3 401  ANP401     -0.1439
     23  C8        -0.6530   65.0590    5.4200 C.3   401  ANP401      0.3377
     24  N7        -0.8700   64.3250    6.5010 N.2   401  ANP401     -0.2095
     25  C5        -0.2920   65.0510    7.5190 C.2   401  ANP401      0.2526
     26  C6        -0.1680   64.8270    8.9540 C.2   401  ANP401      0.4393
     27  N6        -0.5850   63.8600    9.6710 N.pl3 401  ANP401      0.2180
     28  N1         0.5080   65.8490    9.5770 N.2   401  ANP401      0.0021
     29  C2         1.0220   66.9640    8.9540 C.3   401  ANP401      0.5254
     30  N3         0.9130   67.1750    7.6590 N.2   401  ANP401     -0.0055
     31  C4         0.2540   66.1920    6.9930 C.2   401  ANP401      0.3518
@<TRIPOS>BOND
     1     2     1    2
     2     4     1    1
     3     3     1    1
     4     1     8    1
     5     8     5    1
     6     7     5    2
     7     5     6    1
     8     5    12    1
     9    11     9    2
    10    12     9    1
    11     9    13    1
    12     9    10    1
    13    14    13    1
    14    14    15    1
    15    18    17    1
    16    15    17    1
    17    15    16    1
    18    17    19    1
    19    16    21    1
    20    20    19    1
    21    19    21    1
    22    21    22    1
    23    23    22    1
    24    23    24    1
    25    22    31    1
    26    24    25    2
    27    31    25    1
    28    31    30    2
    29    25    26    1
    30    30    29    1
    31    26    28    2
    32    26    27    1
    33    29    28    1
