@<TRIPOS>MOLECULE
1esq_TZP_A_1.pdb
 13 13 0 0 0
SMALL
GASTEIGER

@<TRIPOS>ATOM
      1  N3        35.7040   -0.5400   11.9680 N.2   320  TZP320     -0.2662
      2  C2        34.5280    0.1760   12.0360 C.3   320  TZP320      0.1825
      3  S1        34.6820    1.5210   13.1630 S.3   320  TZP320     -0.1093
      4  C5        36.3400    1.0550   13.4930 C.3   320  TZP320      0.0874
      5  C4        36.7850   -0.0400   12.8200 C.2   320  TZP320      0.0427
      6  CM4       38.1630   -0.7090   12.8800 C.3   320  TZP320      0.0477
      7  C6        37.0440    1.9500   14.4940 C.3   320  TZP320      0.0492
      8  C7        36.9910    3.4520   14.1460 C.3   320  TZP320      0.1550
      9  O7        38.3060    3.9320   14.3950 O.3   320  TZP320     -0.2702
     10  P1        38.9990    5.1770   14.2990 P.3   320  TZP320      0.5326
     11  O1        40.4600    4.9820   14.3330 O.3   320  TZP320     -0.1145
     12  O2        38.5970    5.7600   13.0290 O.2   320  TZP320     -0.2224
     13  O3        38.5370    6.4200   15.3270 O.3   320  TZP320     -0.1145
@<TRIPOS>BOND
     1     1     2    1
     2     1     5    2
     3     2     3    1
     4     5     6    1
     5     5     4    1
     6    12    10    2
     7     3     4    1
     8     4     7    1
     9     8     9    1
    10     8     7    1
    11    10    11    1
    12    10     9    1
    13    10    13    1
