@<TRIPOS>MOLECULE
1esq_ATP_A_1.pdb
 31 33 0 0 0
SMALL
GASTEIGER

@<TRIPOS>ATOM
      1  PG        42.3120    7.2620    9.5550 P.3   300  ATP300      0.5373
      2  O1G       42.9170    7.9040    8.3740 O.2   300  ATP300     -0.2221
      3  O2G       41.3030    6.3220    9.0740 O.3   300  ATP300     -0.1143
      4  O3G       43.2660    6.1930   10.4330 O.3   300  ATP300     -0.1143
      5  PB        41.1850    8.3010   11.8390 P.3   300  ATP300      0.2277
      6  O1B       39.7540    8.7950   12.0100 O.2   300  ATP300     -0.5168
      7  O2B       41.3770    6.9080   12.4500 O.3   300  ATP300     -0.4368
      8  O3B       41.6980    8.2440   10.4540 O.3   300  ATP300     -0.2258
      9  PA        43.5650   10.2250   12.4970 P.3   300  ATP300      0.2189
     10  O1A       44.7090    9.1220   12.1960 O.3   300  ATP300     -0.4371
     11  O2A       43.4980   11.3230   11.4160 O.2   300  ATP300     -0.5170
     12  O3A       42.2150    9.3020   12.6350 O.3   300  ATP300     -0.2700
     13  O5'       43.7700   10.8630   13.9880 O.3   300  ATP300     -0.3112
     14  C5'       44.8050   10.4560   14.9190 C.3   300  ATP300      0.1813
     15  C4'       45.7340   11.6340   15.4510 C.3   300  ATP300      0.1821
     16  O4'       46.9020   11.1050   14.7900 O.3   300  ATP300     -0.3135
     17  C3'       45.7740   13.1740   15.1620 C.3   300  ATP300      0.2184
     18  O3'       46.3520   13.8520   16.3060 O.3   300  ATP300     -0.2174
     19  C2'       46.6250   13.2410   13.8890 C.3   300  ATP300      0.2570
     20  O2'       47.2040   14.5420   13.7290 O.3   300  ATP300     -0.2130
     21  C1'       47.6390   12.1710   14.1640 C.3   300  ATP300      0.3186
     22  N9        48.2650   11.5520   13.1770 N.pl3 300  ATP300     -0.1439
     23  C8        47.6370   10.7310   12.1560 C.3   300  ATP300      0.3377
     24  N7        48.4690   10.2260   11.2720 N.2   300  ATP300     -0.2095
     25  C5        49.7230   10.7210   11.7050 C.2   300  ATP300      0.2526
     26  C6        51.1000   10.5860   11.2290 C.2   300  ATP300      0.4393
     27  N6        51.4200    9.8640   10.1520 N.pl3 300  ATP300      0.2180
     28  N1        52.1270   11.2390   11.9270 N.2   300  ATP300      0.0021
     29  C2        51.8540   11.9980   13.0460 C.3   300  ATP300      0.5254
     30  N3        50.6190   12.2030   13.5950 N.2   300  ATP300     -0.0055
     31  C4        49.5940   11.5340   12.8730 C.2   300  ATP300      0.3518
@<TRIPOS>BOND
     1     2     1    2
     2     3     1    1
     3     1     4    1
     4     1     8    1
     5    27    26    1
     6     8     5    1
     7    26    25    1
     8    26    28    2
     9    24    25    2
    10    24    23    1
    11    11     9    2
    12    25    31    1
    13     5     6    2
    14     5     7    1
    15     5    12    1
    16    28    29    1
    17    23    22    1
    18    10     9    1
    19     9    12    1
    20     9    13    1
    21    31    22    1
    22    31    30    2
    23    29    30    1
    24    22    21    1
    25    20    19    1
    26    19    21    1
    27    19    17    1
    28    13    14    1
    29    21    16    1
    30    16    15    1
    31    14    15    1
    32    17    15    1
    33    17    18    1
