@<TRIPOS>MOLECULE
1est_TSU_A_1.pdb
 10 10 0 0 0
SMALL
GASTEIGER

@<TRIPOS>ATOM
      1  S         -8.2990   23.3900   37.4260 S.3   247  TSU247      0.0045
      2  O2        -9.7210   23.1510   37.6070 O.3   247  TSU247     -0.0734
      3  O3        -8.0870   24.5910   36.6310 O.3   247  TSU247     -0.0734
      4  C1        -7.5850   22.0200   36.6030 C.ar  247  TSU247      0.1034
      5  C2        -6.5450   22.2170   35.6890 C.ar  247  TSU247      0.0178
      6  C3        -5.9690   21.1210   35.0340 C.ar  247  TSU247     -0.0029
      7  C4        -6.4350   19.8240   35.2800 C.ar  247  TSU247     -0.0218
      8  C5        -7.4980   19.6350   36.1720 C.ar  247  TSU247     -0.0029
      9  C6        -8.0750   20.7300   36.8300 C.ar  247  TSU247      0.0178
     10  C7        -5.4820   18.6570   35.0330 C.3   247  TSU247      0.0310
@<TRIPOS>BOND
     1    10     7    1
     2     6     7   ar
     3     6     5   ar
     4     7     8   ar
     5     5     4   ar
     6     8     9   ar
     7     4     9   ar
     8     4     1    1
     9     3     1    1
    10     1     2    1
