@<TRIPOS>MOLECULE
1esv_LAR_A_1.pdb
 29 31 0 0 0
SMALL
GASTEIGER

@<TRIPOS>ATOM
      1  S1        20.2460   10.1120   81.2040 S.3   401  LAR401     -0.0192
      2  N1        20.1590    8.6840   79.1080 N.2   401  LAR401     -0.1932
      3  O1        18.5560   10.3210   74.9080 O.2   401  LAR401     -0.2449
      4  O2        16.5860   10.0090   75.9840 O.3   401  LAR401     -0.4490
      5  O3        16.5380    8.3510   79.1850 O.3   401  LAR401     -0.3329
      6  O4        17.6900   10.3320   78.8570 O.3   401  LAR401     -0.1930
      7  O5        22.1160    9.8720   79.3550 O.2   401  LAR401     -0.2155
      8  C1        17.4320   10.7150   75.2100 C.2   401  LAR401      0.3407
      9  C2        16.8500   12.0060   74.8270 C.2   401  LAR401      0.0734
     10  C3        15.8550   12.7210   75.3660 C.2   401  LAR401     -0.0372
     11  C4        15.1060   12.3010   76.5940 C.3   401  LAR401      0.0269
     12  C5        13.6540   12.5590   76.3680 C.3   401  LAR401      0.0304
     13  C6        12.7600   11.9180   77.3710 C.2   401  LAR401     -0.0258
     14  C7        13.0220   11.2140   78.4780 C.2   401  LAR401     -0.0049
     15  C8        11.9750   10.6640   79.2820 C.2   401  LAR401     -0.0049
     16  C9        12.2450   10.0050   80.4270 C.2   401  LAR401     -0.0265
     17  C10       13.6490    9.6900   80.8570 C.3   401  LAR401      0.0221
     18  C11       14.0930    8.3060   80.4680 C.3   401  LAR401      0.0068
     19  C12       14.1820    8.0830   78.9790 C.3   401  LAR401      0.0301
     20  C13       15.3870    8.6760   78.3060 C.3   401  LAR401      0.1214
     21  C14       15.6150    8.0990   76.9320 C.3   401  LAR401      0.0734
     22  C15       16.9190    8.6240   76.3780 C.3   401  LAR401      0.1766
     23  C16       18.0930    8.5640   77.3180 C.3   401  LAR401      0.1048
     24  C17       17.7610    8.9130   78.7650 C.3   401  LAR401      0.2448
     25  C18       18.8100    8.3850   79.7170 C.3   401  LAR401      0.1810
     26  C19       18.8410    8.9200   81.1240 C.3   401  LAR401      0.1042
     27  C20       21.0060    9.5120   79.6910 C.1   401  LAR401      0.1790
     28  C21       15.4570   14.0530   74.6810 C.3   401  LAR401      0.0266
     29  C22       13.8000    9.9830   82.4270 C.3   401  LAR401      0.0047
@<TRIPOS>BOND
     1    28    10    1
     2     9     8    1
     3     9    10    2
     4     3     8    2
     5     8     4    1
     6    10    11    1
     7     4    22    1
     8    12    11    1
     9    12    13    1
    10    22    21    1
    11    22    23    1
    12    21    20    1
    13    23    24    1
    14    13    14    2
    15    20    19    1
    16    20     5    1
    17    14    15    1
    18    24     6    1
    19    24     5    1
    20    24    25    1
    21    19    18    1
    22     2    27    2
    23     2    25    1
    24    15    16    2
    25     7    27    2
    26    27     1    1
    27    25    26    1
    28    16    17    1
    29    18    17    1
    30    17    29    1
    31    26     1    1
