@<TRIPOS>MOLECULE
1esv_ATP_A_1.pdb
 31 33 0 0 0
SMALL
GASTEIGER

@<TRIPOS>ATOM
      1  PG        22.2490    2.1870   72.0260 P.3   380  ATP380      0.5373
      2  O1G       21.3730    0.9790   72.2150 O.3   380  ATP380     -0.1143
      3  O2G       23.4350    2.1770   72.9450 O.3   380  ATP380     -0.1143
      4  O3G       22.6540    2.3650   70.5810 O.2   380  ATP380     -0.2221
      5  PB        20.5150    4.4350   71.5320 P.3   380  ATP380      0.2277
      6  O1B       19.2540    4.7900   72.2370 O.3   380  ATP380     -0.4368
      7  O2B       20.3080    3.8530   70.1760 O.2   380  ATP380     -0.5168
      8  O3B       21.3660    3.4600   72.4150 O.3   380  ATP380     -0.2258
      9  PA        21.3070    6.9540   70.3840 P.3   380  ATP380      0.2189
     10  O1A       22.1710    6.6660   69.2000 O.2   380  ATP380     -0.5170
     11  O2A       19.8730    7.1630   70.0510 O.3   380  ATP380     -0.4371
     12  O3A       21.4100    5.7400   71.3960 O.3   380  ATP380     -0.2700
     13  O5'       21.8820    8.1880   71.1520 O.3   380  ATP380     -0.3112
     14  C5'       21.1240    8.8890   72.2020 C.3   380  ATP380      0.1813
     15  C4'       22.2540    9.1980   73.3160 C.3   380  ATP380      0.1821
     16  O4'       23.0960   10.2220   72.6770 O.3   380  ATP380     -0.3135
     17  C3'       21.8130    9.8060   74.6370 C.3   380  ATP380      0.2184
     18  O3'       22.8280    9.3830   75.5580 O.3   380  ATP380     -0.2174
     19  C2'       21.8750   11.2440   74.3900 C.3   380  ATP380      0.2570
     20  O2'       22.1770   12.0430   75.5930 O.3   380  ATP380     -0.2130
     21  C1'       23.1140   11.3600   73.5070 C.3   380  ATP380      0.3186
     22  N9        23.1120   12.5650   72.7080 N.pl3 380  ATP380     -0.1439
     23  C8        22.1750   13.0620   71.8640 C.3   380  ATP380      0.3377
     24  N7        22.5210   14.2210   71.3270 N.2   380  ATP380     -0.2095
     25  C5        23.8100   14.4900   71.8140 C.2   380  ATP380      0.2526
     26  C6        24.6910   15.5700   71.6570 C.2   380  ATP380      0.4393
     27  N6        24.4960   16.5930   70.8430 N.pl3 380  ATP380      0.2180
     28  N1        25.8570   15.4900   72.2910 N.2   380  ATP380      0.0021
     29  C2        26.1100   14.3950   73.0760 C.3   380  ATP380      0.5254
     30  N3        25.2970   13.3860   73.3980 N.2   380  ATP380     -0.0055
     31  C4        24.2120   13.4560   72.6460 C.2   380  ATP380      0.3518
@<TRIPOS>BOND
     1    10     9    2
     2    11     9    1
     3     7     5    2
     4     9    13    1
     5     9    12    1
     6     4     1    2
     7    27    26    1
     8    13    14    1
     9    24    25    2
    10    24    23    1
    11    12     5    1
    12     5     6    1
    13     5     8    1
    14    26    25    1
    15    26    28    2
    16    25    31    1
    17    23    22    1
    18     1     2    1
    19     1     8    1
    20     1     3    1
    21    14    15    1
    22    28    29    1
    23    31    22    1
    24    31    30    2
    25    16    15    1
    26    16    21    1
    27    22    21    1
    28    29    30    1
    29    15    17    1
    30    21    19    1
    31    19    17    1
    32    19    20    1
    33    17    18    1
