@<TRIPOS>MOLECULE
1esw_ACR_A_1.pdb
 44 47 0 0 0
SMALL
GASTEIGER

@<TRIPOS>ATOM
      1  C1A      -48.6100  -16.1870   -1.6090 C.3   651  ACR651      0.1273
      2  C2A      -47.9850  -15.3470   -2.7810 C.3   651  ACR651      0.2049
      3  C3A      -46.9730  -14.3090   -2.2380 C.3   651  ACR651      0.2179
      4  C4A      -47.6020  -13.3100   -1.1990 C.3   651  ACR651      0.2053
      5  C5A      -48.6330  -13.9820   -0.2590 C.2   651  ACR651      0.0180
      6  C6A      -49.2690  -13.1380    0.8510 C.3   651  ACR651      0.2066
      7  C7A      -49.0740  -15.2860   -0.4590 C.2   651  ACR651     -0.0100
      8  O2A      -47.3800  -16.2270   -3.7100 O.3   651  ACR651     -0.2184
      9  O3A      -46.4110  -13.5540   -3.2980 O.3   651  ACR651     -0.2172
     10  O4A      -46.5040  -12.6950   -0.5360 O.3   651  ACR651     -0.2157
     11  O6A      -50.0280  -12.0580    0.2700 O.3   651  ACR651     -0.2155
     12  C1B      -46.9610  -21.3610   -0.8740 C.3   651  ACR651      0.2694
     13  C2B      -46.2030  -20.5650   -1.9460 C.3   651  ACR651      0.2394
     14  C3B      -46.1910  -19.0620   -1.5850 C.3   651  ACR651      0.2054
     15  C4B      -47.6300  -18.5540   -1.4260 C.3   651  ACR651      0.1333
     16  C5B      -48.3270  -19.4140   -0.3000 C.3   651  ACR651      0.1364
     17  C6B      -49.7800  -19.0300   -0.0890 C.3   651  ACR651      0.0337
     18  N4B      -47.5930  -17.1200   -1.0470 N.3   651  ACR651     -0.2087
     19  O2B      -44.8790  -21.0660   -2.0720 O.3   651  ACR651     -0.2149
     20  O3B      -45.5160  -18.3510   -2.6210 O.3   651  ACR651     -0.2186
     21  O5B      -48.3030  -20.8420   -0.7110 O.3   651  ACR651     -0.3295
     22  C1C      -45.3450  -23.9840    3.4770 C.3   651  ACR651      0.2695
     23  C2C      -45.7450  -24.5800    2.0990 C.3   651  ACR651      0.2404
     24  C3C      -45.5770  -23.4980    1.0010 C.3   651  ACR651      0.2167
     25  C4C      -46.4790  -22.2800    1.3630 C.3   651  ACR651      0.1804
     26  C5C      -45.9680  -21.7470    2.6740 C.3   651  ACR651      0.1803
     27  C6C      -46.8300  -20.5570    3.1290 C.3   651  ACR651      0.2141
     28  O2C      -44.9940  -25.7500    1.8210 O.3   651  ACR651     -0.2149
     29  O3C      -45.9580  -24.0430   -0.2370 O.3   651  ACR651     -0.2175
     30  O4C      -46.3730  -21.2000    0.3970 O.3   651  ACR651     -0.3257
     31  O5C      -46.0990  -22.7830    3.7060 O.3   651  ACR651     -0.3257
     32  O6C      -46.1450  -19.8350    4.1160 O.3   651  ACR651     -0.2176
     33  C1D      -40.9900  -22.7300    6.3560 C.3   651  ACR651      0.3023
     34  C2D      -42.3100  -23.3170    6.8940 C.3   651  ACR651      0.2433
     35  C3D      -43.0400  -24.0340    5.7480 C.3   651  ACR651      0.2168
     36  C4D      -43.3060  -23.0460    4.6130 C.3   651  ACR651      0.1804
     37  C5D      -41.9820  -22.4680    4.1200 C.3   651  ACR651      0.1804
     38  C6D      -42.2420  -21.4400    3.0040 C.3   651  ACR651      0.2141
     39  O1D      -40.1640  -23.7750    5.9120 O.3   651  ACR651     -0.1869
     40  O2D      -42.0410  -24.2130    7.9630 O.3   651  ACR651     -0.2148
     41  O3D      -44.2730  -24.5410    6.2320 O.3   651  ACR651     -0.2175
     42  O4D      -43.9490  -23.7100    3.4830 O.3   651  ACR651     -0.3257
     43  O5D      -41.2700  -21.8150    5.2360 O.3   651  ACR651     -0.3237
     44  O6D      -41.1420  -20.5580    2.8430 O.3   651  ACR651     -0.2176
@<TRIPOS>BOND
     1     8     2    1
     2     9     3    1
     3     2     3    1
     4     2     1    1
     5    20    14    1
     6     3     4    1
     7    19    13    1
     8    13    14    1
     9    13    12    1
    10     1    18    1
    11     1     7    1
    12    14    15    1
    13    15    18    1
    14    15    16    1
    15     4    10    1
    16     4     5    1
    17    12    21    1
    18    12    30    1
    19    21    16    1
    20     7     5    2
    21    16    17    1
    22     5     6    1
    23    29    24    1
    24    11     6    1
    25    30    25    1
    26    24    25    1
    27    24    23    1
    28    25    26    1
    29    28    23    1
    30    23    22    1
    31    26    27    1
    32    26    31    1
    33    44    38    1
    34    38    37    1
    35    27    32    1
    36    22    42    1
    37    22    31    1
    38    42    36    1
    39    37    36    1
    40    37    43    1
    41    36    35    1
    42    43    33    1
    43    35    41    1
    44    35    34    1
    45    39    33    1
    46    33    34    1
    47    34    40    1
