@<TRIPOS>MOLECULE
1et0_PLP_A_1.pdb
 15 15 0 0 0
SMALL
GASTEIGER

@<TRIPOS>ATOM
      1  N1        -4.6210   13.0010   65.0170 N.ar  413  PLP413     -0.2452
      2  C2        -4.3100   11.9870   64.1410 C.ar  413  PLP413      0.0978
      3  C2A       -4.5350   10.5240   64.5600 C.3   413  PLP413      0.0555
      4  C3        -3.8090   12.2930   62.9110 C.ar  413  PLP413      0.2049
      5  O3        -3.4900   11.2910   62.0230 O.3   413  PLP413     -0.2857
      6  C4        -3.6290   13.6350   62.5690 C.ar  413  PLP413      0.0182
      7  C4A       -3.0690   13.9770   61.1830 C.3   413  PLP413      0.0342
      8  C5        -3.9720   14.6500   63.4990 C.ar  413  PLP413      0.0261
      9  C6        -4.4580   14.3120   64.7070 C.ar  413  PLP413      0.0965
     10  C5A       -3.8180   16.1170   63.1560 C.3   413  PLP413      0.1815
     11  O4P       -2.6330   16.5430   62.5500 O.3   413  PLP413     -0.2653
     12  P         -2.4190   18.0010   62.0270 P.3   413  PLP413      0.5329
     13  O1P       -3.3510   18.1170   60.9040 O.2   413  PLP413     -0.2224
     14  O2P       -0.9310   17.8550   61.5150 O.3   413  PLP413     -0.1145
     15  O3P       -2.5230   18.9720   63.1130 O.3   413  PLP413     -0.1145
@<TRIPOS>BOND
     1    13    12    2
     2     7     6    1
     3    14    12    1
     4     5     4    1
     5    12    11    1
     6    12    15    1
     7    11    10    1
     8     6     4   ar
     9     6     8   ar
    10     4     2   ar
    11    10     8    1
    12     8     9   ar
    13     2     3    1
    14     2     1   ar
    15     9     1   ar
