@<TRIPOS>MOLECULE
1eta_T44_1_1.pdb
 24 25 0 0 0
SMALL
GASTEIGER

@<TRIPOS>ATOM
      1  C1        22.0890   41.5320   33.5650 C.ar  128  T44128     -0.0191
      2  C2        22.7560   42.6510   33.9740 C.ar  128  T44128      0.0047
      3  C3        22.4040   43.4180   35.0550 C.ar  128  T44128      0.0647
      4  C4        21.2890   43.1100   35.8530 C.ar  128  T44128      0.1558
      5  C5        20.5970   41.9560   35.4430 C.ar  128  T44128      0.0647
      6  C6        21.0010   41.2170   34.3440 C.ar  128  T44128      0.0047
      7  C7        22.5970   40.7420   32.3590 C.3   128  T44128      0.0570
      8  C8        21.6310   40.2380   31.2650 C.3   128  T44128      0.1986
      9  C9        20.4910   41.1430   30.8370 C.2   128  T44128      0.3822
     10  C1'       21.5240   43.5710   38.2140 C.ar  128  T44128      0.1464
     11  C2'       21.4220   44.3850   39.3110 C.ar  128  T44128      0.0465
     12  C3'       22.0090   44.0840   40.5280 C.ar  128  T44128      0.0724
     13  C4'       22.7550   42.9260   40.7330 C.ar  128  T44128      0.2064
     14  C5'       22.8490   42.1150   39.6160 C.ar  128  T44128      0.0724
     15  C6'       22.2560   42.4390   38.4290 C.ar  128  T44128      0.0465
     16  N8        22.2570   40.5440   30.0120 N.3   128  T44128     -0.1205
     17  O4        20.9400   43.8540   36.9820 O.3   128  T44128     -0.4526
     18  O4'       23.3370   42.5800   41.9310 O.3   128  T44128     -0.2857
     19  O9        20.6420   42.3640   30.8660 O.co2 128  T44128     -0.2440
     20  O10       19.5830   40.5900   30.2390 O.co2 128  T44128     -0.2440
     21  I3        23.7180   44.9480   35.5030 I     128  T44128     -0.0393
     22  I3'       21.7790   45.4190   42.0770 I     128  T44128     -0.0391
     23  I5        18.9890   41.2260   36.5400 I     128  T44128     -0.0393
     24  I5'       23.9180   40.3730   39.6170 I     128  T44128     -0.0391
@<TRIPOS>BOND
     1    16     8    1
     2    20     9   ar
     3     9    19   ar
     4     9     8    1
     5     8     7    1
     6     7     1    1
     7     1     2   ar
     8     1     6   ar
     9     2     3   ar
    10     6     5   ar
    11     3    21    1
    12     3     4   ar
    13     5     4   ar
    14     5    23    1
    15     4    17    1
    16    17    10    1
    17    10    15   ar
    18    10    11   ar
    19    15    14   ar
    20    11    12   ar
    21    14    24    1
    22    14    13   ar
    23    12    13   ar
    24    12    22    1
    25    13    18    1
