@<TRIPOS>MOLECULE
1etb_T44_1_1.pdb
 24 25 0 0 0
SMALL
GASTEIGER

@<TRIPOS>ATOM
      1  C1        22.2260   41.4000   33.4170 C.ar  128  T44128     -0.0191
      2  C2        22.9320   42.4890   33.8420 C.ar  128  T44128      0.0047
      3  C3        22.6310   43.2440   34.9490 C.ar  128  T44128      0.0647
      4  C4        21.5470   42.9850   35.7840 C.ar  128  T44128      0.1558
      5  C5        20.8300   41.8750   35.3350 C.ar  128  T44128      0.0647
      6  C6        21.1450   41.1220   34.2160 C.ar  128  T44128      0.0047
      7  C7        22.7100   40.6070   32.1990 C.3   128  T44128      0.0570
      8  C8        21.7800   40.1590   31.0290 C.3   128  T44128      0.1986
      9  C9        20.5340   40.9710   30.7340 C.2   128  T44128      0.3822
     10  C1'       21.6440   43.5030   38.2850 C.ar  128  T44128      0.1464
     11  C2'       21.4260   44.3490   39.3610 C.ar  128  T44128      0.0465
     12  C3'       21.9030   44.1150   40.6520 C.ar  128  T44128      0.0724
     13  C4'       22.6590   42.9680   40.9350 C.ar  128  T44128      0.2064
     14  C5'       22.8750   42.1150   39.8470 C.ar  128  T44128      0.0724
     15  C6'       22.3840   42.3960   38.5960 C.ar  128  T44128      0.0465
     16  N8        22.3650   40.6590   29.8130 N.3   128  T44128     -0.1205
     17  O4        21.2210   43.7130   36.9530 O.3   128  T44128     -0.4526
     18  O4'       23.1810   42.6860   42.1820 O.3   128  T44128     -0.2857
     19  O9        20.5950   42.1980   30.7620 O.co2 128  T44128     -0.2440
     20  O10       19.6060   40.3670   30.2330 O.co2 128  T44128     -0.2440
     21  I3        23.8660   44.8350   35.2870 I     128  T44128     -0.0393
     22  I3'       21.4980   45.4610   42.2040 I     128  T44128     -0.0391
     23  I5        19.1570   41.3400   36.3680 I     128  T44128     -0.0393
     24  I5'       23.9630   40.3630   40.0130 I     128  T44128     -0.0391
@<TRIPOS>BOND
     1    16     8    1
     2    20     9   ar
     3     9    19   ar
     4     9     8    1
     5     8     7    1
     6     7     1    1
     7     1     2   ar
     8     1     6   ar
     9     2     3   ar
    10     6     5   ar
    11     3    21    1
    12     3     4   ar
    13     5     4   ar
    14     5    23    1
    15     4    17    1
    16    17    10    1
    17    10    15   ar
    18    10    11   ar
    19    15    14   ar
    20    11    12   ar
    21    14    24    1
    22    14    13   ar
    23    12    13   ar
    24    12    22    1
    25    13    18    1
