@<TRIPOS>MOLECULE
1eth_BMA_A_1.pdb
 22 22 0 0 0
SMALL
GASTEIGER

@<TRIPOS>ATOM
      1  C1        58.0160   41.1820  153.0650 C.3   454  BMA454      0.1161
      2  C2        57.7290   42.7310  153.3130 C.3   454  BMA454      0.1121
      3  C3        56.1780   43.0220  153.3670 C.3   454  BMA454      0.1118
      4  C4        55.6350   42.3430  151.9990 C.3   454  BMA454      0.1117
      5  C5        55.7270   40.8340  152.2940 C.3   454  BMA454      0.1105
      6  C6        54.9000   39.5110  151.8390 C.3   454  BMA454      0.0729
      7  O2        58.2890   43.4740  152.2210 O.3   454  BMA454     -0.3865
      8  O3        55.8540   44.4130  153.5690 O.3   454  BMA454     -0.3865
      9  O4        54.3950   42.7210  151.4850 O.3   454  BMA454     -0.3865
     10  O5        57.1360   40.6620  152.0510 O.3   454  BMA454     -0.3631
     11  O6        53.8140   39.6710  150.9990 O.3   454  BMA454     -0.3924
     12  H1        59.0150   41.0030  152.6690 H     454  BMA454      0.0650
     13  H2        58.2130   43.0720  154.2370 H     454  BMA454      0.0647
     14  H3        55.7790   42.5480  154.2730 H     454  BMA454      0.0647
     15  H4        56.3230   42.6070  151.1790 H     454  BMA454      0.0647
     16  H5        55.6020   40.6750  153.3780 H     454  BMA454      0.0646
     17  H61       54.4900   38.9780  152.7100 H     454  BMA454      0.0584
     18  H62       55.5510   38.7670  151.3820 H     454  BMA454      0.0584
     19  HO2       59.2320   43.3350  152.1590 H     454  BMA454      0.2100
     20  HO3       55.0060   44.5750  153.1420 H     454  BMA454      0.2100
     21  HO4       54.5730   43.5330  151.0020 H     454  BMA454      0.2100
     22  HO6       54.1030   39.9810  150.1350 H     454  BMA454      0.2095
@<TRIPOS>BOND
     1    22    11    1
     2    11     6    1
     3    21     9    1
     4    15     4    1
     5    18     6    1
     6     9     4    1
     7     6     5    1
     8     6    17    1
     9     4     5    1
    10     4     3    1
    11    10     5    1
    12    10     1    1
    13    19     7    1
    14     7     2    1
    15     5    16    1
    16    12     1    1
    17     1     2    1
    18    20     8    1
    19     2     3    1
    20     2    13    1
    21     3     8    1
    22     3    14    1
