@<TRIPOS>MOLECULE
1etp_HEM_A_1.pdb
 43 50 0 0 0
SMALL
GASTEIGER

@<TRIPOS>ATOM
      1 FE         17.6110   12.3740  -12.5730 Fe    199  HEM199      0.0000
      2  CHA       14.7640   11.7310  -10.7940 C.2   199  HEM199      0.0000
      3  CHB       19.0010   13.7620   -9.7600 C.2   199  HEM199      0.0000
      4  CHC       20.5500   12.5150  -14.1720 C.2   199  HEM199      0.0000
      5  CHD       16.0680   11.3030  -15.4240 C.2   199  HEM199      0.0000
      6  NA        16.9550   12.8020  -10.6670 N.2   199  HEM199      0.0000
      7  C1A       15.7730   12.3910  -10.1030 C.2   199  HEM199      0.0000
      8  C2A       15.6930   12.9470   -8.7830 C.2   199  HEM199      0.0000
      9  C3A       16.8800   13.5470   -8.4870 C.2   199  HEM199      0.0000
     10  C4A       17.6870   13.3770   -9.6430 C.2   199  HEM199      0.0000
     11  CMA       17.2880   14.3550   -7.2320 C.3   199  HEM199      0.0000
     12  CAA       14.4490   12.9620   -7.9540 C.3   199  HEM199      0.0000
     13  CBA       13.7170   14.2980   -8.0370 C.3   199  HEM199      0.0000
     14  CGA       12.5510   14.3870   -7.0700 C.2   199  HEM199      0.0000
     15  O1A       11.8340   15.3870   -7.1070 O.co2 199  HEM199      0.0000
     16  O2A       12.3550   13.4650   -6.2660 O.co2 199  HEM199      0.0000
     17  NB        19.4420   13.0620  -12.0660 N.ar  199  HEM199      0.0000
     18  C1B       19.8270   13.6050  -10.8590 C.ar  199  HEM199      0.0000
     19  C2B       21.2100   13.9060  -10.8910 C.ar  199  HEM199      0.0000
     20  C3B       21.7250   13.4330  -12.0750 C.ar  199  HEM199      0.0000
     21  C4B       20.5700   12.9560  -12.8410 C.ar  199  HEM199      0.0000
     22  CMB       21.9370   14.6450   -9.8200 C.3   199  HEM199      0.0000
     23  CAB       23.1590   13.4110  -12.7220 C.3   199  HEM199      0.0000
     24  CBB       24.2260   12.7180  -11.8740 C.3   199  HEM199      0.0000
     25  NC        18.2580   11.7980  -14.4400 N.2   199  HEM199      0.0000
     26  C1C       19.4920   12.0700  -14.9430 C.2   199  HEM199      0.0000
     27  C2C       19.5180   11.9070  -16.3620 C.2   199  HEM199      0.0000
     28  C3C       18.2300   11.5990  -16.7530 C.2   199  HEM199      0.0000
     29  C4C       17.4540   11.5320  -15.5350 C.2   199  HEM199      0.0000
     30  CMC       20.7990   12.0380  -17.1830 C.3   199  HEM199      0.0000
     31  CAC       17.4880   11.4050  -18.0870 C.3   199  HEM199      0.0000
     32  CBC       18.0150   10.3510  -19.0110 C.3   199  HEM199      0.0000
     33  ND        15.7450   11.6620  -13.0140 N.ar  199  HEM199      0.0000
     34  C1D       15.2940   11.2970  -14.2520 C.ar  199  HEM199      0.0000
     35  C2D       14.0140   10.7080  -14.1320 C.ar  199  HEM199      0.0000
     36  C3D       13.6270   10.9040  -12.8380 C.ar  199  HEM199      0.0000
     37  C4D       14.7270   11.4350  -12.1450 C.ar  199  HEM199      0.0000
     38  CMD       13.1860   10.1960  -15.3170 C.3   199  HEM199      0.0000
     39  CAD       12.2220   10.7840  -12.2790 C.3   199  HEM199      0.0000
     40  CBD       11.8670    9.3370  -12.2810 C.3   199  HEM199      0.0000
     41  CGD       10.4610    9.1020  -11.8390 C.2   199  HEM199      0.0000
     42  O1D        9.5840    8.8770  -12.6920 O.co2 199  HEM199      0.0000
     43  O2D       10.2240    9.1410  -10.6260 O.co2 199  HEM199      0.0000
@<TRIPOS>BOND
     1    32    31    1
     2    31    28    1
     3    30    27    1
     4    28    27    2
     5    28    29    1
     6    27    26    1
     7    29     5    1
     8    29    25    2
     9     5    34    2
    10    38    35    1
    11    26    25    1
    12    26     4    2
    13    25     1    1
    14    34    35   ar
    15    34    33   ar
    16     4    21    1
    17    35    36   ar
    18    33     1    1
    19    33    37   ar
    20    21    20   ar
    21    21    17   ar
    22    36    39    1
    23    36    37   ar
    24    23    20    1
    25    23    24    1
    26    42    41   ar
    27     1    17    1
    28     1     6    1
    29    40    39    1
    30    40    41    1
    31    37     2    2
    32    20    19   ar
    33    17    18   ar
    34    41    43   ar
    35    19    18   ar
    36    19    22    1
    37    18     3    1
    38     2     7    1
    39     6     7    2
    40     6    10    1
    41     7     8    1
    42     3    10    2
    43    10     9    1
    44     8     9    2
    45     8    12    1
    46     9    11    1
    47    13    12    1
    48    13    14    1
    49    15    14   ar
    50    14    16   ar
