@<TRIPOS>MOLECULE
1etr_MIT_H_1.pdb
 42 44 0 0 0
SMALL
GASTEIGER

@<TRIPOS>ATOM
      1  S        -35.1690  -32.1600   45.7160 S.O2    1  MIT1        0.0618
      2  O1       -35.9600  -32.9770   46.7400 O.2     1  MIT1       -0.1529
      3  O2       -34.1530  -33.0520   45.0940 O.2     1  MIT1       -0.1529
      4  C1       -37.3200  -29.0370   47.6640 C.3     1  MIT1        0.0873
      5  C2       -36.6110  -28.0170   48.5360 C.3     1  MIT1        0.0239
      6  C3       -35.3650  -27.4850   47.8910 C.3     1  MIT1        0.0293
      7  C4       -34.5190  -28.6650   47.4570 C.ar    1  MIT1       -0.0077
      8  C5       -33.1670  -28.4470   47.3480 C.ar    1  MIT1       -0.0030
      9  C6       -32.3790  -29.3780   46.7280 C.ar    1  MIT1        0.0011
     10  C7       -32.9890  -30.4740   46.1930 C.ar    1  MIT1        0.0211
     11  C8       -34.3130  -30.7420   46.5010 C.ar    1  MIT1        0.1346
     12  C9       -35.1530  -29.8260   47.0650 C.ar    1  MIT1        0.0594
     13  C10      -37.4740  -26.8410   48.8390 C.3     1  MIT1        0.0021
     14  N        -36.4220  -30.1510   47.3630 N.pl3   1  MIT1       -0.3318
     15  N1       -36.2040  -31.9230   44.4240 N.3     1  MIT1       -0.1719
     16  CA       -35.5900  -31.1910   43.3390 C.3     1  MIT1        0.1517
     17  C        -35.7990  -29.6970   43.5510 C.2     1  MIT1        0.2418
     18  O        -36.6700  -29.3770   44.3390 O.2     1  MIT1       -0.2734
     19  CB       -36.1440  -31.6550   41.9980 C.3     1  MIT1        0.0303
     20  CG       -37.5720  -31.9960   41.9920 C.3     1  MIT1        0.0447
     21  CD       -38.0390  -32.1450   40.5680 C.3     1  MIT1        0.1739
     22  NE       -39.4550  -32.4600   40.6590 N.pl3   1  MIT1       -0.2651
     23  CZ       -40.4130  -31.5300   40.7300 C.cat   1  MIT1        0.3417
     24  NH1      -40.1890  -30.2430   40.4180 N.pl3   1  MIT1       -0.2918
     25  NH2      -41.6320  -31.9250   41.0790 N.pl3   1  MIT1       -0.2918
     26  N2       -34.9960  -28.7550   43.0340 N.am    1  MIT1       -0.2702
     27  C11      -33.7780  -29.0960   42.3050 C.3     1  MIT1        0.1790
     28  C21      -32.5830  -28.3080   42.9540 C.3     1  MIT1        0.0315
     29  C31      -32.7060  -26.8400   43.1660 C.3     1  MIT1        0.0039
     30  C41      -33.9650  -26.7260   44.0150 C.3     1  MIT1        0.0216
     31  C51      -35.1790  -27.3130   43.2720 C.3     1  MIT1        0.0939
     32  C61      -33.8760  -28.8930   40.7810 C.2     1  MIT1        0.3825
     33  O11      -32.8190  -28.8150   40.1510 O.co2   1  MIT1       -0.2438
     34  O21      -34.9780  -28.8860   40.2120 O.co2   1  MIT1       -0.2438
     35  C71      -31.4510  -26.3080   43.8470 C.3     1  MIT1        0.0001
     36  HN       -36.7930  -31.0040   47.0530 H       1  MIT1        0.1468
     37  H        -37.0520  -31.5050   44.6950 H       1  MIT1        0.1493
     38  HE       -39.7280  -33.3990   40.6750 H       1  MIT1        0.2586
     39 HH11      -39.2780  -29.9500   40.1270 H       1  MIT1        0.2545
     40 HH12      -40.9210  -29.5650   40.4910 H       1  MIT1        0.2545
     41 HH21      -41.8230  -32.8850   41.2700 H       1  MIT1        0.2545
     42 HH22      -42.3710  -31.2520   41.1240 H       1  MIT1        0.2545
@<TRIPOS>BOND
     1    39    24    1
     2    33    32   ar
     3    34    32   ar
     4    24    40    1
     5    24    23    2
     6    21    22    1
     7    21    20    1
     8    22    38    1
     9    22    23    1
    10    23    25    1
    11    32    27    1
    12    25    42    1
    13    25    41    1
    14    20    19    1
    15    19    16    1
    16    27    28    1
    17    27    26    1
    18    28    29    1
    19    26    31    1
    20    26    17   am
    21    29    35    1
    22    29    30    1
    23    31    30    1
    24    16    17    1
    25    16    15    1
    26    17    18    2
    27    15    37    1
    28    15     1    1
    29     3     1    2
    30     1    11    1
    31     1     2    2
    32    10    11   ar
    33    10     9   ar
    34    11    12   ar
    35     9     8   ar
    36    36    14    1
    37    12    14    1
    38    12     7   ar
    39     8     7   ar
    40    14     4    1
    41     7     6    1
    42     4     5    1
    43     6     5    1
    44     5    13    1
