@<TRIPOS>MOLECULE
1ets_MID_H_1.pdb
 43 46 0 0 0
SMALL
GASTEIGER

@<TRIPOS>ATOM
      1  S        -37.3520  -31.2710   47.2640 S.O2    1  MID1        0.0607
      2  O1S      -36.1430  -32.1060   47.6390 O.2     1  MID1       -0.1530
      3  O2S      -38.5750  -31.7440   48.0490 O.2     1  MID1       -0.1530
      4  C1       -38.1890  -28.7440   48.0850 C.ar    1  MID1        0.0199
      5  C2       -37.1270  -29.5950   47.7860 C.ar    1  MID1        0.1220
      6  C3       -35.8140  -29.1890   47.9700 C.ar    1  MID1        0.0199
      7  C4       -35.5410  -27.9820   48.5800 C.ar    1  MID1        0.0014
      8  C5       -36.2550  -25.9070   49.4020 C.ar    1  MID1        0.0000
      9  C6       -37.2690  -25.0020   49.5860 C.ar    1  MID1        0.0000
     10  C7       -38.5750  -25.3700   49.3230 C.ar    1  MID1        0.0000
     11  C8       -38.9180  -26.6390   48.9050 C.ar    1  MID1        0.0000
     12  C9       -37.9070  -27.4960   48.5970 C.ar    1  MID1        0.0013
     13  C10      -36.5890  -27.1350   48.8700 C.ar    1  MID1        0.0001
     14  N        -37.7430  -31.5420   45.7410 N.3     1  MID1       -0.1701
     15  CA       -36.8040  -31.2460   44.7000 C.3     1  MID1        0.1760
     16  C        -37.3310  -30.0430   43.9490 C.2     1  MID1        0.2405
     17  O        -38.3210  -29.3770   44.2970 O.2     1  MID1       -0.2735
     18  N1       -36.5780  -29.8560   42.8920 N.am    1  MID1       -0.2969
     19  CA1      -36.8080  -28.7550   41.9950 C.3     1  MID1        0.1532
     20  CB       -35.5080  -27.9520   41.9950 C.2     1  MID1        0.2438
     21  O1       -34.6750  -28.0830   41.1030 O.2     1  MID1       -0.2731
     22  CB1      -37.1950  -29.2680   40.6250 C.3     1  MID1        0.0553
     23  CG       -38.5810  -29.8840   40.6330 C.ar    1  MID1       -0.0200
     24  CD1      -38.7510  -31.2500   40.7230 C.ar    1  MID1       -0.0040
     25  CD2      -39.6770  -29.0660   40.5420 C.ar    1  MID1       -0.0040
     26  CE1      -40.0100  -31.8040   40.7820 C.ar    1  MID1        0.0069
     27  CE2      -40.9350  -29.6180   40.6020 C.ar    1  MID1        0.0069
     28  CZ       -41.1240  -30.9810   40.7110 C.ar    1  MID1        0.0774
     29  CF       -42.4130  -31.4950   40.7260 C.2     1  MID1        0.2674
     30  NG1      -42.6090  -32.7600   41.1140 N.pl3   1  MID1       -0.2497
     31  NG2      -43.4470  -30.7100   40.4430 N.2     1  MID1       -0.2884
     32  N11      -35.3110  -27.0940   42.9980 N.am    1  MID1       -0.2782
     33  C21      -34.0690  -26.3880   43.2110 C.3     1  MID1        0.0934
     34  C31      -33.6300  -26.7280   44.6420 C.3     1  MID1        0.0216
     35  C41      -34.5750  -26.2790   45.7310 C.3     1  MID1        0.0035
     36  C51      -35.8200  -27.0390   45.3910 C.3     1  MID1        0.0216
     37  C61      -36.3370  -26.7910   43.9920 C.3     1  MID1        0.0934
     38  H        -38.6630  -31.3100   45.5030 H       1  MID1        0.1494
     39  H2       -35.8120  -30.4430   42.7020 H       1  MID1        0.1499
     40  HG1      -43.5080  -33.1720   41.1480 H       1  MID1        0.2883
     41 HG21      -44.3910  -31.0260   40.4510 H       1  MID1        0.3009
     42 HG22      -43.2680  -29.7320   40.3140 H       1  MID1        0.3009
     43 HG12      -41.8000  -33.3100   41.3750 H       1  MID1        0.2883
@<TRIPOS>BOND
     1    42    31    1
     2    31    41    1
     3    31    29    2
     4    25    27   ar
     5    25    23   ar
     6    27    28   ar
     7    22    23    1
     8    22    19    1
     9    23    24   ar
    10    28    29    1
    11    28    26   ar
    12    24    26   ar
    13    29    30    1
    14    21    20    2
    15    30    40    1
    16    30    43    1
    17    19    20    1
    18    19    18    1
    19    20    32   am
    20    39    18    1
    21    18    16   am
    22    32    33    1
    23    32    37    1
    24    33    34    1
    25    16    17    2
    26    16    15    1
    27    37    36    1
    28    34    35    1
    29    15    14    1
    30    36    35    1
    31    38    14    1
    32    14     1    1
    33     1     2    2
    34     1     5    1
    35     1     3    2
    36     5     6   ar
    37     5     4   ar
    38     6     7   ar
    39     4    12   ar
    40     7    13   ar
    41    12    13   ar
    42    12    11   ar
    43    13     8   ar
    44    11    10   ar
    45    10     9   ar
    46     8     9   ar
