@<TRIPOS>MOLECULE
1ett_0ZG_H_1.pdb
 35 37 0 0 0
SMALL
GASTEIGER

@<TRIPOS>ATOM
      1  S        -36.7260  -31.8490   45.4930 S.O2    1  0ZG1        0.0606
      2  O1S      -37.5670  -33.0380   45.9630 O.2     1  0ZG1       -0.1530
      3  O2S      -35.2930  -32.2310   45.6030 O.2     1  0ZG1       -0.1530
      4  C1       -37.0370  -30.4170   46.6250 C.ar    1  0ZG1        0.1219
      5  C2       -36.0410  -29.5090   46.9620 C.ar    1  0ZG1        0.0196
      6  C3       -36.3700  -28.3550   47.7050 C.ar    1  0ZG1       -0.0029
      7  C4       -37.6490  -28.1800   48.1990 C.ar    1  0ZG1       -0.0218
      8  C5       -38.6240  -29.1290   47.9200 C.ar    1  0ZG1       -0.0029
      9  C6       -38.3210  -30.2260   47.1230 C.ar    1  0ZG1        0.0196
     10  C        -37.9910  -27.0020   49.1120 C.3     1  0ZG1        0.0310
     11  N1       -36.1900  -28.3530   43.2180 N.am    1  0ZG1       -0.2784
     12  C21      -34.8190  -28.7220   42.9610 C.3     1  0ZG1        0.0934
     13  C31      -34.0980  -28.0400   44.0820 C.3     1  0ZG1        0.0216
     14  C41      -34.1730  -26.5800   43.8280 C.3     1  0ZG1        0.0035
     15  C51      -35.6080  -26.2610   44.0440 C.3     1  0ZG1        0.0216
     16  C61      -36.4020  -26.9490   42.9930 C.3     1  0ZG1        0.0934
     17  N        -37.3900  -31.6250   43.9840 N.3     1  0ZG1       -0.1716
     18  CA       -36.7880  -30.6760   43.0800 C.3     1  0ZG1        0.1559
     19  C7       -37.1850  -29.2170   43.3640 C.2     1  0ZG1        0.2418
     20  O        -38.3260  -28.8700   43.7610 O.2     1  0ZG1       -0.2734
     21  CB       -37.0310  -31.0440   41.6140 C.3     1  0ZG1        0.0531
     22  CG       -38.4570  -30.8170   41.1570 C.ar    1  0ZG1       -0.0203
     23  CD1      -38.8130  -29.6390   40.5400 C.ar    1  0ZG1       -0.0040
     24  CD2      -39.4130  -31.7560   41.4420 C.ar    1  0ZG1       -0.0040
     25  CE1      -40.1270  -29.4150   40.1870 C.ar    1  0ZG1        0.0069
     26  CE2      -40.7170  -31.5230   41.0790 C.ar    1  0ZG1        0.0069
     27  CZ       -41.1020  -30.3450   40.4600 C.ar    1  0ZG1        0.0774
     28  CF       -42.4470  -30.1280   40.1580 C.2     1  0ZG1        0.2674
     29  NG1      -43.2710  -31.1830   40.0910 N.pl3   1  0ZG1       -0.2497
     30  NG2      -42.9010  -28.8790   39.9540 N.2     1  0ZG1       -0.2884
     31  H        -38.3730  -31.5950   43.9780 H       1  0ZG1        0.1493
     32  HG1      -44.2430  -31.1060   39.8740 H       1  0ZG1        0.2883
     33 HG21      -43.8530  -28.6590   39.7320 H       1  0ZG1        0.3009
     34 HG22      -42.2650  -28.1110   40.1010 H       1  0ZG1        0.3009
     35 HG12      -42.8890  -32.1090   40.1970 H       1  0ZG1        0.2883
@<TRIPOS>BOND
     1    33    30    1
     2    32    29    1
     3    30    34    1
     4    30    28    2
     5    29    28    1
     6    29    35    1
     7    28    27    1
     8    25    27   ar
     9    25    23   ar
    10    27    26   ar
    11    23    22   ar
    12    26    24   ar
    13    22    24   ar
    14    22    21    1
    15    21    18    1
    16    12    11    1
    17    12    13    1
    18    16    11    1
    19    16    15    1
    20    18    19    1
    21    18    17    1
    22    11    19   am
    23    19    20    2
    24    14    15    1
    25    14    13    1
    26    31    17    1
    27    17     1    1
    28     1     3    2
    29     1     2    2
    30     1     4    1
    31     4     5   ar
    32     4     9   ar
    33     5     6   ar
    34     9     8   ar
    35     6     7   ar
    36     8     7   ar
    37     7    10    1
