@<TRIPOS>MOLECULE
1etu_GDP_A_1.pdb
 28 30 0 0 0
SMALL
GASTEIGER

@<TRIPOS>ATOM
      1  PB        88.5350   24.4140   44.3210 P.3   395  GDP395      0.5373
      2  O1B       88.9850   25.4550   43.3750 O.2   395  GDP395     -0.2221
      3  O2B       87.6430   25.0870   45.4750 O.3   395  GDP395     -0.1143
      4  O3B       89.8110   23.8600   44.8630 O.3   395  GDP395     -0.1143
      5  O3A       87.7010   23.3050   43.5130 O.3   395  GDP395     -0.2261
      6  PA        87.3880   23.0370   41.9630 P.3   395  GDP395      0.2231
      7  O1A       86.5510   24.0540   41.3270 O.3   395  GDP395     -0.4370
      8  O2A       88.6350   22.9330   41.2070 O.2   395  GDP395     -0.5169
      9  O5'       86.6630   21.6350   41.9050 O.3   395  GDP395     -0.3111
     10  C5'       87.4500   20.4050   41.9880 C.3   395  GDP395      0.1813
     11  C4'       86.9480   19.4090   40.9210 C.3   395  GDP395      0.1799
     12  O4'       85.5660   19.1420   41.2050 O.3   395  GDP395     -0.3326
     13  C3'       86.9760   20.1030   39.5560 C.3   395  GDP395      0.2158
     14  O3'       87.9850   19.6060   38.6610 O.3   395  GDP395     -0.2175
     15  C2'       85.5900   20.0360   38.9570 C.3   395  GDP395      0.2310
     16  O2'       85.6380   19.2240   37.7970 O.3   395  GDP395     -0.2158
     17  C1'       84.7180   19.4610   40.0720 C.3   395  GDP395      0.2293
     18  N9        83.5670   20.3720   40.4720 N.pl3 395  GDP395     -0.2354
     19  C8        83.5070   21.6700   40.5810 C.3   395  GDP395      0.2246
     20  N7        82.1970   22.1230   40.6950 N.2   395  GDP395     -0.2322
     21  C5        81.4450   21.1210   40.6200 C.2   395  GDP395      0.2182
     22  C6        80.0650   21.0640   40.6180 C.1   395  GDP395      0.2372
     23  O6        79.2680   22.0260   40.7390 O.2   395  GDP395     -0.2069
     24  N1        79.6540   19.8140   40.4160 N.2   395  GDP395     -0.2485
     25  C2        80.4190   18.7340   40.3270 C.1   395  GDP395      0.2531
     26  N2        79.8720   17.5350   40.1140 N.pl3 395  GDP395     -0.0226
     27  N3        81.7280   18.8430   40.3990 N.2   395  GDP395     -0.3074
     28  C4        82.2580   19.9870   40.5260 C.2   395  GDP395      0.2300
@<TRIPOS>BOND
     1    16    15    1
     2    14    13    1
     3    15    13    1
     4    15    17    1
     5    13    11    1
     6    17    18    1
     7    17    12    1
     8    26    25    1
     9    25    27    2
    10    25    24    2
    11    27    28    2
    12    24    22    2
    13    18    28    1
    14    18    19    1
    15    28    21    1
    16    19    20    1
    17    22    21    1
    18    22    23    2
    19    21    20    2
    20    11    12    1
    21    11    10    1
    22     8     6    2
    23     7     6    1
    24     9     6    1
    25     9    10    1
    26     6     5    1
    27     2     1    2
    28     5     1    1
    29     1     4    1
    30     1     3    1
