@<TRIPOS>MOLECULE
1etz_GAS_B_1.pdb
 29 31 0 0 0
SMALL
GASTEIGER

@<TRIPOS>ATOM
      1  C1         0.3380   32.8390   56.6060 C.ar  229  GAS229     -0.0006
      2  C2         1.7020   32.8560   56.3450 C.ar  229  GAS229     -0.0002
      3  C3         2.4540   33.9880   56.6290 C.ar  229  GAS229     -0.0000
      4  C4         1.8500   35.1030   57.1780 C.ar  229  GAS229     -0.0002
      5  C5         0.4910   35.0890   57.4390 C.ar  229  GAS229     -0.0006
      6  C6        -0.2740   33.9570   57.1500 C.ar  229  GAS229      0.0213
      7  C7        -1.6600   33.9910   57.3000 C.3   229  GAS229      0.2253
      8  N7        -2.4220   34.5440   56.1860 N.pl3 229  GAS229     -0.0863
      9  C1A       -2.1180   34.2420   58.6030 C.ar  229  GAS229      0.0213
     10  C2A       -3.0840   35.2180   58.8170 C.ar  229  GAS229     -0.0006
     11  C3A       -3.4490   35.5730   60.1060 C.ar  229  GAS229     -0.0002
     12  C4A       -2.8600   34.9550   61.1940 C.ar  229  GAS229     -0.0000
     13  C5A       -1.9100   33.9730   60.9920 C.ar  229  GAS229     -0.0002
     14  C6A       -1.5390   33.6120   59.7000 C.ar  229  GAS229     -0.0006
     15  C8        -2.8170   33.7970   55.1530 C.cat 229  GAS229      0.4602
     16  N8        -3.7780   32.8890   55.3680 N.pl3 229  GAS229     -0.0793
     17  C9        -3.5360   31.5210   55.7990 C.3   229  GAS229      0.3327
     18  C10       -2.9080   30.5370   54.8390 C.2   229  GAS229      0.4082
     19  O1        -3.6550   29.9760   54.0120 O.co2 229  GAS229     -0.2416
     20  O2        -1.7600   30.1180   55.0930 O.co2 229  GAS229     -0.2416
     21  N11       -2.3680   34.0460   53.8640 N.pl3 229  GAS229     -0.0663
     22  C1B       -1.5390   35.0630   53.1150 C.ar  229  GAS229      0.1590
     23  C2B       -0.1730   34.8630   52.9700 C.ar  229  GAS229      0.0378
     24  C3B        0.5480   35.7160   52.1640 C.ar  229  GAS229      0.0133
     25  C4B       -0.0940   36.7600   51.5160 C.ar  229  GAS229      0.0686
     26  C7B        0.6980   37.7040   50.6420 C.1   229  GAS229      0.1004
     27  N7B        1.2940   38.4270   49.9660 N.1   229  GAS229     -0.1908
     28  C5B       -1.4510   36.9580   51.6690 C.ar  229  GAS229      0.0133
     29  C6B       -2.1770   36.1110   52.4720 C.ar  229  GAS229      0.0378
@<TRIPOS>BOND
     1    27    26    3
     2    26    25    1
     3    25    28   ar
     4    25    24   ar
     5    28    29   ar
     6    24    23   ar
     7    29    22   ar
     8    23    22   ar
     9    22    21    1
    10    21    15    2
    11    19    18   ar
    12    18    20   ar
    13    18    17    1
    14    15    16    1
    15    15     8    1
    16    16    17    1
    17     8     7    1
    18     2     1   ar
    19     2     3   ar
    20     1     6   ar
    21     3     4   ar
    22     6     7    1
    23     6     5   ar
    24     4     5   ar
    25     7     9    1
    26     9    10   ar
    27     9    14   ar
    28    10    11   ar
    29    14    13   ar
    30    11    12   ar
    31    13    12   ar
