@<TRIPOS>MOLECULE
1eu1_MGD_A_1.pdb
 47 52 0 0 0
SMALL
GASTEIGER

@<TRIPOS>ATOM
      1  PB        17.2770   48.2890   23.7860 P.3   1001  MGD1001     0.2189
      2  O1B       16.7650   48.1970   25.1870 O.3   1001  MGD1001    -0.4371
      3  O2B       18.7130   48.6980   23.5570 O.2   1001  MGD1001    -0.5170
      4  O3B       17.1310   46.8930   22.9750 O.3   1001  MGD1001    -0.2703
      5  O3A       16.4580   44.6210   22.1140 O.3   1001  MGD1001    -0.3109
      6  PA        15.7970   46.0530   22.4970 P.3   1001  MGD1001     0.2189
      7  O1A       15.3550   46.6370   21.1610 O.2   1001  MGD1001    -0.5170
      8  O2A       14.8170   45.9540   23.6340 O.3   1001  MGD1001    -0.4371
      9  O5'       16.3410   49.2870   22.9120 O.3   1001  MGD1001    -0.3112
     10  C5'       15.2160   50.0440   23.5260 C.3   1001  MGD1001     0.1813
     11  C4'       15.2400   51.4000   22.8290 C.3   1001  MGD1001     0.1799
     12  O4'       14.1530   52.1730   23.4440 O.3   1001  MGD1001    -0.3326
     13  C3'       16.5490   52.2380   23.1060 C.3   1001  MGD1001     0.2158
     14  O3'       17.1900   52.7060   21.9000 O.3   1001  MGD1001    -0.2175
     15  C2'       16.0470   53.4040   24.0390 C.3   1001  MGD1001     0.2310
     16  O2'       16.8200   54.6110   23.9690 O.3   1001  MGD1001    -0.2158
     17  C1'       14.5720   53.5520   23.6060 C.3   1001  MGD1001     0.2293
     18  N9        13.6980   54.1620   24.6100 N.pl3 1001  MGD1001    -0.2354
     19  C8        13.7420   53.9880   26.0040 C.3   1001  MGD1001     0.2246
     20  N7        12.7270   54.5800   26.6250 N.2   1001  MGD1001    -0.2322
     21  C5        11.9730   55.1820   25.5990 C.2   1001  MGD1001     0.2182
     22  C6        10.7600   55.9590   25.6580 C.1   1001  MGD1001     0.2372
     23  O6        10.0640   56.2600   26.6810 O.2   1001  MGD1001    -0.2069
     24  N1        10.3330   56.4090   24.3960 N.2   1001  MGD1001    -0.2485
     25  C2        10.9900   56.0780   23.2050 C.1   1001  MGD1001     0.2531
     26  N2        10.4030   56.5380   22.0420 N.pl3 1001  MGD1001    -0.0226
     27  N3        12.1140   55.3380   23.1180 N.2   1001  MGD1001    -0.3074
     28  C4        12.5450   54.9510   24.3530 C.2   1001  MGD1001     0.2300
     29  C10       16.9380   43.6790   23.1680 C.3   1001  MGD1001     0.1837
     30  C11       16.6470   42.2550   22.6610 C.3   1001  MGD1001     0.1762
     31  O11       17.9070   41.7570   22.0610 O.3   1001  MGD1001    -0.3271
     32  C12       16.2480   41.2960   23.8400 C.2   1001  MGD1001     0.0473
     33  S12       15.0030   41.9010   24.9600 S.3   1001  MGD1001    -0.0526
     34  C13       16.6920   40.0120   23.9290 C.2   1001  MGD1001     0.0449
     35  S13       16.0970   38.8980   25.1150 S.3   1001  MGD1001    -0.0530
     36  C14       17.6500   39.4420   22.8450 C.3   1001  MGD1001     0.1850
     37  N15       19.0080   39.1760   23.4780 N.2   1001  MGD1001    -0.2411
     38  C16       19.8800   38.6300   22.4320 C.2   1001  MGD1001     0.2467
     39  C17       20.8720   37.6730   22.7580 C.1   1001  MGD1001     0.2441
     40  O17       20.9840   37.0400   23.8590 O.2   1001  MGD1001    -0.2063
     41  N18       21.8020   37.3940   21.7190 N.2   1001  MGD1001    -0.2474
     42  C19       21.7340   37.9800   20.4790 C.1   1001  MGD1001     0.2608
     43  N19       22.6850   37.6510   19.5520 N.pl3 1001  MGD1001    -0.0220
     44  N20       20.7870   38.8760   20.1390 N.2   1001  MGD1001    -0.2682
     45  C21       19.8670   39.1820   21.1430 C.1   1001  MGD1001     0.1293
     46  N22       18.8430   40.0320   20.7270 N.2   1001  MGD1001    -0.1763
     47  C23       17.7280   40.3860   21.6270 C.3   1001  MGD1001     0.2573
@<TRIPOS>BOND
     1    43    42    1
     2    44    42    2
     3    44    45    2
     4    42    41    2
     5    46    45    2
     6    46    47    1
     7    45    38    1
     8     7     6    2
     9    47    31    1
    10    47    36    1
    11    41    39    2
    12    14    13    1
    13    26    25    1
    14    31    30    1
    15     5     6    1
    16     5    29    1
    17    38    39    1
    18    38    37    2
    19     6     4    1
    20     6     8    1
    21    30    29    1
    22    30    32    1
    23    39    40    2
    24    11    13    1
    25    11    12    1
    26    11    10    1
    27    36    37    1
    28    36    34    1
    29     9    10    1
    30     9     1    1
    31     4     1    1
    32    13    15    1
    33    27    25    2
    34    27    28    2
    35    25    24    2
    36    12    17    1
    37     3     1    2
    38    17    15    1
    39    17    18    1
    40     1     2    1
    41    32    34    2
    42    32    33    1
    43    34    35    1
    44    16    15    1
    45    28    18    1
    46    28    21    1
    47    24    22    2
    48    18    19    1
    49    21    22    1
    50    21    20    2
    51    22    23    2
    52    19    20    1
