@<TRIPOS>MOLECULE
1eu1_GLC_A_1.pdb
 12 12 0 0 0
SMALL
GASTEIGER

@<TRIPOS>ATOM
      1  C1        11.2850   58.3540   50.7480 C.3   2003  GLC2003     0.3024
      2  C2        11.9560   56.9760   50.4880 C.3   2003  GLC2003     0.2434
      3  C3        13.4070   57.1620   51.0300 C.3   2003  GLC2003     0.2199
      4  C4        14.0660   58.3270   50.2280 C.3   2003  GLC2003     0.2144
      5  C5        13.2620   59.6280   50.3220 C.3   2003  GLC2003     0.1836
      6  C6        13.8350   60.6860   49.3650 C.3   2003  GLC2003     0.2142
      7  O1         9.8960   58.4370   50.3690 O.3   2003  GLC2003    -0.1869
      8  O2        11.3160   55.9510   51.2840 O.3   2003  GLC2003    -0.2148
      9  O3        14.1600   55.9600   50.8970 O.3   2003  GLC2003    -0.2174
     10  O4        15.3580   58.6600   50.7920 O.3   2003  GLC2003    -0.2176
     11  O5        11.8860   59.3910   49.9700 O.3   2003  GLC2003    -0.3236
     12  O6        13.0390   61.9030   49.4120 O.3   2003  GLC2003    -0.2176
@<TRIPOS>BOND
     1     6    12    1
     2     6     5    1
     3    11     5    1
     4    11     1    1
     5     4     5    1
     6     4    10    1
     7     4     3    1
     8     7     1    1
     9     2     1    1
    10     2     3    1
    11     2     8    1
    12     9     3    1
