@<TRIPOS>MOLECULE
1eu8_TRE_A_1.pdb
 23 24 0 0 0
SMALL
GASTEIGER

@<TRIPOS>ATOM
      1  C1        61.3250   90.6000   74.4420 C.3   563  TRE563      0.2713
      2  C2        60.2710   91.2260   75.3690 C.3   563  TRE563      0.2406
      3  C3        59.0230   90.3380   75.3100 C.3   563  TRE563      0.2198
      4  C4        58.5440   90.3830   73.8520 C.3   563  TRE563      0.2144
      5  C5        59.6410   89.7790   72.9350 C.3   563  TRE563      0.1835
      6  C6        59.3070   89.7660   71.4760 C.3   563  TRE563      0.2142
      7  O1        61.7050   89.3730   74.9600 O.3   563  TRE563     -0.3016
      8  O2        60.7740   91.2430   76.6560 O.3   563  TRE563     -0.2149
      9  O3        58.0470   90.8730   76.1390 O.3   563  TRE563     -0.2174
     10  O4        57.4190   89.6060   73.6670 O.3   563  TRE563     -0.2176
     11  O5        60.8750   90.4840   73.0600 O.3   563  TRE563     -0.3256
     12  O6        60.3970   89.1740   70.7930 O.3   563  TRE563     -0.2176
     13  C1P       62.6210   88.6140   74.1720 C.3   563  TRE563      0.2713
     14  C2P       63.1310   87.1950   73.9300 C.3   563  TRE563      0.2406
     15  C3P       63.6120   86.6830   75.3310 C.3   563  TRE563      0.2198
     16  C4P       64.8250   87.5420   75.6980 C.3   563  TRE563      0.2144
     17  C5P       64.3790   89.0540   75.7810 C.3   563  TRE563      0.1835
     18  C6P       65.5590   89.9740   76.0530 C.3   563  TRE563      0.2142
     19  O2P       62.0270   86.4460   73.5790 O.3   563  TRE563     -0.2149
     20  O3P       64.0410   85.3660   75.2280 O.3   563  TRE563     -0.2174
     21  O4P       65.3390   87.1510   76.9520 O.3   563  TRE563     -0.2176
     22  O5P       63.8060   89.3910   74.5070 O.3   563  TRE563     -0.3256
     23  O6P       65.7550   90.0710   77.4430 O.3   563  TRE563     -0.2176
@<TRIPOS>BOND
     1    12     6    1
     2     6     5    1
     3     5    11    1
     4     5     4    1
     5    11     1    1
     6    19    14    1
     7    10     4    1
     8     4     3    1
     9    14    13    1
    10    14    15    1
    11    13    22    1
    12    13     7    1
    13     1     7    1
    14     1     2    1
    15    22    17    1
    16    20    15    1
    17     3     2    1
    18     3     9    1
    19    15    16    1
    20     2     8    1
    21    16    17    1
    22    16    21    1
    23    17    18    1
    24    18    23    1
