@<TRIPOS>MOLECULE
1eub_HAV_A_1.pdb
 19 18 0 0 0
SMALL
GASTEIGER

@<TRIPOS>ATOM
      1  NA         2.2050   -0.9770   -2.1840 N.3     1  HAV1       -0.1297
      2  CA         1.3870   -1.5900   -3.2660 C.3     1  HAV1        0.1239
      3  CB         0.8650   -2.9520   -2.7770 C.3     1  HAV1       -0.0197
      4  CG1       -0.4170   -2.7460   -1.9720 C.3     1  HAV1       -0.0607
      5  CG2        0.5730   -3.8730   -3.9670 C.3     1  HAV1       -0.0607
      6  C          2.2310   -1.7740   -4.5330 C.2     1  HAV1        0.2558
      7  O          3.1010   -2.6190   -4.6100 O.2     1  HAV1       -0.2719
      8  O1         2.6680   -1.1190   -6.7310 O.3     1  HAV1       -0.2951
      9  N          1.9550   -0.9960   -5.5400 N.am    1  HAV1       -0.1961
     10  HA         0.5550   -0.9430   -3.4830 H       1  HAV1        0.0592
     11  HB         1.6090   -3.4110   -2.1440 H       1  HAV1        0.0316
     12 HG11       -1.2490   -3.1840   -2.5020 H       1  HAV1        0.0233
     13 HG12       -0.3150   -3.2220   -1.0060 H       1  HAV1        0.0233
     14 HG13       -0.5920   -1.6900   -1.8350 H       1  HAV1        0.0233
     15 HG21        0.3570   -3.2770   -4.8400 H       1  HAV1        0.0233
     16 HG22        1.4370   -4.4940   -4.1590 H       1  HAV1        0.0233
     17 HG23       -0.2760   -4.4990   -3.7370 H       1  HAV1        0.0233
     18  HO1        3.2370   -1.8920   -6.7390 H       1  HAV1        0.2414
     19  HN         1.2360   -0.3300   -5.4600 H       1  HAV1        0.1822
@<TRIPOS>BOND
     1    18     8    1
     2     8     9    1
     3     9    19    1
     4     9     6   am
     5    15     5    1
     6     7     6    2
     7     6     2    1
     8    16     5    1
     9     5    17    1
    10     5     3    1
    11    10     2    1
    12     2     3    1
    13     2     1    1
    14     3    11    1
    15     3     4    1
    16    12     4    1
    17     4    14    1
    18     4    13    1
