@<TRIPOS>MOLECULE
1eub_3MP_A_1.pdb
 13 13 0 0 0
SMALL
GASTEIGER

@<TRIPOS>ATOM
      1  CB         3.5350   -1.5830   -1.9510 C.3     2  3MP2       -0.0357
      2  CG         3.3850   -2.6270   -0.8800 C.3     2  3MP2        0.0503
      3  CD1        2.9290   -2.2710    0.3770 C.2     2  3MP2       -0.0681
      4  CD2        3.6920   -3.9630   -1.1420 C.2     2  3MP2        0.0663
      5  CE1        2.7960   -3.2640    1.3310 C.2     2  3MP2       -0.0348
      6  CZ         3.1290   -4.5820    0.9900 C.2     2  3MP2        0.0772
      7  NE2        3.5690   -4.9350   -0.2270 N.2     2  3MP2       -0.4231
      8  HB1        3.9030   -2.0390   -2.8510 H       2  3MP2        0.0278
      9  HB2        4.2160   -0.8250   -1.6210 H       2  3MP2        0.0278
     10  HD1        2.6810   -1.2440    0.6060 H       2  3MP2        0.0583
     11  HD2        4.0400   -4.2220   -2.1300 H       2  3MP2        0.0931
     12  HE1        2.4400   -3.0250    2.3190 H       2  3MP2        0.0640
     13  HZ         3.0210   -5.3510    1.7410 H       2  3MP2        0.0969
@<TRIPOS>BOND
     1     8     1    1
     2    11     4    1
     3     1     9    1
     4     1     2    1
     5     4     2    1
     6     4     7    2
     7     2     3    1
     8     7     6    2
     9     3    10    1
    10     3     5    2
    11     6     5    1
    12     6    13    1
    13     5    12    1
