@<TRIPOS>MOLECULE
1eub_MSB_A_1.pdb
 18 18 0 0 0
SMALL
GASTEIGER

@<TRIPOS>ATOM
      1  S          2.2350    0.6570   -2.0590 S.3     3  MSB3        0.0033
      2  OB1        2.4220    0.9320   -0.6680 O.3     3  MSB3       -0.0735
      3  OB2        1.0440    1.1080   -2.6750 O.3     3  MSB3       -0.0735
      4  CG         3.5920    1.3350   -2.9700 C.ar    3  MSB3        0.0870
      5  CD1        3.3570    1.9710   -4.1930 C.ar    3  MSB3       -0.0336
      6  CD2        4.8860    1.2520   -2.4590 C.ar    3  MSB3       -0.0336
      7  CE1        4.4240    2.5280   -4.9060 C.ar    3  MSB3       -0.0182
      8  CE2        5.9570    1.8050   -3.1710 C.ar    3  MSB3       -0.0182
      9  CZ         5.7240    2.4450   -4.3950 C.ar    3  MSB3        0.1202
     10  OH         6.7750    2.9980   -5.0960 O.3     3  MSB3       -0.4951
     11  CH         6.5540    4.2980   -5.6230 C.3     3  MSB3        0.0788
     12  HD1        2.3530    2.0340   -4.5870 H       3  MSB3        0.0638
     13  HD2        5.0580    0.7560   -1.5210 H       3  MSB3        0.0638
     14  HE1        4.2450    3.0200   -5.8500 H       3  MSB3        0.0655
     15  HE2        6.9620    1.7450   -2.7750 H       3  MSB3        0.0655
     16  HH1        7.3950    4.5870   -6.2350 H       3  MSB3        0.0660
     17  HH2        5.6550    4.2950   -6.2230 H       3  MSB3        0.0660
     18  HH3        6.4470    5.0030   -4.8130 H       3  MSB3        0.0660
@<TRIPOS>BOND
     1    16    11    1
     2    17    11    1
     3    14     7    1
     4    11    10    1
     5    11    18    1
     6    10     9    1
     7     7     9   ar
     8     7     5   ar
     9    12     5    1
    10     9     8   ar
    11     5     4   ar
    12     8    15    1
    13     8     6   ar
    14     4     6   ar
    15     4     1    1
    16     3     1    1
    17     6    13    1
    18     1     2    1
