@<TRIPOS>MOLECULE
1eue_HEM_A_1.pdb
 43 50 0 0 0
SMALL
GASTEIGER

@<TRIPOS>ATOM
      1 FE         36.8160   34.8610   63.4530 Fe    201  HEM201      0.0000
      2  CHA       37.7310   38.1250   62.8210 C.2   201  HEM201      0.0000
      3  CHB       37.8130   33.9710   60.3280 C.2   201  HEM201      0.0000
      4  CHC       35.8360   31.6130   64.0520 C.2   201  HEM201      0.0000
      5  CHD       35.8550   35.7260   66.5960 C.2   201  HEM201      0.0000
      6  NA        37.6070   35.8340   61.9070 N.ar  201  HEM201      0.0000
      7  C1A       37.8910   37.2050   61.7950 C.ar  201  HEM201      0.0000
      8  C2A       38.3260   37.5260   60.4890 C.ar  201  HEM201      0.0000
      9  C3A       38.3740   36.3500   59.7800 C.ar  201  HEM201      0.0000
     10  C4A       37.9380   35.3050   60.6630 C.ar  201  HEM201      0.0000
     11  CMA       38.7700   36.2060   58.4270 C.3   201  HEM201      0.0000
     12  CAA       38.6660   38.9450   59.9600 C.3   201  HEM201      0.0000
     13  CBA       37.3370   39.6660   59.5680 C.3   201  HEM201      0.0000
     14  CGA       37.4570   41.0700   59.0330 C.2   201  HEM201      0.0000
     15  O1A       36.6210   41.9360   59.4600 O.co2 201  HEM201      0.0000
     16  O2A       38.3640   41.3140   58.1630 O.co2 201  HEM201      0.0000
     17  NB        36.8540   33.1960   62.4360 N.2   201  HEM201      0.0000
     18  C1B       37.3080   32.9990   61.1530 C.2   201  HEM201      0.0000
     19  C2B       37.1810   31.6230   60.7590 C.2   201  HEM201      0.0000
     20  C3B       36.6350   30.9210   61.7650 C.2   201  HEM201      0.0000
     21  C4B       36.4210   31.9130   62.8220 C.2   201  HEM201      0.0000
     22  CMB       37.6000   31.0840   59.4000 C.3   201  HEM201      0.0000
     23  CAB       36.3290   29.4760   61.7370 C.3   201  HEM201      0.0000
     24  CBB       37.0470   28.6380   62.7760 C.3   201  HEM201      0.0000
     25  NC        35.9960   33.8650   64.9650 N.ar  201  HEM201      0.0000
     26  C1C       35.6200   32.5170   65.0460 C.ar  201  HEM201      0.0000
     27  C2C       35.0130   32.2090   66.3310 C.ar  201  HEM201      0.0000
     28  C3C       35.0310   33.3450   67.0750 C.ar  201  HEM201      0.0000
     29  C4C       35.6450   34.3760   66.2260 C.ar  201  HEM201      0.0000
     30  CMC       34.4520   30.8630   66.8040 C.3   201  HEM201      0.0000
     31  CAC       34.5240   33.5070   68.4950 C.2   201  HEM201      0.0000
     32  CBC       33.5240   34.3200   68.8940 C.2   201  HEM201      0.0000
     33  ND        36.8150   36.5330   64.4800 N.2   201  HEM201      0.0000
     34  C1D       36.3890   36.7270   65.7930 C.2   201  HEM201      0.0000
     35  C2D       36.5700   38.1120   66.2240 C.2   201  HEM201      0.0000
     36  C3D       37.0920   38.8120   65.1610 C.2   201  HEM201      0.0000
     37  C4D       37.2370   37.8210   64.0860 C.2   201  HEM201      0.0000
     38  CMD       36.2370   38.6830   67.5970 C.3   201  HEM201      0.0000
     39  CAD       37.4480   40.3200   65.1070 C.3   201  HEM201      0.0000
     40  CBD       36.3380   41.1530   64.4100 C.3   201  HEM201      0.0000
     41  CGD       36.5310   42.6400   64.5850 C.2   201  HEM201      0.0000
     42  O1D       37.5350   43.1720   64.0430 O.co2 201  HEM201      0.0000
     43  O2D       35.6800   43.2570   65.2850 O.co2 201  HEM201      0.0000
@<TRIPOS>BOND
     1    16    14   ar
     2    11     9    1
     3    14    15   ar
     4    14    13    1
     5    22    19    1
     6    13    12    1
     7     9     8   ar
     8     9    10   ar
     9    12     8    1
    10     3    10    2
    11     3    18    1
    12     8     7   ar
    13    10     6   ar
    14    19    18    1
    15    19    20    2
    16    18    17    2
    17    23    20    1
    18    23    24    1
    19    20    21    1
    20     7     6   ar
    21     7     2    2
    22     6     1    1
    23    17    21    1
    24    17     1    1
    25     2    37    1
    26    21     4    2
    27     1    33    1
    28     1    25    1
    29    42    41   ar
    30     4    26    1
    31    37    33    2
    32    37    36    1
    33    40    41    1
    34    40    39    1
    35    33    34    1
    36    41    43   ar
    37    25    26   ar
    38    25    29   ar
    39    26    27   ar
    40    39    36    1
    41    36    35    2
    42    34    35    1
    43    34     5    2
    44    35    38    1
    45    29     5    1
    46    29    28   ar
    47    27    30    1
    48    27    28   ar
    49    28    31    1
    50    31    32    2
