@<TRIPOS>MOLECULE
1euo_HEM_A_1.pdb
 43 50 0 0 0
SMALL
GASTEIGER

@<TRIPOS>ATOM
      1 FE         23.0080   80.0640   27.5650 Fe    260  HEM260      0.0000
      2  CHA       25.6020   77.9360   27.8800 C.2   260  HEM260      0.0000
      3  CHB       23.7120   81.4070   30.5850 C.2   260  HEM260      0.0000
      4  CHC       20.8870   82.5910   26.8690 C.2   260  HEM260      0.0000
      5  CHD       21.7790   78.2380   25.0410 C.2   260  HEM260      0.0000
      6  NA        24.3850   79.7640   28.9350 N.2   260  HEM260      0.0000
      7  C1A       25.4360   78.8730   28.8890 C.2   260  HEM260      0.0000
      8  C2A       26.1480   78.8170   30.1550 C.2   260  HEM260      0.0000
      9  C3A       25.5240   79.6970   30.9760 C.2   260  HEM260      0.0000
     10  C4A       24.4430   80.3050   30.1950 C.2   260  HEM260      0.0000
     11  CMA       25.8850   79.9860   32.4360 C.3   260  HEM260      0.0000
     12  CAA       27.3530   77.9320   30.5020 C.3   260  HEM260      0.0000
     13  CBA       28.6220   78.5430   29.9220 C.3   260  HEM260      0.0000
     14  CGA       29.8590   78.2270   30.7410 C.2   260  HEM260      0.0000
     15  O1A       30.2640   79.0790   31.5610 O.co2 260  HEM260      0.0000
     16  O2A       30.4290   77.1290   30.5650 O.co2 260  HEM260      0.0000
     17  NB        22.4760   81.7120   28.5090 N.ar  260  HEM260      0.0000
     18  C1B       22.8370   82.1160   29.7820 C.ar  260  HEM260      0.0000
     19  C2B       22.2350   83.3940   30.1280 C.ar  260  HEM260      0.0000
     20  C3B       21.5060   83.7770   29.0420 C.ar  260  HEM260      0.0000
     21  C4B       21.6370   82.7070   28.0530 C.ar  260  HEM260      0.0000
     22  CMB       22.3120   84.0830   31.4920 C.3   260  HEM260      0.0000
     23  CAB       20.7010   84.9010   28.8950 C.3   260  HEM260      0.0000
     24  CBB       21.0580   86.2010   29.1960 C.3   260  HEM260      0.0000
     25  NC        21.5900   80.3300   26.2410 N.2   260  HEM260      0.0000
     26  C1C       20.8300   81.4660   26.0390 C.2   260  HEM260      0.0000
     27  C2C       19.9100   81.2840   24.9080 C.2   260  HEM260      0.0000
     28  C3C       20.0540   79.9750   24.4900 C.2   260  HEM260      0.0000
     29  C4C       21.1410   79.4260   25.2950 C.2   260  HEM260      0.0000
     30  CMC       19.0210   82.3780   24.3150 C.3   260  HEM260      0.0000
     31  CAC       19.2730   79.2340   23.5840 C.3   260  HEM260      0.0000
     32  CBC       18.7960   79.7030   22.3750 C.3   260  HEM260      0.0000
     33  ND        23.5790   78.4230   26.6570 N.ar  260  HEM260      0.0000
     34  C1D       22.9330   77.7750   25.6310 C.ar  260  HEM260      0.0000
     35  C2D       23.7230   76.6830   25.1130 C.ar  260  HEM260      0.0000
     36  C3D       24.8450   76.6330   25.8730 C.ar  260  HEM260      0.0000
     37  C4D       24.7320   77.7150   26.8400 C.ar  260  HEM260      0.0000
     38  CMD       23.3190   75.7320   24.0020 C.3   260  HEM260      0.0000
     39  CAD       25.9820   75.6080   25.7870 C.3   260  HEM260      0.0000
     40  CBD       27.1390   76.1150   24.9540 C.3   260  HEM260      0.0000
     41  CGD       28.3620   75.2090   25.0280 C.2   260  HEM260      0.0000
     42  O1D       28.4900   74.4510   26.0170 O.co2 260  HEM260      0.0000
     43  O2D       29.1970   75.2630   24.0950 O.co2 260  HEM260      0.0000
@<TRIPOS>BOND
     1    32    31    1
     2    31    28    1
     3    38    35    1
     4    43    41   ar
     5    30    27    1
     6    28    27    2
     7    28    29    1
     8    27    26    1
     9    40    41    1
    10    40    39    1
    11    41    42   ar
    12     5    29    1
    13     5    34    2
    14    35    34   ar
    15    35    36   ar
    16    29    25    2
    17    34    33   ar
    18    39    36    1
    19    36    37   ar
    20    26    25    1
    21    26     4    2
    22    25     1    1
    23    33    37   ar
    24    33     1    1
    25    37     2    2
    26     4    21    1
    27     1    17    1
    28     1     6    1
    29     2     7    1
    30    21    17   ar
    31    21    20   ar
    32    17    18   ar
    33     7     6    2
    34     7     8    1
    35    23    20    1
    36    23    24    1
    37     6    10    1
    38    20    19   ar
    39    18    19   ar
    40    18     3    1
    41    13    12    1
    42    13    14    1
    43    19    22    1
    44     8    12    1
    45     8     9    2
    46    10     3    2
    47    10     9    1
    48    16    14   ar
    49    14    15   ar
    50     9    11    1
