@<TRIPOS>MOLECULE
1eup_ASD_A_1.pdb
 21 24 0 0 0
SMALL
GASTEIGER

@<TRIPOS>ATOM
      1  C1        -9.8210    9.5230   11.7580 C.3   451  ASD451      0.0118
      2  C10      -11.3340    9.1210   11.7840 C.3   451  ASD451      0.0157
      3  C11      -11.8930   11.6010   12.4140 C.3   451  ASD451      0.0007
      4  C12      -12.5740   12.4560   13.4700 C.3   451  ASD451      0.0069
      5  C13      -14.0740   12.1350   13.5120 C.3   451  ASD451      0.0515
      6  C14      -14.2620   10.7110   13.8870 C.3   451  ASD451      0.0070
      7  C15      -15.7870   10.6080   14.0650 C.3   451  ASD451      0.0082
      8  C16      -16.0080   11.8430   14.9660 C.3   451  ASD451      0.0645
      9  C17      -14.8880   12.8190   14.5960 C.2   451  ASD451      0.1498
     10  C18      -14.7750   12.5470   12.2060 C.3   451  ASD451      0.0073
     11  C19      -11.9160    9.1920   10.3640 C.3   451  ASD451      0.0041
     12  C2        -8.7670    8.4300   11.9370 C.3   451  ASD451      0.0694
     13  C3        -9.2060    7.1380   12.5620 C.2   451  ASD451      0.1725
     14  C4       -10.6310    6.8700   12.6760 C.2   451  ASD451      0.0289
     15  C5       -11.5710    7.7100   12.3150 C.2   451  ASD451     -0.0420
     16  C6       -13.0190    7.3260   12.4540 C.3   451  ASD451      0.0221
     17  C7       -13.7370    8.2840   13.3360 C.3   451  ASD451      0.0044
     18  C8       -13.5640    9.7600   12.9120 C.3   451  ASD451      0.0010
     19  C9       -12.0460   10.0950   12.8060 C.3   451  ASD451      0.0035
     20  O1        -8.4000    6.3160   12.9460 O.2   451  ASD451     -0.2914
     21  O2       -14.7000   13.9070   15.1010 O.2   451  ASD451     -0.2961
@<TRIPOS>BOND
     1    11     2    1
     2     1     2    1
     3     1    12    1
     4     2    15    1
     5     2    19    1
     6    12    13    1
     7    10     5    1
     8    15    16    1
     9    15    14    2
    10     3    19    1
    11     3     4    1
    12    16    17    1
    13    13    14    1
    14    13    20    2
    15    19    18    1
    16    18    17    1
    17    18     6    1
    18     4     5    1
    19     5     6    1
    20     5     9    1
    21     6     7    1
    22     7     8    1
    23     9     8    1
    24     9    21    2
