@<TRIPOS>MOLECULE
1eup_HEM_A_1.pdb
 43 50 0 0 0
SMALL
GASTEIGER

@<TRIPOS>ATOM
      1 FE         -7.7180   11.9720    9.8160 Fe    410  HEM410      0.0000
      2  CHA      -10.6190   13.6810    9.7230 C.2   410  HEM410      0.0000
      3  CHB       -9.0310    9.7860    7.4990 C.2   410  HEM410      0.0000
      4  CHC       -5.0470    9.9570   10.2420 C.2   410  HEM410      0.0000
      5  CHD       -6.8170   13.7040   12.6720 C.2   410  HEM410      0.0000
      6  NA        -9.3950   11.8440    8.7830 N.ar  410  HEM410      0.0000
      7  C1A      -10.4740   12.6750    8.8090 C.ar  410  HEM410      0.0000
      8  C2A      -11.4920   12.2790    7.8590 C.ar  410  HEM410      0.0000
      9  C3A      -11.0360   11.1730    7.2720 C.ar  410  HEM410      0.0000
     10  C4A       -9.7640   10.8910    7.8580 C.ar  410  HEM410      0.0000
     11  CMA      -11.7550   10.3250    6.2500 C.3   410  HEM410      0.0000
     12  CAA      -12.8100   12.9770    7.5780 C.3   410  HEM410      0.0000
     13  CBA      -13.9550   12.5080    8.4820 C.3   410  HEM410      0.0000
     14  CGA      -15.2890   13.2040    8.1710 C.2   410  HEM410      0.0000
     15  O1A      -15.3980   13.8740    7.1230 O.co2 410  HEM410      0.0000
     16  O2A      -16.2420   13.0600    8.9740 O.co2 410  HEM410      0.0000
     17  NB        -7.1810   10.2760    9.0100 N.2   410  HEM410      0.0000
     18  C1B       -7.7990    9.5100    8.0140 C.2   410  HEM410      0.0000
     19  C2B       -6.9480    8.4590    7.5300 C.2   410  HEM410      0.0000
     20  C3B       -5.7920    8.5560    8.2560 C.2   410  HEM410      0.0000
     21  C4B       -5.9710    9.6190    9.2250 C.2   410  HEM410      0.0000
     22  CMB       -7.3290    7.4710    6.4340 C.3   410  HEM410      0.0000
     23  CAB       -4.5340    7.9740    8.0290 C.2   410  HEM410      0.0000
     24  CBB       -4.1680    6.6940    7.7780 C.2   410  HEM410      0.0000
     25  NC        -6.2390   11.8820   11.1670 N.ar  410  HEM410      0.0000
     26  C1C       -5.1560   11.0110   11.1530 C.ar  410  HEM410      0.0000
     27  C2C       -4.1290   11.4030   12.1370 C.ar  410  HEM410      0.0000
     28  C3C       -4.6210   12.4610   12.8270 C.ar  410  HEM410      0.0000
     29  C4C       -5.9560   12.7110   12.2490 C.ar  410  HEM410      0.0000
     30  CMC       -2.6920   10.8480   12.2890 C.3   410  HEM410      0.0000
     31  CAC       -3.8850   13.2980   13.6680 C.2   410  HEM410      0.0000
     32  CBC       -3.8900   13.3110   15.0220 C.2   410  HEM410      0.0000
     33  ND        -8.4850   13.3880   10.8960 N.2   410  HEM410      0.0000
     34  C1D       -7.9930   13.9960   12.0540 C.2   410  HEM410      0.0000
     35  C2D       -8.9000   15.0030   12.5600 C.2   410  HEM410      0.0000
     36  C3D       -9.9390   15.0500   11.7210 C.2   410  HEM410      0.0000
     37  C4D       -9.6990   14.0400   10.6900 C.2   410  HEM410      0.0000
     38  CMD       -8.7260   15.8680   13.7990 C.3   410  HEM410      0.0000
     39  CAD      -11.1330   15.9670   11.8610 C.3   410  HEM410      0.0000
     40  CBD      -11.0210   17.0920   10.8480 C.3   410  HEM410      0.0000
     41  CGD      -12.1120   18.1240   11.0090 C.2   410  HEM410      0.0000
     42  O1D      -13.2360   17.7480   11.3700 O.co2 410  HEM410      0.0000
     43  O2D      -11.8620   19.3280   10.7850 O.co2 410  HEM410      0.0000
@<TRIPOS>BOND
     1    11     9    1
     2    22    19    1
     3    15    14   ar
     4     9    10   ar
     5     9     8   ar
     6     3    10    2
     7     3    18    1
     8    19    18    1
     9    19    20    2
    10    12     8    1
    11    12    13    1
    12    24    23    2
    13    10     6   ar
    14     8     7   ar
    15    18    17    2
    16    23    20    1
    17    14    13    1
    18    14    16   ar
    19    20    21    1
    20     6     7   ar
    21     6     1    1
    22     7     2    2
    23    17    21    1
    24    17     1    1
    25    21     4    2
    26     2    37    1
    27     1    33    1
    28     1    25    1
    29     4    26    1
    30    37    33    2
    31    37    36    1
    32    43    41   ar
    33    40    41    1
    34    40    39    1
    35    33    34    1
    36    41    42   ar
    37    26    25   ar
    38    26    27   ar
    39    25    29   ar
    40    36    39    1
    41    36    35    2
    42    34    35    1
    43    34     5    2
    44    27    30    1
    45    27    28   ar
    46    29     5    1
    47    29    28   ar
    48    35    38    1
    49    28    31    1
    50    31    32    2
