@<TRIPOS>MOLECULE
1euq_QSI_A_1.pdb
 32 34 0 0 0
SMALL
GASTEIGER

@<TRIPOS>ATOM
      1  N         45.0250   31.8260   13.8530 N.3   998  QSI998     -0.1230
      2  CA        44.1060   31.7960   14.8180 C.3   998  QSI998      0.1714
      3  CB        42.7960   32.3450   14.2930 C.3   998  QSI998      0.0381
      4  CG        41.9690   33.0240   15.3530 C.3   998  QSI998      0.0905
      5  CD        40.6540   33.5110   14.8100 C.2   998  QSI998      0.2608
      6  OE1       39.8300   32.7160   14.3920 O.2   998  QSI998     -0.2717
      7  NE2       40.5720   34.9420   14.5230 N.am  998  QSI998     -0.0878
      8  C         43.8870   30.4180   15.5000 C.2   998  QSI998      0.2798
      9  O         43.0700   30.3180   16.4340 O.2   998  QSI998     -0.2701
     10  N10       44.8040   29.3960   15.2850 N.am  998  QSI998     -0.0577
     11  S         44.2870   27.7140   15.2950 S.3   998  QSI998      0.0852
     12  O1S       44.5120   27.1540   16.6990 O.3   998  QSI998     -0.0508
     13  O2S       44.9440   27.0780   14.1510 O.3   998  QSI998     -0.0508
     14  O5'       42.8330   27.6100   15.0170 O.3   998  QSI998     -0.2230
     15  C5'       42.2960   27.9960   13.7400 C.3   998  QSI998      0.2064
     16  C4'       40.8160   28.2360   13.8590 C.3   998  QSI998      0.1842
     17  O4'       40.1710   26.9880   14.2160 O.3   998  QSI998     -0.3135
     18  C1'       39.1230   27.2340   15.1390 C.3   998  QSI998      0.3186
     19  N9        39.4900   26.6250   16.4210 N.pl3 998  QSI998     -0.1439
     20  C4        38.6650   25.8520   17.2020 C.2   998  QSI998      0.3518
     21  N3        37.3790   25.5200   16.9520 N.2   998  QSI998     -0.0055
     22  C2        36.8830   24.7620   17.9370 C.3   998  QSI998      0.5254
     23  N1        37.4850   24.3220   19.0530 N.2   998  QSI998      0.0021
     24  C6        38.7840   24.6610   19.2700 C.2   998  QSI998      0.4393
     25  N6        39.3900   24.1990   20.3730 N.pl3 998  QSI998      0.2180
     26  C5        39.4220   25.4790   18.3010 C.2   998  QSI998      0.2526
     27  N7        40.7050   26.0130   18.2190 N.2   998  QSI998     -0.2095
     28  C8        40.6930   26.6850   17.0930 C.3   998  QSI998      0.3377
     29  C2'       38.9660   28.7520   15.2040 C.3   998  QSI998      0.2570
     30  O2'       38.1220   29.1810   14.1470 O.3   998  QSI998     -0.2130
     31  C3'       40.4050   29.1780   14.9780 C.3   998  QSI998      0.2185
     32  O3'       40.5040   30.5280   14.5740 O.3   998  QSI998     -0.2174
@<TRIPOS>BOND
     1    15    16    1
     2    15    14    1
     3     1     2    1
     4    16    17    1
     5    16    31    1
     6    30    29    1
     7    13    11    1
     8    17    18    1
     9     3     2    1
    10     3     4    1
    11     6     5    2
    12     7     5   am
    13    32    31    1
    14     5     4    1
    15     2     8    1
    16    31    29    1
    17    14    11    1
    18    18    29    1
    19    18    19    1
    20    10    11    1
    21    10     8   am
    22    11    12    1
    23     8     9    2
    24    19    28    1
    25    19    20    1
    26    21    20    2
    27    21    22    1
    28    28    27    1
    29    20    26    1
    30    22    23    1
    31    27    26    2
    32    26    24    1
    33    23    24    2
    34    24    25    1
