@<TRIPOS>MOLECULE
1eus_DAN_A_1.pdb
 20 20 0 0 0
SMALL
GASTEIGER

@<TRIPOS>ATOM
      1  C1        14.8160   48.6920   38.5900 C.2   800  DAN800      0.4208
      2  C2        15.1210   48.0050   39.7980 C.2   800  DAN800      0.2163
      3  C3        14.6010   48.4660   41.0050 C.2   800  DAN800      0.0518
      4  C4        14.6210   47.5340   42.2330 C.3   800  DAN800      0.2007
      5  C5        15.8820   46.6030   42.2190 C.3   800  DAN800      0.1722
      6  C6        15.8870   45.7870   40.8990 C.3   800  DAN800      0.2215
      7  C7        17.1450   44.9170   40.5130 C.3   800  DAN800      0.2261
      8  C8        16.9580   44.5110   38.9780 C.3   800  DAN800      0.2185
      9  C9        18.1200   43.6640   38.2580 C.3   800  DAN800      0.2175
     10  C10       17.0040   45.4000   44.0080 C.2   800  DAN800      0.2420
     11  C11       17.0020   44.5330   45.2600 C.3   800  DAN800      0.0964
     12  N5        15.8670   45.7320   43.4040 N.am  800  DAN800     -0.2004
     13  O1A       14.0470   49.6840   38.5210 O.co2 800  DAN800     -0.2371
     14  O1B       15.2520   48.1550   37.5370 O.co2 800  DAN800     -0.2371
     15  O4        14.6010   48.2340   43.4840 O.3   800  DAN800     -0.2162
     16  O6        15.6800   46.7240   39.7810 O.2   800  DAN800     -0.4684
     17  O7        18.2700   45.6840   40.7570 O.3   800  DAN800     -0.2164
     18  O8        15.7930   43.6850   38.9620 O.3   800  DAN800     -0.2174
     19  O9        18.1710   42.4840   38.8090 O.3   800  DAN800     -0.2175
     20  O10       18.1070   45.7390   43.5640 O.2   800  DAN800     -0.2733
@<TRIPOS>BOND
     1    14     1   ar
     2     9    19    1
     3     9     8    1
     4    13     1   ar
     5     1     2    1
     6    18     8    1
     7     8     7    1
     8    16     2    1
     9    16     6    1
    10     2     3    2
    11     7    17    1
    12     7     6    1
    13     6     5    1
    14     3     4    1
    15     5     4    1
    16     5    12    1
    17     4    15    1
    18    12    10   am
    19    20    10    2
    20    10    11    1
