@<TRIPOS>MOLECULE
1euu_GAL_A_1.pdb
 12 12 0 0 0
SMALL
GASTEIGER

@<TRIPOS>ATOM
      1  C1       -10.8260  -32.3500   29.7550 C.3     2  GAL2        0.3024
      2  C2       -10.8610  -31.9690   28.2890 C.3     2  GAL2        0.2434
      3  C3       -11.9810  -30.9550   28.0820 C.3     2  GAL2        0.2199
      4  C4       -13.3280  -31.5110   28.6000 C.3     2  GAL2        0.2144
      5  C5       -13.1950  -32.1190   30.0090 C.3     2  GAL2        0.1836
      6  C6       -14.4070  -32.9600   30.3840 C.3     2  GAL2        0.2142
      7  O1        -9.7770  -33.2310   30.0000 O.3     2  GAL2       -0.1869
      8  O2        -9.6190  -31.4140   27.8880 O.3     2  GAL2       -0.2148
      9  O3       -12.0720  -30.6520   26.6980 O.3     2  GAL2       -0.2174
     10  O4       -13.8400  -32.4850   27.6890 O.3     2  GAL2       -0.2176
     11  O5       -12.0510  -32.9970   30.0910 O.3     2  GAL2       -0.3236
     12  O6       -14.1440  -33.8360   31.4720 O.3     2  GAL2       -0.2176
@<TRIPOS>BOND
     1     9     3    1
     2    10     4    1
     3     8     2    1
     4     3     2    1
     5     3     4    1
     6     2     1    1
     7     4     5    1
     8     1     7    1
     9     1    11    1
    10     5    11    1
    11     5     6    1
    12     6    12    1
