@<TRIPOS>MOLECULE
1euy_QSI_A_1.pdb
 32 34 0 0 0
SMALL
GASTEIGER

@<TRIPOS>ATOM
      1  N         46.1160   31.9810   13.7510 N.3   998  QSI998     -0.1230
      2  CA        45.2040   32.0180   14.7220 C.3   998  QSI998      0.1714
      3  CB        43.8760   32.5160   14.1690 C.3   998  QSI998      0.0381
      4  CG        43.1320   33.4530   15.1000 C.3   998  QSI998      0.0905
      5  CD        41.7910   33.9020   14.5280 C.2   998  QSI998      0.2608
      6  OE1       40.9720   33.0870   14.1070 O.2   998  QSI998     -0.2717
      7  NE2       41.5230   35.3420   14.5480 N.am  998  QSI998     -0.0878
      8  C         45.0340   30.6350   15.3710 C.2   998  QSI998      0.2798
      9  O         44.4720   30.5450   16.4790 O.2   998  QSI998     -0.2701
     10  N10       45.8190   29.5500   14.8860 N.am  998  QSI998     -0.0577
     11  S         45.3530   27.9590   15.1560 S.3   998  QSI998      0.0852
     12  O1S       45.6580   27.6250   16.5850 O.3   998  QSI998     -0.0508
     13  O2S       45.9450   27.1940   14.1230 O.3   998  QSI998     -0.0508
     14  O5'       43.8570   27.8240   15.0090 O.3   998  QSI998     -0.2230
     15  C5'       43.1750   28.2450   13.8210 C.3   998  QSI998      0.2064
     16  C4'       41.7120   28.4420   14.1190 C.3   998  QSI998      0.1842
     17  O4'       41.1350   27.1730   14.5200 O.3   998  QSI998     -0.3135
     18  C1'       40.0490   27.4020   15.4090 C.3   998  QSI998      0.3186
     19  N9        40.2370   26.6050   16.6250 N.pl3 998  QSI998     -0.1439
     20  C4        39.2270   26.0980   17.4130 C.2   998  QSI998      0.3518
     21  N3        37.9010   26.2590   17.2450 N.2   998  QSI998     -0.0055
     22  C2        37.2200   25.6060   18.1880 C.3   998  QSI998      0.5254
     23  N1        37.6790   24.8720   19.2070 N.2   998  QSI998      0.0021
     24  C6        39.0180   24.7370   19.3610 C.2   998  QSI998      0.4393
     25  N6        39.4720   24.0130   20.4020 N.pl3 998  QSI998      0.2180
     26  C5        39.8540   25.3770   18.4160 C.2   998  QSI998      0.2526
     27  N7        41.2320   25.4400   18.2740 N.2   998  QSI998     -0.2095
     28  C8        41.4070   26.1890   17.2070 C.3   998  QSI998      0.3377
     29  C2'       39.9770   28.9110   15.6470 C.3   998  QSI998      0.2570
     30  O2'       39.0350   29.4880   14.7560 O.3   998  QSI998     -0.2130
     31  C3'       41.4000   29.3310   15.3110 C.3   998  QSI998      0.2185
     32  O3'       41.4330   30.7050   14.9640 O.3   998  QSI998     -0.2174
@<TRIPOS>BOND
     1     1     2    1
     2    15    16    1
     3    15    14    1
     4     6     5    2
     5    16    17    1
     6    16    31    1
     7    13    11    1
     8     3     2    1
     9     3     4    1
    10    17    18    1
    11     5     7   am
    12     5     4    1
    13     2     8    1
    14    30    29    1
    15    10    11    1
    16    10     8   am
    17    32    31    1
    18    14    11    1
    19    11    12    1
    20    31    29    1
    21     8     9    2
    22    18    29    1
    23    18    19    1
    24    19    28    1
    25    19    20    1
    26    28    27    1
    27    21    20    2
    28    21    22    1
    29    20    26    1
    30    22    23    1
    31    27    26    2
    32    26    24    1
    33    23    24    2
    34    24    25    1
