@<TRIPOS>MOLECULE
1ev4_GTS_A_1.pdb
 23 22 0 0 0
SMALL
GASTEIGER

@<TRIPOS>ATOM
      1  N1        -1.4320   72.6740   11.0950 N.3   230  GTS230     -0.1208
      2  CA1       -0.8330   72.6830    9.7850 C.3   230  GTS230      0.1948
      3  C1         0.2890   71.6770    9.8540 C.2   230  GTS230      0.3819
      4  O11        0.4600   70.9280    8.9070 O.co2 230  GTS230     -0.2441
      5  O12        0.9810   71.6350   10.8650 O.co2 230  GTS230     -0.2441
      6  CB1       -0.3390   74.0780    9.4980 C.3   230  GTS230      0.0402
      7  CG1        0.1020   74.2080    8.0430 C.3   230  GTS230      0.0889
      8  CD1        0.2610   75.6410    7.6580 C.2   230  GTS230      0.2419
      9  OE1        0.0840   76.5650    8.4650 O.2   230  GTS230     -0.2733
     10  N2         0.5120   75.8110    6.3700 N.am  230  GTS230     -0.1961
     11  CA2        0.6670   77.1500    5.8140 C.3   230  GTS230      0.1924
     12  C2        -0.0320   77.2300    4.4990 C.2   230  GTS230      0.2634
     13  O2         0.2320   76.3810    3.6420 O.2   230  GTS230     -0.2714
     14  CB2        2.1070   77.5530    5.5320 C.3   230  GTS230      0.1362
     15  SG2        3.2660   77.5480    6.9320 S.3   230  GTS230     -0.1938
     16  O1S        3.5750   76.1980    7.3410 O.3   230  GTS230     -0.3074
     17  O2S        4.4570   78.2000    6.4710 O.3   230  GTS230     -0.3074
     18  O3S        2.7130   78.2370    8.0740 O.3   230  GTS230     -0.3074
     19  N3        -0.8980   78.2300    4.3340 N.am  230  GTS230     -0.1917
     20  CA3       -1.4350   78.5070    3.0210 C.3   230  GTS230      0.2285
     21  C3        -2.8370   79.0380    3.0800 C.2   230  GTS230      0.3865
     22  O31       -3.2860   79.5230    2.0480 O.co2 230  GTS230     -0.2437
     23  O32       -3.4380   78.9910    4.1540 O.co2 230  GTS230     -0.2437
@<TRIPOS>BOND
     1    22    21   ar
     2    20    21    1
     3    20    19    1
     4    21    23   ar
     5    13    12    2
     6    19    12   am
     7    12    11    1
     8    14    11    1
     9    14    15    1
    10    11    10    1
    11    10     8   am
    12    17    15    1
    13    15    16    1
    14    15    18    1
    15     8     7    1
    16     8     9    2
    17     7     6    1
    18     4     3   ar
    19     6     2    1
    20     2     3    1
    21     2     1    1
    22     3     5   ar
