@<TRIPOS>MOLECULE
1ev9_GTS_A_1.pdb
 23 22 0 0 0
SMALL
GASTEIGER

@<TRIPOS>ATOM
      1  N1        -1.5510   72.6900   10.9500 N.3   230  GTS230     -0.1208
      2  CA1       -0.8940   72.6940    9.6750 C.3   230  GTS230      0.1948
      3  C1         0.2350   71.7030    9.8230 C.2   230  GTS230      0.3819
      4  O11        0.4720   70.9540    8.8950 O.co2 230  GTS230     -0.2441
      5  O12        0.8580   71.6710   10.8770 O.co2 230  GTS230     -0.2441
      6  CB1       -0.4080   74.0950    9.3880 C.3   230  GTS230      0.0402
      7  CG1        0.0810   74.2300    7.9480 C.3   230  GTS230      0.0889
      8  CD1        0.1320   75.6690    7.5090 C.2   230  GTS230      0.2419
      9  OE1       -0.1550   76.5960    8.2780 O.2   230  GTS230     -0.2733
     10  N2         0.4250   75.8080    6.2120 N.am  230  GTS230     -0.1961
     11  CA2        0.5030   77.1100    5.5460 C.3   230  GTS230      0.1924
     12  C2        -0.2730   77.0600    4.2790 C.2   230  GTS230      0.2634
     13  O2        -0.2160   76.0490    3.5740 O.2   230  GTS230     -0.2714
     14  CB2        1.8940   77.5090    5.1300 C.3   230  GTS230      0.1362
     15  SG2        3.1150   77.6680    6.4490 S.3   230  GTS230     -0.1938
     16  O1S        3.4610   76.3760    7.0020 O.3   230  GTS230     -0.3074
     17  O2S        4.2620   78.2760    5.8440 O.3   230  GTS230     -0.3074
     18  O3S        2.6100   78.4950    7.5220 O.3   230  GTS230     -0.3074
     19  N3        -0.9960   78.1410    3.9910 N.am  230  GTS230     -0.1917
     20  CA3       -1.6110   78.2730    2.6960 C.3   230  GTS230      0.2285
     21  C3        -3.1020   78.3370    2.8200 C.2   230  GTS230      0.3865
     22  O31       -3.7230   78.6520    1.8170 O.co2 230  GTS230     -0.2437
     23  O32       -3.6090   78.0820    3.9180 O.co2 230  GTS230     -0.2437
@<TRIPOS>BOND
     1    22    21   ar
     2    20    21    1
     3    20    19    1
     4    21    23   ar
     5    13    12    2
     6    19    12   am
     7    12    11    1
     8    14    11    1
     9    14    15    1
    10    11    10    1
    11    17    15    1
    12    10     8   am
    13    15    16    1
    14    15    18    1
    15     8     7    1
    16     8     9    2
    17     7     6    1
    18     4     3   ar
    19     6     2    1
    20     2     3    1
    21     2     1    1
    22     3     5   ar
