@<TRIPOS>MOLECULE
1eve_E20_A_1.pdb
 28 31 0 0 0
SMALL
GASTEIGER

@<TRIPOS>ATOM
      1  C1         1.0570   60.0560   71.2400 C.ar  2001  E202001     0.1725
      2  C2         0.1880   61.0790   71.6280 C.ar  2001  E202001     0.1721
      3  C3         0.3470   62.4150   71.1710 C.ar  2001  E202001     0.0359
      4  C4         1.4470   62.7200   70.2700 C.ar  2001  E202001    -0.0158
      5  C5         2.3060   61.6650   69.8810 C.ar  2001  E202001     0.0340
      6  C6         2.1400   60.3710   70.3620 C.ar  2001  E202001     0.0426
      7  C7         3.3650   62.0940   69.0160 C.2   2001  E202001     0.1727
      8  C8         3.0860   63.5900   68.7400 C.3   2001  E202001     0.0663
      9  C9         1.8390   63.9920   69.5580 C.3   2001  E202001     0.0342
     10  C10        4.1050   64.5760   69.2450 C.3   2001  E202001     0.0081
     11  C11        4.3070   65.8480   68.5330 C.3   2001  E202001     0.0032
     12  C12        5.0060   65.6370   67.1950 C.3   2001  E202001     0.0174
     13  C13        5.1610   66.9190   66.4250 C.3   2001  E202001     0.0724
     14  N14        3.8540   67.6350   66.2370 N.3   2001  E202001    -0.2690
     15  C15        3.1770   67.9970   67.5350 C.3   2001  E202001     0.0724
     16  C16        3.0040   66.7080   68.3900 C.3   2001  E202001     0.0174
     17  C17        3.7430   68.9430   65.4830 C.3   2001  E202001     0.0991
     18  C18        3.9920   68.8470   63.9880 C.ar  2001  E202001    -0.0061
     19  C19        2.8640   68.6750   63.1260 C.ar  2001  E202001    -0.0029
     20  C20        3.0520   68.4320   61.7230 C.ar  2001  E202001    -0.0003
     21  C21        4.3450   68.3900   61.1950 C.ar  2001  E202001    -0.0000
     22  C22        5.4790   68.5980   62.0460 C.ar  2001  E202001    -0.0003
     23  C23        5.3100   68.8690   63.4400 C.ar  2001  E202001    -0.0029
     24  O24        4.3250   61.3750   68.6150 O.2   2001  E202001    -0.2913
     25  O25        0.8900   58.7620   71.6440 O.3   2001  E202001    -0.4684
     26  C26        1.8420   57.6470   71.2650 C.3   2001  E202001     0.2526
     27  O27       -0.9250   61.0250   72.3210 O.3   2001  E202001    -0.4684
     28  C28       -1.4340   59.8620   72.9280 C.3   2001  E202001     0.2526
@<TRIPOS>BOND
     1    21    20   ar
     2    21    22   ar
     3    20    19   ar
     4    22    23   ar
     5    19    18   ar
     6    23    18   ar
     7    18    17    1
     8    17    14    1
     9    14    13    1
    10    14    15    1
    11    13    12    1
    12    12    11    1
    13    15    16    1
    14    16    11    1
    15    11    10    1
    16    24     7    2
    17     8     7    1
    18     8    10    1
    19     8     9    1
    20     7     5    1
    21     9     4    1
    22     5     4   ar
    23     5     6   ar
    24     4     3   ar
    25     6     1   ar
    26     3     2   ar
    27     1     2   ar
    28     1    25    1
    29    26    25    1
    30     2    27    1
    31    27    28    1
