@<TRIPOS>MOLECULE
1evh_III_B_1.pdb
 42 46 0 0 0
SMALL
GASTEIGER

@<TRIPOS>ATOM
      1  C         14.4800   17.8570   21.6620 C.2   1000  ACE1000     0.2423
      2  O         15.0350   16.8000   21.9850 O.2   1000  ACE1000    -0.2733
      3  CH3       12.9570   17.9870   21.7120 C.3   1000  ACE1000     0.0964
      4  N         15.0680   18.7870   20.9120 N.am  1001  PHE1001    -0.1975
      5  CA        16.4510   18.6560   20.4610 C.3   1001  PHE1001     0.1755
      6  C         17.2200   19.9500   20.6710 C.2   1001  PHE1001     0.2461
      7  O         16.6310   21.0330   20.7280 O.2   1001  PHE1001    -0.2730
      8  CB        16.5190   18.3180   18.9670 C.3   1001  PHE1001     0.0574
      9  CG        15.8980   17.0060   18.6060 C.ar  1001  PHE1001    -0.0200
     10  CD1       14.5300   16.9060   18.3940 C.ar  1001  PHE1001    -0.0042
     11  CD2       16.6850   15.8670   18.4730 C.ar  1001  PHE1001    -0.0042
     12  CE1       13.9530   15.6910   18.0520 C.ar  1001  PHE1001    -0.0003
     13  CE2       16.1140   14.6460   18.1320 C.ar  1001  PHE1001    -0.0003
     14  CZ        14.7480   14.5580   17.9200 C.ar  1001  PHE1001    -0.0000
     15  N         18.5520   19.8570   20.7940 N.am  1002  PRO1002    -0.2716
     16  CA        19.3470   21.0680   20.9880 C.3   1002  PRO1002     0.1521
     17  C         19.5160   21.7620   19.6420 C.2   1002  PRO1002     0.2440
     18  O         19.3160   21.1520   18.5870 O.2   1002  PRO1002    -0.2731
     19  CB        20.6660   20.5270   21.5330 C.3   1002  PRO1002     0.0310
     20  CG        20.8020   19.2330   20.7980 C.3   1002  PRO1002     0.0237
     21  CD        19.3980   18.6540   20.9000 C.3   1002  PRO1002     0.0939
     22  N         19.8820   23.0500   19.6560 N.am  1003  PRO1003    -0.2717
     23  CA        20.0650   23.7770   18.3990 C.3   1003  PRO1003     0.1521
     24  C         21.2580   23.2400   17.6090 C.2   1003  PRO1003     0.2440
     25  O         22.2090   22.7130   18.1870 O.2   1003  PRO1003    -0.2731
     26  CB        20.2740   25.2140   18.8670 C.3   1003  PRO1003     0.0310
     27  CG        20.9720   25.0340   20.1750 C.3   1003  PRO1003     0.0237
     28  CD        20.1780   23.9140   20.8120 C.3   1003  PRO1003     0.0939
     29  N         21.2110   23.3490   16.2730 N.am  1004  PRO1004    -0.2717
     30  CA        22.3160   22.8650   15.4440 C.3   1004  PRO1004     0.1521
     31  C         23.5600   23.7370   15.6310 C.2   1004  PRO1004     0.2440
     32  O         23.4890   24.8100   16.2320 O.2   1004  PRO1004    -0.2731
     33  CB        21.7400   22.9390   14.0300 C.3   1004  PRO1004     0.0310
     34  CG        20.7890   24.0890   14.1150 C.3   1004  PRO1004     0.0237
     35  CD        20.1040   23.8460   15.4360 C.3   1004  PRO1004     0.0939
     36  N         24.7170   23.2800   15.1310 N.am  1005  PRO1005    -0.2727
     37  CA        25.9890   24.0050   15.2370 C.3   1005  PRO1005     0.1402
     38  C         25.9110   25.4350   14.7050 C.2   1005  PRO1005     0.2269
     39  O         26.3250   26.3560   15.4410 O.2   1005  PRO1005    -0.2865
     40  CB        26.9460   23.1390   14.4240 C.3   1005  PRO1005     0.0296
     41  CG        26.4040   21.7700   14.6300 C.3   1005  PRO1005     0.0237
     42  CD        24.9200   21.9820   14.4650 C.3   1005  PRO1005     0.0939
@<TRIPOS>BOND
     1    33    34    1
     2    33    30    1
     3    34    35    1
     4    40    41    1
     5    40    37    1
     6    42    41    1
     7    42    36    1
     8    38    37    1
     9    38    39    2
    10    36    37    1
    11    36    31   am
    12    35    29    1
    13    30    31    1
    14    30    29    1
    15    31    32    2
    16    29    24   am
    17    24    25    2
    18    24    23    1
    19    14    12   ar
    20    14    13   ar
    21    12    10   ar
    22    13    11   ar
    23    10     9   ar
    24    23    26    1
    25    23    22    1
    26    11     9   ar
    27    18    17    2
    28     9     8    1
    29    26    27    1
    30     8     5    1
    31    17    22   am
    32    17    16    1
    33    22    28    1
    34    27    28    1
    35     5     6    1
    36     5     4    1
    37     6     7    2
    38     6    15   am
    39    15    21    1
    40    15    16    1
    41    20    21    1
    42    20    19    1
    43     4     1   am
    44    16    19    1
    45     1     3    1
    46     1     2    2
