@<TRIPOS>MOLECULE
1evj_NAD_A_1.pdb
 44 48 0 0 0
SMALL
GASTEIGER

@<TRIPOS>ATOM
      1  PA        12.3600   66.2710   47.8550 P.3   500  NAD500      0.2189
      2  O1A       11.8090   67.3290   48.7430 O.3   500  NAD500     -0.4371
      3  O2A       11.4270   65.3620   47.1570 O.2   500  NAD500     -0.5170
      4  O5B       13.3250   66.9630   46.7710 O.3   500  NAD500     -0.3112
      5  C5B       13.6790   66.3150   45.5350 C.3   500  NAD500      0.1813
      6  C4B       14.3270   67.2470   44.4920 C.3   500  NAD500      0.1821
      7  O4B       14.7570   66.4960   43.3370 O.3   500  NAD500     -0.3135
      8  C3B       13.3900   68.3250   43.9580 C.3   500  NAD500      0.2184
      9  O3B       14.0970   69.5060   43.5630 O.3   500  NAD500     -0.2174
     10  C2B       12.7340   67.6250   42.7780 C.3   500  NAD500      0.2570
     11  O2B       12.2280   68.5480   41.8120 O.3   500  NAD500     -0.2130
     12  C1B       13.8830   66.7810   42.2250 C.3   500  NAD500      0.3186
     13  N9A       13.4860   65.5120   41.5420 N.pl3 500  NAD500     -0.1439
     14  C8A       14.1380   65.0150   40.4310 C.3   500  NAD500      0.3377
     15  N7A       13.4770   63.9520   39.9860 N.2   500  NAD500     -0.2095
     16  C5A       12.4790   63.7630   40.8100 C.2   500  NAD500      0.2526
     17  C6A       11.5100   62.7690   40.6250 C.2   500  NAD500      0.4393
     18  N6A       11.6750   61.7660   39.7600 N.pl3 500  NAD500      0.2180
     19  N1A       10.4510   62.7530   41.5100 N.2   500  NAD500      0.0021
     20  C2A       10.5210   63.5540   42.6320 C.3   500  NAD500      0.5254
     21  N3A       11.5450   64.4450   42.8690 N.2   500  NAD500     -0.0055
     22  C4A       12.4690   64.6420   41.8680 C.2   500  NAD500      0.3518
     23  O3        13.3790   65.3790   48.6950 O.3   500  NAD500     -0.2703
     24  PN        14.3750   65.7150   49.8980 P.3   500  NAD500      0.2189
     25  O1N       14.9790   67.0460   49.6690 O.2   500  NAD500     -0.5170
     26  O2N       13.6540   65.4760   51.1670 O.3   500  NAD500     -0.4371
     27  O5D       15.5070   64.5850   49.7230 O.3   500  NAD500     -0.3112
     28  C5D       16.5050   64.6360   48.6830 C.3   500  NAD500      0.1813
     29  C4D       17.7930   63.8490   48.9870 C.3   500  NAD500      0.1799
     30  O4D       18.4330   64.3610   50.1670 O.3   500  NAD500     -0.3327
     31  C3D       17.5630   62.3550   49.2340 C.3   500  NAD500      0.2158
     32  O3D       18.6450   61.5500   48.7550 O.3   500  NAD500     -0.2175
     33  C2D       17.4280   62.2810   50.7490 C.3   500  NAD500      0.2309
     34  O2D       17.7440   60.9820   51.2730 O.3   500  NAD500     -0.2158
     35  C1D       18.4150   63.3530   51.2020 C.3   500  NAD500      0.2263
     36  N1N       18.0700   63.9480   52.5290 N.pl3 500  NAD500     -0.2787
     37  C2N       19.0650   63.9910   53.5460 C.3   500  NAD500      0.1244
     38  C3N       18.8000   64.6280   54.7740 C.2   500  NAD500      0.0544
     39  C7N       19.9130   64.8960   55.8080 C.2   500  NAD500      0.2818
     40  O7N       19.6420   65.4600   56.8630 O.2   500  NAD500     -0.2670
     41  N7N       21.1560   64.5020   55.5050 N.am  500  NAD500     -0.0839
     42  C4N       17.4650   65.0370   55.0360 C.2   500  NAD500      0.0033
     43  C5N       16.4750   65.0690   54.0300 C.2   500  NAD500      0.0157
     44  C6N       16.7880   64.5560   52.7590 C.2   500  NAD500      0.0633
@<TRIPOS>BOND
     1    18    17    1
     2    15    14    1
     3    15    16    2
     4    14    13    1
     5    17    16    1
     6    17    19    2
     7    16    22    1
     8    19    20    1
     9    13    22    1
    10    13    12    1
    11    11    10    1
    12    22    21    2
    13    12    10    1
    14    12     7    1
    15    20    21    1
    16    10     8    1
    17     7     6    1
    18     9     8    1
    19     8     6    1
    20     6     5    1
    21     5     4    1
    22     4     1    1
    23     3     1    2
    24     1    23    1
    25     1     2    1
    26    28    29    1
    27    28    27    1
    28    23    24    1
    29    32    31    1
    30    29    31    1
    31    29    30    1
    32    31    33    1
    33    25    24    2
    34    27    24    1
    35    24    26    1
    36    30    35    1
    37    33    35    1
    38    33    34    1
    39    35    36    1
    40    36    44    1
    41    36    37    1
    42    44    43    2
    43    37    38    1
    44    43    42    1
    45    38    42    2
    46    38    39    1
    47    41    39   am
    48    39    40    2
