@<TRIPOS>MOLECULE
1evl_TSB_A_1.pdb
 30 32 0 0 0
SMALL
GASTEIGER

@<TRIPOS>ATOM
      1  CG2       68.7110   44.9930  126.1990 C.3   2002  TSB2002     0.0376
      2  N         69.3550   46.5210  122.7680 N.3   2002  TSB2002    -0.1203
      3  CA        69.1390   45.4830  123.7540 C.3   2002  TSB2002     0.2010
      4  CB        68.6510   46.0620  125.0980 C.3   2002  TSB2002     0.1784
      5  OG1       69.4910   47.1540  125.4980 O.3   2002  TSB2002    -0.2211
      6  C         68.0810   44.5790  123.1970 C.2   2002  TSB2002     0.2824
      7  O         67.1540   45.0360  122.5400 O.2   2002  TSB2002    -0.2700
      8  N8        68.2220   43.2970  123.4520 N.am  2002  TSB2002    -0.0576
      9  S1        67.1590   42.2310  122.8980 S.3   2002  TSB2002     0.0852
     10  O1S       66.9500   42.4290  121.4520 O.3   2002  TSB2002    -0.0508
     11  O2S       67.5890   40.8910  123.3770 O.3   2002  TSB2002    -0.0508
     12  O5'       65.7760   42.6160  123.6080 O.3   2002  TSB2002    -0.2230
     13  C5'       65.7080   42.7570  125.0320 C.3   2002  TSB2002     0.2064
     14  C4'       64.5540   41.9560  125.5990 C.3   2002  TSB2002     0.1842
     15  O4'       63.3200   42.3940  124.9730 O.3   2002  TSB2002    -0.3135
     16  C3'       64.5800   40.4670  125.3210 C.3   2002  TSB2002     0.2185
     17  O3'       65.4090   39.7920  126.2690 O.3   2002  TSB2002    -0.2174
     18  C2'       63.1140   40.0710  125.4680 C.3   2002  TSB2002     0.2570
     19  O2'       62.7340   39.7960  126.8030 O.3   2002  TSB2002    -0.2130
     20  C1'       62.3960   41.3160  124.9400 C.3   2002  TSB2002     0.3186
     21  N9        61.9090   41.1460  123.5720 N.pl3 2002  TSB2002    -0.1439
     22  C8        62.6360   41.1420  122.4010 C.3   2002  TSB2002     0.3377
     23  N7        61.9130   40.9270  121.3310 N.2   2002  TSB2002    -0.2095
     24  C5        60.6190   40.7950  121.8260 C.2   2002  TSB2002     0.2526
     25  C6        59.3820   40.5440  121.1990 C.2   2002  TSB2002     0.4393
     26  N6        59.2370   40.3820  119.8820 N.pl3 2002  TSB2002     0.2180
     27  N1        58.2830   40.4690  121.9810 N.2   2002  TSB2002     0.0021
     28  C2        58.4230   40.6190  123.2980 C.3   2002  TSB2002     0.5254
     29  N3        59.5240   40.8520  124.0070 N.2   2002  TSB2002    -0.0055
     30  C4        60.6000   40.9320  123.2020 C.2   2002  TSB2002     0.3518
@<TRIPOS>BOND
     1    26    25    1
     2    25    24    1
     3    25    27    2
     4    23    24    2
     5    23    22    1
     6    10     9    1
     7    24    30    1
     8    27    28    1
     9    22    21    1
    10     7     6    2
    11     2     3    1
    12     9    11    1
    13     9     8    1
    14     9    12    1
    15     6     8   am
    16     6     3    1
    17    30    21    1
    18    30    29    2
    19    28    29    1
    20    21    20    1
    21    12    13    1
    22     3     4    1
    23    20    15    1
    24    20    18    1
    25    15    14    1
    26    13    14    1
    27     4     5    1
    28     4     1    1
    29    16    18    1
    30    16    14    1
    31    16    17    1
    32    18    19    1
