@<TRIPOS>MOLECULE
1evz_NAD_A_1.pdb
 44 48 0 0 0
SMALL
GASTEIGER

@<TRIPOS>ATOM
      1  PA        36.2260   47.3830   22.3180 P.3   400  NAD400      0.2189
      2  O1A       35.2730   48.2840   21.6030 O.2   400  NAD400     -0.5170
      3  O2A       36.0310   45.8610   22.3110 O.3   400  NAD400     -0.4371
      4  O5B       36.3670   47.9580   23.7880 O.3   400  NAD400     -0.3112
      5  C5B       35.3530   48.0650   24.8220 C.3   400  NAD400      0.1813
      6  C4B       36.0570   48.7080   25.9300 C.3   400  NAD400      0.1821
      7  O4B       35.4550   50.0030   26.2210 O.3   400  NAD400     -0.3135
      8  C3B       36.0760   47.9610   27.3140 C.3   400  NAD400      0.2184
      9  O3B       37.4040   48.1430   27.9360 O.3   400  NAD400     -0.2174
     10  C2B       34.9550   48.5730   28.0800 C.3   400  NAD400      0.2570
     11  O2B       34.8830   48.3540   29.4380 O.3   400  NAD400     -0.2130
     12  C1B       35.1560   50.0370   27.5510 C.3   400  NAD400      0.3186
     13  N9A       33.9930   50.8360   27.6570 N.pl3 400  NAD400     -0.1439
     14  C8A       32.7680   50.7750   27.0160 C.3   400  NAD400      0.3377
     15  N7A       31.9100   51.6990   27.3790 N.2   400  NAD400     -0.2095
     16  C5A       32.5660   52.4520   28.3310 C.2   400  NAD400      0.2526
     17  C6A       32.1260   53.6650   29.1430 C.2   400  NAD400      0.4393
     18  N6A       30.9580   54.2470   29.0770 N.pl3 400  NAD400      0.2180
     19  N1A       33.1430   54.1460   30.0320 N.2   400  NAD400      0.0021
     20  C2A       34.3660   53.6390   30.1850 C.3   400  NAD400      0.5254
     21  N3A       34.8020   52.5000   29.4380 N.2   400  NAD400     -0.0055
     22  C4A       33.8530   51.9360   28.5060 C.2   400  NAD400      0.3518
     23  O3        37.7270   47.6680   21.9980 O.3   400  NAD400     -0.2703
     24  PN        38.8750   47.1480   21.0020 P.3   400  NAD400      0.2189
     25  O1N       38.3310   46.1350   20.1570 O.2   400  NAD400     -0.5170
     26  O2N       40.0440   46.8410   21.8820 O.3   400  NAD400     -0.4371
     27  O5D       39.2530   48.4620   20.2090 O.3   400  NAD400     -0.3112
     28  C5D       39.1490   49.7900   20.7870 C.3   400  NAD400      0.1813
     29  C4D       40.3960   50.5840   20.6660 C.3   400  NAD400      0.1799
     30  O4D       41.4220   49.6800   19.9970 O.3   400  NAD400     -0.3327
     31  C3D       40.3720   51.7890   19.6340 C.3   400  NAD400      0.2158
     32  O3D       41.2710   52.6910   20.1320 O.3   400  NAD400     -0.2175
     33  C2D       40.7830   51.1380   18.2910 C.3   400  NAD400      0.2309
     34  O2D       41.1710   52.0630   17.3340 O.3   400  NAD400     -0.2158
     35  C1D       41.8880   50.2210   18.7990 C.3   400  NAD400      0.2263
     36  N1N       42.2750   49.0560   17.8880 N.pl3 400  NAD400     -0.2787
     37  C2N       41.4110   47.9340   17.7060 C.3   400  NAD400      0.1244
     38  C3N       41.9130   46.9700   16.8450 C.2   400  NAD400      0.0544
     39  C7N       40.8960   45.7720   16.7030 C.2   400  NAD400      0.2818
     40  O7N       41.2220   44.8250   15.9470 O.2   400  NAD400     -0.2670
     41  N7N       39.6870   45.8300   17.4250 N.am  400  NAD400     -0.0839
     42  C4N       43.1720   47.0190   16.1630 C.2   400  NAD400      0.0033
     43  C5N       43.9510   48.2160   16.4390 C.2   400  NAD400      0.0157
     44  C6N       43.5070   49.2260   17.2930 C.2   400  NAD400      0.0633
@<TRIPOS>BOND
     1    40    39    2
     2    42    43    1
     3    42    38    2
     4    43    44    2
     5    39    38    1
     6    39    41   am
     7    38    37    1
     8    44    36    1
     9    34    33    1
    10    37    36    1
    11    36    35    1
    12    33    35    1
    13    33    31    1
    14    35    30    1
    15    31    32    1
    16    31    29    1
    17    30    29    1
    18    25    24    2
    19    27    28    1
    20    27    24    1
    21    29    28    1
    22    24    26    1
    23    24    23    1
    24     2     1    2
    25    23     1    1
    26     3     1    1
    27     1     4    1
    28     4     5    1
    29     5     6    1
    30     6     7    1
    31     6     8    1
    32     7    12    1
    33    14    15    1
    34    14    13    1
    35     8     9    1
    36     8    10    1
    37    15    16    2
    38    12    13    1
    39    12    10    1
    40    13    22    1
    41    10    11    1
    42    16    22    1
    43    16    17    1
    44    22    21    2
    45    18    17    1
    46    17    19    2
    47    21    20    1
    48    19    20    1
