@<TRIPOS>MOLECULE
1ew6_HEM_A_1.pdb
 43 50 0 0 0
SMALL
GASTEIGER

@<TRIPOS>ATOM
      1 FE         28.6210   15.8260    8.3450 Fe    139  HEM139      0.0000
      2  CHA       28.5120   12.7380    6.8970 C.2   139  HEM139      0.0000
      3  CHB       27.0860   17.1730    5.5990 C.2   139  HEM139      0.0000
      4  CHC       29.1240   18.9880    9.5900 C.2   139  HEM139      0.0000
      5  CHD       30.4920   14.5670   10.8790 C.2   139  HEM139      0.0000
      6  NA        27.9290   15.0880    6.5660 N.ar  139  HEM139      0.0000
      7  C1A       27.9320   13.7690    6.1760 C.ar  139  HEM139      0.0000
      8  C2A       27.2410   13.6540    4.8860 C.ar  139  HEM139      0.0000
      9  C3A       26.8420   14.8910    4.5360 C.ar  139  HEM139      0.0000
     10  C4A       27.2710   15.8130    5.5740 C.ar  139  HEM139      0.0000
     11  CMA       26.0800   15.3110    3.2650 C.3   139  HEM139      0.0000
     12  CAA       27.0450   12.3280    4.1090 C.3   139  HEM139      0.0000
     13  CBA       28.2930   11.9920    3.2630 C.3   139  HEM139      0.0000
     14  CGA       28.0810   10.9920    2.1270 C.2   139  HEM139      0.0000
     15  O1A       28.9180   10.0190    2.0650 O.co2 139  HEM139      0.0000
     16  O2A       27.1400   11.1750    1.3610 O.co2 139  HEM139      0.0000
     17  NB        28.2020   17.7180    7.7180 N.2   139  HEM139      0.0000
     18  C1B       27.5070   18.0530    6.5610 C.2   139  HEM139      0.0000
     19  C2B       27.2990   19.4950    6.5060 C.2   139  HEM139      0.0000
     20  C3B       27.8780   20.0190    7.6270 C.2   139  HEM139      0.0000
     21  C4B       28.4350   18.9110    8.3790 C.2   139  HEM139      0.0000
     22  CMB       26.5710   20.2380    5.3730 C.3   139  HEM139      0.0000
     23  CAB       27.9730   21.4940    8.0810 C.3   139  HEM139      0.0000
     24  CBB       26.6240   22.1840    8.3630 C.3   139  HEM139      0.0000
     25  NC        29.6220   16.6100    9.9130 N.ar  139  HEM139      0.0000
     26  C1C       29.6720   17.9310   10.2920 C.ar  139  HEM139      0.0000
     27  C2C       30.4130   18.0690   11.5670 C.ar  139  HEM139      0.0000
     28  C3C       30.7880   16.8310   11.9290 C.ar  139  HEM139      0.0000
     29  C4C       30.3030   15.9220   10.9060 C.ar  139  HEM139      0.0000
     30  CMC       30.6750   19.4230   12.2870 C.3   139  HEM139      0.0000
     31  CAC       31.5850   16.3620   13.1660 C.3   139  HEM139      0.0000
     32  CBC       32.9340   17.0650   13.3890 C.3   139  HEM139      0.0000
     33  ND        29.3630   14.0300    8.7960 N.2   139  HEM139      0.0000
     34  C1D       30.0830   13.6770    9.9320 C.2   139  HEM139      0.0000
     35  C2D       30.3450   12.2550    9.9530 C.2   139  HEM139      0.0000
     36  C3D       29.8040   11.7230    8.8330 C.2   139  HEM139      0.0000
     37  C4D       29.1820   12.8330    8.1110 C.2   139  HEM139      0.0000
     38  CMD       31.1280   11.5340   11.0690 C.3   139  HEM139      0.0000
     39  CAD       29.8530   10.2420    8.4060 C.3   139  HEM139      0.0000
     40  CBD       31.3510    9.8890    8.1120 C.3   139  HEM139      0.0000
     41  CGD       31.6960    9.6430    6.6580 C.2   139  HEM139      0.0000
     42  O1D       30.9020    9.9500    5.7470 O.co2 139  HEM139      0.0000
     43  O2D       32.8300    9.1610    6.4900 O.co2 139  HEM139      0.0000
@<TRIPOS>BOND
     1    16    14   ar
     2    15    14   ar
     3    14    13    1
     4    13    12    1
     5    11     9    1
     6    12     8    1
     7     9     8   ar
     8     9    10   ar
     9     8     7   ar
    10    22    19    1
    11    10     3    2
    12    10     6   ar
    13     3    18    1
    14    42    41   ar
    15     7     6   ar
    16     7     2    2
    17    43    41   ar
    18    19    18    1
    19    19    20    2
    20    18    17    2
    21     6     1    1
    22    41    40    1
    23     2    37    1
    24    20    23    1
    25    20    21    1
    26    17     1    1
    27    17    21    1
    28    23    24    1
    29    37    33    2
    30    37    36    1
    31    40    39    1
    32     1    33    1
    33     1    25    1
    34    21     4    2
    35    39    36    1
    36    33    34    1
    37    36    35    2
    38     4    26    1
    39    25    26   ar
    40    25    29   ar
    41    34    35    1
    42    34     5    2
    43    35    38    1
    44    26    27   ar
    45     5    29    1
    46    29    28   ar
    47    27    28   ar
    48    27    30    1
    49    28    31    1
    50    31    32    1
