@<TRIPOS>MOLECULE
1ewh_HEM_A_1.pdb
 43 50 0 0 0
SMALL
GASTEIGER

@<TRIPOS>ATOM
      1 FE         20.3890   44.4290   54.8150 Fe    253  HEM253      0.0000
      2  CHA       20.0710   45.8460   51.8230 C.2   253  HEM253      0.0000
      3  CHB       23.7740   44.3840   54.4520 C.2   253  HEM253      0.0000
      4  CHC       20.7350   43.4530   57.9830 C.2   253  HEM253      0.0000
      5  CHD       17.0590   44.1900   55.0200 C.2   253  HEM253      0.0000
      6  NA        21.6590   44.9490   53.4090 N.ar  253  HEM253      0.0000
      7  C1A       21.3500   45.6320   52.2580 C.ar  253  HEM253      0.0000
      8  C2A       22.5460   46.1210   51.5770 C.ar  253  HEM253      0.0000
      9  C3A       23.5920   45.6090   52.2980 C.ar  253  HEM253      0.0000
     10  C4A       23.0320   44.8990   53.4120 C.ar  253  HEM253      0.0000
     11  CMA       25.0650   45.6320   51.8920 C.3   253  HEM253      0.0000
     12  CAA       22.5870   46.7720   50.1740 C.3   253  HEM253      0.0000
     13  CBA       22.7650   45.5880   49.2130 C.3   253  HEM253      0.0000
     14  CGA       22.7360   45.9820   47.7310 C.2   253  HEM253      0.0000
     15  O1A       23.1350   45.1520   46.8890 O.co2 253  HEM253      0.0000
     16  O2A       22.3080   47.1030   47.3980 O.co2 253  HEM253      0.0000
     17  NB        21.9060   43.9790   55.9520 N.2   253  HEM253      0.0000
     18  C1B       23.2380   43.9380   55.6480 C.2   253  HEM253      0.0000
     19  C2B       24.0540   43.4760   56.7710 C.2   253  HEM253      0.0000
     20  C3B       23.2380   43.2450   57.7410 C.2   253  HEM253      0.0000
     21  C4B       21.8880   43.5940   57.2390 C.2   253  HEM253      0.0000
     22  CMB       25.5700   43.1960   56.8560 C.3   253  HEM253      0.0000
     23  CAB       23.6000   42.6110   58.9420 C.3   253  HEM253      0.0000
     24  CBB       24.2930   43.4090   60.0030 C.3   253  HEM253      0.0000
     25  NC        19.1510   43.9770   56.2470 N.ar  253  HEM253      0.0000
     26  C1C       19.4560   43.6050   57.5100 C.ar  253  HEM253      0.0000
     27  C2C       18.2670   43.3590   58.3120 C.ar  253  HEM253      0.0000
     28  C3C       17.2020   43.5470   57.4610 C.ar  253  HEM253      0.0000
     29  C4C       17.7840   43.9410   56.1900 C.ar  253  HEM253      0.0000
     30  CMC       18.2430   43.0030   59.8290 C.3   253  HEM253      0.0000
     31  CAC       15.8230   43.3190   57.7450 C.3   253  HEM253      0.0000
     32  CBC       15.1680   44.2260   58.8180 C.3   253  HEM253      0.0000
     33  ND        18.9240   44.9090   53.6320 N.2   253  HEM253      0.0000
     34  C1D       17.5820   44.6370   53.8380 C.2   253  HEM253      0.0000
     35  C2D       16.8120   44.9890   52.6640 C.2   253  HEM253      0.0000
     36  C3D       17.6450   45.5370   51.7560 C.2   253  HEM253      0.0000
     37  C4D       18.9580   45.4840   52.3920 C.2   253  HEM253      0.0000
     38  CMD       15.2950   44.8700   52.5270 C.3   253  HEM253      0.0000
     39  CAD       17.1890   46.3090   50.4910 C.3   253  HEM253      0.0000
     40  CBD       17.0060   47.7400   50.9180 C.3   253  HEM253      0.0000
     41  CGD       16.7140   48.6980   49.7700 C.2   253  HEM253      0.0000
     42  O1D       16.8180   49.9290   49.9990 O.co2 253  HEM253      0.0000
     43  O2D       16.3800   48.2330   48.6560 O.co2 253  HEM253      0.0000
@<TRIPOS>BOND
     1    15    14   ar
     2    16    14   ar
     3    14    13    1
     4    43    41   ar
     5    13    12    1
     6    41    42   ar
     7    41    40    1
     8    12     8    1
     9    39    40    1
    10    39    36    1
    11     8     7   ar
    12     8     9   ar
    13    36    37    1
    14    36    35    2
    15     2     7    2
    16     2    37    1
    17    11     9    1
    18     7     6   ar
    19     9    10   ar
    20    37    33    2
    21    38    35    1
    22    35    34    1
    23     6    10   ar
    24     6     1    1
    25    10     3    2
    26    33    34    1
    27    33     1    1
    28    34     5    2
    29     3    18    1
    30     1    17    1
    31     1    25    1
    32     5    29    1
    33    18    17    2
    34    18    19    1
    35    17    21    1
    36    29    25   ar
    37    29    28   ar
    38    25    26   ar
    39    19    22    1
    40    19    20    2
    41    21    20    1
    42    21     4    2
    43    28    31    1
    44    28    27   ar
    45    26     4    1
    46    26    27   ar
    47    20    23    1
    48    31    32    1
    49    27    30    1
    50    23    24    1
