@<TRIPOS>MOLECULE
1ewk_GLU_A_1.pdb
 10 9 0 0 0
SMALL
GASTEIGER

@<TRIPOS>ATOM
      1  N         11.8850   12.1170   16.0200 N.3   701  GLU701     -0.1208
      2  CA        11.7220   10.6780   16.3710 C.3   701  GLU701      0.1949
      3  C         13.0790    9.9880   16.4980 C.2   701  GLU701      0.3819
      4  O         13.1110    8.7700   16.7350 O.co2 701  GLU701     -0.2441
      5  CB        10.8770    9.9760   15.3030 C.3   701  GLU701      0.0424
      6  CG         9.4080   10.3710   15.3390 C.3   701  GLU701      0.1161
      7  CD         8.6220    9.8330   14.1530 C.2   701  GLU701      0.3649
      8  OE1        8.9840   10.1670   13.0100 O.co2 701  GLU701     -0.2457
      9  OE2        7.6460    9.0840   14.3600 O.co2 701  GLU701     -0.2457
     10  OXT       14.1000   10.6710   16.3550 O.co2 701  GLU701     -0.2441
@<TRIPOS>BOND
     1     8     7   ar
     2     7     9   ar
     3     7     6    1
     4     5     6    1
     5     5     2    1
     6     1     2    1
     7    10     3   ar
     8     2     3    1
     9     3     4   ar
