@<TRIPOS>MOLECULE
1ewl_R99_A_1.pdb
 26 26 0 0 0
SMALL
GASTEIGER

@<TRIPOS>ATOM
      1  C4         4.3040   11.7830    7.1600 C.2   280  R99280      0.2728
      2  O9         4.4370   11.0180    6.2040 O.2   280  R99280     -0.2706
      3  C3         5.4780   12.0230    8.0660 C.3   280  R99280      0.2403
      4  O8         5.4840   13.3550    8.5800 O.3   280  R99280     -0.2126
      5  C2         5.5960   10.9480    9.1700 C.3   280  R99280      0.1564
      6  C1         6.7090   11.2700   10.1180 C.2   280  R99280      0.3680
      7  O6         7.9050   11.5680    9.6240 O.co2 280  R99280     -0.2455
      8  O7         6.5860   11.1410   11.3330 O.co2 280  R99280     -0.2455
      9  N5         3.0960   12.3550    7.4630 N.am  280  R99280     -0.1956
     10  C10        1.8810   12.1240    6.6500 C.3   280  R99280      0.1731
     11  C11        1.1280   10.9970    7.2740 C.2   280  R99280      0.2612
     12  O26       -0.0740   11.0330    7.5820 O.2   280  R99280     -0.2715
     13  C12        0.9870   13.3800    6.6300 C.3   280  R99280      0.0358
     14  C13        1.4500   14.4190    5.5980 C.3   280  R99280      0.0286
     15  C14        1.2550   13.9260    4.1750 C.ar  280  R99280     -0.0221
     16  C15        2.0850   14.4430    3.1690 C.ar  280  R99280     -0.0043
     17  C19        0.2660   12.9900    3.8140 C.ar  280  R99280     -0.0043
     18  C16        1.9450   14.0270    1.8340 C.ar  280  R99280     -0.0003
     19  C18        0.1280   12.5650    2.4870 C.ar  280  R99280     -0.0003
     20  C17        0.9680   13.0840    1.4930 C.ar  280  R99280     -0.0000
     21  C25       -0.2890    6.1020    5.0170 C.3   280  R99280      0.0001
     22  C23       -0.1740    6.8010    6.3580 C.3   280  R99280      0.0018
     23  C24       -1.5160    7.4770    6.6720 C.3   280  R99280      0.0001
     24  C22        0.9410    7.8340    6.2720 C.3   280  R99280      0.0234
     25  C21        1.0850    8.6140    7.5680 C.3   280  R99280      0.1152
     26  N20        1.8330    9.8340    7.2620 N.am  280  R99280     -0.2040
@<TRIPOS>BOND
     1    20    18   ar
     2    20    19   ar
     3    18    16   ar
     4    19    17   ar
     5    16    15   ar
     6    17    15   ar
     7    15    14    1
     8    21    22    1
     9    14    13    1
    10     2     1    2
    11    24    22    1
    12    24    25    1
    13    22    23    1
    14    13    10    1
    15    10    11    1
    16    10     9    1
    17     1     9   am
    18     1     3    1
    19    26    11   am
    20    26    25    1
    21    11    12    2
    22     3     4    1
    23     3     5    1
    24     5     6    1
    25     7     6   ar
    26     6     8   ar
