@<TRIPOS>MOLECULE
1ewm_RL2_A_1.pdb
 26 26 0 0 0
SMALL
GASTEIGER

@<TRIPOS>ATOM
      1  C4         4.0630   11.4530    6.9120 C.2   280  RL2280      0.2728
      2  O9         4.3260   10.8070    5.9010 O.2   280  RL2280     -0.2706
      3  C3         5.1610   11.8570    7.8630 C.3   280  RL2280      0.2403
      4  O8         4.8550   13.1400    8.4240 O.3   280  RL2280     -0.2126
      5  C2         5.4080   10.8320    8.9910 C.3   280  RL2280      0.1564
      6  C1         6.6090   11.2760    9.7980 C.2   280  RL2280      0.3680
      7  O6         6.4740   11.3050   11.1350 O.co2 280  RL2280     -0.2455
      8  O7         7.7280   11.4460    9.3240 O.co2 280  RL2280     -0.2455
      9  N5         2.7580   11.7600    7.1980 N.am  280  RL2280     -0.1956
     10  C10        1.6080   11.5290    6.2600 C.3   280  RL2280      0.1731
     11  C11        1.5260   12.6290    5.2170 C.2   280  RL2280      0.2612
     12  O26        1.6140   13.8230    5.5270 O.2   280  RL2280     -0.2715
     13  C12        0.2910   11.4630    7.0600 C.3   280  RL2280      0.0358
     14  C13        0.2660   10.2940    8.0730 C.3   280  RL2280      0.0286
     15  C14        0.1130    8.9440    7.4260 C.ar  280  RL2280     -0.0221
     16  C15        1.2390    8.1750    7.0860 C.ar  280  RL2280     -0.0043
     17  C19       -1.1580    8.5350    6.9950 C.ar  280  RL2280     -0.0043
     18  C16        1.0950    7.0290    6.2970 C.ar  280  RL2280     -0.0003
     19  C18       -1.3130    7.3940    6.1930 C.ar  280  RL2280     -0.0003
     20  C17       -0.1780    6.6470    5.8430 C.ar  280  RL2280     -0.0000
     21  C25        1.2580   14.5290    0.1290 C.3   280  RL2280      0.0001
     22  C23        1.1760   13.0100    0.2520 C.3   280  RL2280      0.0018
     23  C24        0.4500   12.4190   -0.9580 C.3   280  RL2280      0.0001
     24  C22        0.5050   12.5470    1.5660 C.3   280  RL2280      0.0234
     25  C21        1.1870   13.1530    2.8020 C.3   280  RL2280      0.1152
     26  N20        1.0920   12.2550    3.9690 N.am  280  RL2280     -0.2040
@<TRIPOS>BOND
     1    23    22    1
     2    21    22    1
     3    22    24    1
     4    24    25    1
     5    25    26    1
     6    26    11   am
     7    11    12    2
     8    11    10    1
     9    20    19   ar
    10    20    18   ar
    11     2     1    2
    12    19    17   ar
    13    10    13    1
    14    10     9    1
    15    18    16   ar
    16     1     9   am
    17     1     3    1
    18    17    15   ar
    19    13    14    1
    20    16    15   ar
    21    15    14    1
    22     3     4    1
    23     3     5    1
    24     5     6    1
    25     8     6   ar
    26     6     7   ar
