@<TRIPOS>MOLECULE
1ewo_VSC_A_1.pdb
 37 39 0 0 0
SMALL
GASTEIGER

@<TRIPOS>ATOM
      1  C22        4.0660  -11.8040    3.1490 C.2   280  VSC280      0.4219
      2  O23        4.6140  -12.8260    3.5740 O.2   280  VSC280     -0.2245
      3  O24        3.0620  -11.8110    2.2570 O.3   280  VSC280     -0.4285
      4  C25        2.5660  -13.0630    1.7810 C.3   280  VSC280      0.2368
      5  C26        1.1840  -12.9020    1.2010 C.ar  280  VSC280      0.0213
      6  C31        0.9830  -12.1690    0.0170 C.ar  280  VSC280     -0.0007
      7  C30       -0.3200  -11.8520   -0.4060 C.ar  280  VSC280     -0.0002
      8  C29       -1.4320  -12.2660    0.3440 C.ar  280  VSC280     -0.0000
      9  C28       -1.2360  -13.0090    1.5170 C.ar  280  VSC280     -0.0002
     10  C27        0.0660  -13.3290    1.9450 C.ar  280  VSC280     -0.0007
     11  N21        4.3560  -10.5540    3.6080 N.am  280  VSC280     -0.1607
     12  C13        5.3480  -10.3480    4.6900 C.3   280  VSC280      0.1804
     13  C11        4.7750  -10.8340    5.9850 C.2   280  VSC280      0.2616
     14  O12        3.6260  -10.5670    6.3580 O.2   280  VSC280     -0.2715
     15  C14        5.6490   -8.8430    4.8290 C.3   280  VSC280      0.0575
     16  C15        6.0650   -8.2030    3.5240 C.ar  280  VSC280     -0.0200
     17  C16        6.8240   -8.8750    2.5540 C.ar  280  VSC280     -0.0042
     18  C20        5.5170   -6.9500    3.2160 C.ar  280  VSC280     -0.0042
     19  C17        7.0080   -8.3100    1.2810 C.ar  280  VSC280     -0.0003
     20  C19        5.6930   -6.3860    1.9490 C.ar  280  VSC280     -0.0003
     21  C18        6.4410   -7.0680    0.9780 C.ar  280  VSC280     -0.0000
     22  C1         5.7500  -13.2110    8.5040 C.3   280  VSC280      0.0264
     23  C9         5.3610  -11.7530    8.2310 C.3   280  VSC280      0.0973
     24  C32        6.0420  -10.7430    9.1650 C.3   280  VSC280      0.0431
     25  C33        6.2700  -11.2650   10.6050 C.3   280  VSC280      0.1070
     26  S34        8.0060  -11.3420   11.0880 S.3   280  VSC280     -0.1960
     27  O37        8.2540  -12.7480   11.3460 O.3   280  VSC280     -0.3075
     28  O36        8.7120  -10.8020    9.9280 O.3   280  VSC280     -0.3075
     29  O35        8.0960  -10.4460   12.2560 O.3   280  VSC280     -0.3075
     30  N10        5.6670  -11.4070    6.8360 N.am  280  VSC280     -0.2057
     31  C2         4.9270  -14.1390    7.5930 C.3   280  VSC280      0.0281
     32  C3         5.1720  -15.5760    7.9210 C.ar  280  VSC280     -0.0221
     33  C4         6.1660  -16.2980    7.2360 C.ar  280  VSC280     -0.0043
     34  C5         6.5050  -17.5990    7.6470 C.ar  280  VSC280     -0.0003
     35  C6         5.8440  -18.1800    8.7430 C.ar  280  VSC280     -0.0000
     36  C7         4.8410  -17.4630    9.4230 C.ar  280  VSC280     -0.0003
     37  C8         4.5080  -16.1640    9.0110 C.ar  280  VSC280     -0.0043
@<TRIPOS>BOND
     1     7     6   ar
     2     7     8   ar
     3     6     5   ar
     4     8     9   ar
     5    21    19   ar
     6    21    20   ar
     7     5     4    1
     8     5    10   ar
     9    19    17   ar
    10     9    10   ar
    11     4     3    1
    12    20    18   ar
    13     3     1    1
    14    17    16   ar
    15     1     2    2
    16     1    11   am
    17    18    16   ar
    18    16    15    1
    19    11    12    1
    20    12    15    1
    21    12    13    1
    22    13    14    2
    23    13    30   am
    24    30    23    1
    25    33    34   ar
    26    33    32   ar
    27    31    32    1
    28    31    22    1
    29    34    35   ar
    30    32    37   ar
    31    23    22    1
    32    23    24    1
    33    35    36   ar
    34    37    36   ar
    35    24    25    1
    36    28    26    1
    37    25    26    1
    38    26    27    1
    39    26    29    1
