@<TRIPOS>MOLECULE
1ewp_0I5_A_1.pdb
 22 22 0 0 0
SMALL
GASTEIGER

@<TRIPOS>ATOM
      1  O1         0.8830   14.6770    2.2080 O.3   280  0I5280     -0.3501
      2  C2         1.4140   13.2830    2.2380 C.3   280  0I5280      0.1637
      3  C3         1.0540   12.7020    3.5590 C.3   280  0I5280      0.1271
      4  N4         1.4650   13.5940    4.6480 N.am  280  0I5280     -0.2577
      5  C5         1.3850   15.0090    4.5130 C.3   280  0I5280      0.1271
      6  C6         1.6020   15.5400    3.1250 C.3   280  0I5280      0.1637
      7  C          1.9870   13.1350    5.8340 C.2   280  0I5280      0.3238
      8  O          2.3130   13.9540    6.7430 O.2   280  0I5280     -0.2508
      9  N          2.1520   11.7080    6.0280 N.am  280  0I5280     -0.1808
     10  CA         2.7100   11.1950    7.2560 C.3   280  0I5280      0.1743
     11  C1         4.1810   11.6180    7.3100 C.2   280  0I5280      0.2616
     12  O2         4.9590   11.2910    6.4090 O.2   280  0I5280     -0.2715
     13  CB         2.5560    9.6640    7.2570 C.3   280  0I5280      0.0312
     14  CG         1.2600    8.9610    7.7500 C.3   280  0I5280      0.0022
     15  CD1        0.0360    9.8480    7.7060 C.3   280  0I5280      0.0001
     16  CD2        1.0800    7.7210    6.9010 C.3   280  0I5280      0.0001
     17  N1         4.5610   12.3850    8.3490 N.am  280  0I5280     -0.1982
     18  CA1        5.9380   12.8620    8.4630 C.3   280  0I5280      0.1524
     19  C4         6.6910   11.9590    9.4350 C.2   280  0I5280      0.1707
     20  O3         7.9100   12.0220    9.4600 O.2   280  0I5280     -0.2943
     21  CB1        5.9570   14.2900    8.9710 C.3   280  0I5280      0.0314
     22  CM         6.1410   10.7980   10.2530 C.3   280  0I5280      0.0741
@<TRIPOS>BOND
     1     1     2    1
     2     1     6    1
     3     2     3    1
     4     6     5    1
     5     3     4    1
     6     5     4    1
     7     4     7   am
     8     7     9   am
     9     7     8    2
    10     9    10    1
    11    12    11    2
    12    16    14    1
    13    10    13    1
    14    10    11    1
    15    13    14    1
    16    11    17   am
    17    15    14    1
    18    17    18    1
    19    18    21    1
    20    18    19    1
    21    19    20    2
    22    19    22    1
