@<TRIPOS>MOLECULE
1ex1_GLC_A_1.pdb
 11 11 0 0 0
SMALL
GASTEIGER

@<TRIPOS>ATOM
      1  C1        25.2580   26.9480   36.5650 C.3   617  GLC617      0.1777
      2  C2        24.3420   25.9930   37.3990 C.3   617  GLC617      0.2141
      3  C3        23.7600   24.8370   36.6350 C.3   617  GLC617      0.2173
      4  C4        23.1150   25.3020   35.3370 C.3   617  GLC617      0.2142
      5  C5        24.2380   25.9560   34.4900 C.3   617  GLC617      0.1810
      6  C6        23.6860   26.3770   33.1170 C.3   617  GLC617      0.2141
      7  O2        25.1270   25.3950   38.4400 O.3   617  GLC617     -0.2176
      8  O3        22.6420   24.2560   37.3100 O.3   617  GLC617     -0.2175
      9  O4        22.5960   24.2510   34.4040 O.3   617  GLC617     -0.2176
     10  O5        24.5950   27.1010   35.2490 O.3   617  GLC617     -0.3481
     11  O6        23.1530   27.8430   33.1470 O.3   617  GLC617     -0.2176
@<TRIPOS>BOND
     1     6    11    1
     2     6     5    1
     3     9     4    1
     4     5    10    1
     5     5     4    1
     6    10     1    1
     7     4     3    1
     8     1     2    1
     9     3     8    1
    10     3     2    1
    11     2     7    1
