@<TRIPOS>MOLECULE
1ex1_NAG_A_1.pdb
 14 14 0 0 0
SMALL
GASTEIGER

@<TRIPOS>ATOM
      1  C1        34.3750   27.0720   51.1020 C.3   610  NAG610      0.1665
      2  C2        35.5440   26.8580   50.1420 C.3   610  NAG610      0.1576
      3  C3        36.8250   27.3970   50.7200 C.3   610  NAG610      0.2069
      4  C4        36.6000   28.9170   50.8440 C.3   610  NAG610      0.2134
      5  C5        35.4130   29.1390   51.8140 C.3   610  NAG610      0.1809
      6  C6        35.0440   30.6250   51.8170 C.3   610  NAG610      0.2141
      7  C7        35.4830   24.8280   48.7220 C.2   610  NAG610      0.2420
      8  C8        35.7480   23.3740   48.6750 C.3   610  NAG610      0.0964
      9  N2        35.7270   25.4000   49.9220 N.am  610  NAG610     -0.2019
     10  O3        37.9520   27.1110   49.9010 O.3   610  NAG610     -0.2184
     11  O4        37.7690   29.5610   51.3850 O.3   610  NAG610     -0.2176
     12  O5        34.2380   28.4600   51.4170 O.3   610  NAG610     -0.3489
     13  O6        34.0450   30.7620   52.7920 O.3   610  NAG610     -0.2176
     14  O7        35.0840   25.4700   47.8610 O.2   610  NAG610     -0.2733
@<TRIPOS>BOND
     1    14     7    2
     2     8     7    1
     3     7     9   am
     4    10     3    1
     5     9     2    1
     6     2     3    1
     7     2     1    1
     8     3     4    1
     9     4    11    1
    10     4     5    1
    11     1    12    1
    12    12     5    1
    13     5     6    1
    14     6    13    1
