@<TRIPOS>MOLECULE
1ex7_5GP_A_1.pdb
 24 26 0 0 0
SMALL
GASTEIGER

@<TRIPOS>ATOM
      1  P         29.9890   44.4020   69.9320 P.3   187  5GP187      0.5327
      2  O1P       28.6120   44.7950   69.3880 O.3   187  5GP187     -0.1145
      3  O2P       31.0120   44.4670   68.9670 O.2   187  5GP187     -0.2224
      4  O3P       30.2960   44.9300   71.2260 O.3   187  5GP187     -0.1145
      5  O5'       29.7180   42.9390   70.1180 O.3   187  5GP187     -0.2675
      6  C5'       30.8120   42.1610   70.8220 C.3   187  5GP187      0.1859
      7  C4'       30.5800   40.6250   70.7150 C.3   187  5GP187      0.1801
      8  O4'       29.4740   40.1810   71.6030 O.3   187  5GP187     -0.3326
      9  C3'       30.3850   40.0040   69.2910 C.3   187  5GP187      0.2158
     10  O3'       31.0570   38.7310   69.2990 O.3   187  5GP187     -0.2175
     11  C2'       28.8910   39.7980   69.2490 C.3   187  5GP187      0.2310
     12  O2'       28.3870   38.6900   68.4610 O.3   187  5GP187     -0.2158
     13  C1'       28.5260   39.5580   70.7040 C.3   187  5GP187      0.2293
     14  N9        27.1640   39.5430   71.1880 N.pl3 187  5GP187     -0.2354
     15  C8        26.2730   40.5600   70.9580 C.3   187  5GP187      0.2246
     16  N7        25.1120   40.3530   71.5330 N.2   187  5GP187     -0.2322
     17  C5        25.1790   39.0770   72.1180 C.2   187  5GP187      0.2182
     18  C6        24.1990   38.3360   72.8320 C.1   187  5GP187      0.2372
     19  O6        23.0620   38.7270   73.0740 O.2   187  5GP187     -0.2069
     20  N1        24.7300   37.1880   73.3370 N.2   187  5GP187     -0.2485
     21  C2        26.0000   36.7420   73.1720 C.1   187  5GP187      0.2531
     22  N2        26.3200   35.5050   73.6340 N.pl3 187  5GP187     -0.0226
     23  N3        26.8940   37.3470   72.3750 N.2   187  5GP187     -0.3074
     24  C4        26.4710   38.5490   71.9000 C.2   187  5GP187      0.2300
@<TRIPOS>BOND
     1    12    11    1
     2     3     1    2
     3    11     9    1
     4    11    13    1
     5     9    10    1
     6     9     7    1
     7     2     1    1
     8     1     5    1
     9     1     4    1
    10     5     6    1
    11    13    14    1
    12    13     8    1
    13     7     6    1
    14     7     8    1
    15    15    14    1
    16    15    16    1
    17    14    24    1
    18    16    17    2
    19    24    17    1
    20    24    23    2
    21    17    18    1
    22    23    21    2
    23    18    19    2
    24    18    20    2
    25    21    20    2
    26    21    22    1
