@<TRIPOS>MOLECULE
1ex8_A4P_A_1.pdb
 48 52 0 0 0
SMALL
GASTEIGER

@<TRIPOS>ATOM
      1  N9R       -1.7310   16.0200   21.7450 N.pl3 171  A4P171     -0.1439
      2  C8R       -3.0080   16.6490   21.6610 C.3   171  A4P171      0.3377
      3  N7R       -3.4210   16.9220   20.4500 N.2   171  A4P171     -0.2095
      4  C5R       -2.3380   16.4400   19.6670 C.2   171  A4P171      0.2526
      5  C6R       -2.2440   16.4790   18.2430 C.2   171  A4P171      0.4393
      6  N6R       -3.0750   16.9340   17.4080 N.pl3 171  A4P171      0.2180
      7  N1R       -1.0140   15.9120   17.6700 N.2   171  A4P171      0.0021
      8  C1R       -1.2500   15.5810   23.0850 C.3   171  A4P171      0.3186
      9  C2R       -0.1020   15.4180   18.4980 C.3   171  A4P171      0.5254
     10  N3R       -0.1220   15.3450   19.8910 N.2   171  A4P171     -0.0055
     11  C4R       -1.3120   15.8940   20.4340 C.2   171  A4P171      0.3518
     12  O5'        2.3380   17.0560   23.4850 O.3   171  A4P171     -0.3112
     13  C5'        1.6790   16.7480   24.7970 C.3   171  A4P171      0.1813
     14  C4'        0.5240   15.8640   24.4950 C.3   171  A4P171      0.1821
     15  O4'       -0.3830   16.5520   23.6040 O.3   171  A4P171     -0.3135
     16  C3'        0.8110   14.6060   23.7740 C.3   171  A4P171      0.2184
     17  O3'        1.3240   13.6040   24.6130 O.3   171  A4P171     -0.2174
     18  C2'       -0.5260   14.2430   23.1430 C.3   171  A4P171      0.2570
     19  O2'       -1.2610   13.3050   23.9740 O.3   171  A4P171     -0.2130
     20  PA         3.7310   17.8470   23.4590 P.3   171  A4P171      0.2189
     21  O1A        3.9010   18.2160   22.0280 O.2   171  A4P171     -0.5170
     22  O2A        4.8890   17.0530   24.0220 O.3   171  A4P171     -0.4371
     23  O3A        3.5030   19.0320   24.4170 O.3   171  A4P171     -0.2701
     24  PB         2.8520   20.4420   23.8710 P.3   171  A4P171      0.2237
     25  O1B        1.8550   21.0080   24.8500 O.3   171  A4P171     -0.4369
     26  O2B        2.4680   20.3340   22.4200 O.2   171  A4P171     -0.5168
     27  O3B        4.1320   21.4660   23.9990 O.3   171  A4P171     -0.2699
     28  PG         5.0020   21.8470   22.8690 P.3   171  A4P171      0.2237
     29  O1G        5.1370   20.6910   21.8740 O.2   171  A4P171     -0.5168
     30  O2G        6.2980   22.3010   23.4610 O.3   171  A4P171     -0.4369
     31  O3G        4.2720   23.0140   22.1020 O.3   171  A4P171     -0.2701
     32  PD         3.6820   22.8740   20.6100 P.3   171  A4P171      0.2192
     33  O1D        2.5470   23.8750   20.5950 O.3   171  A4P171     -0.4371
     34  O2D        3.0600   21.4940   20.5880 O.2   171  A4P171     -0.5170
     35  O3D        4.7040   22.9970   19.5230 O.3   171  A4P171     -0.3065
     36  N1         8.2990   26.8220   16.1330 N.2   171  A4P171     -0.2672
     37  C2         8.4940   26.5050   14.8620 C.1   171  A4P171      0.2609
     38  N2         9.0220   27.3200   13.9810 N.pl3 171  A4P171     -0.0220
     39  N3         8.1040   25.2110   14.4510 N.2   171  A4P171     -0.2466
     40  C4         7.5350   24.2300   15.2420 C.1   171  A4P171      0.2569
     41  O4         7.2480   23.1100   14.6830 O.2   171  A4P171     -0.2052
     42  N5         6.7560   23.7080   17.5800 N.2   171  A4P171     -0.3831
     43  C6         6.6010   24.1460   18.8770 C.2   171  A4P171      0.1441
     44  C6A        6.0120   23.2660   19.9040 C.3   171  A4P171      0.2051
     45  C7         7.0160   25.5340   19.3350 C.3   171  A4P171      0.1939
     46  N8         7.5430   26.2680   18.3330 N.2   171  A4P171     -0.1992
     47  C9         7.7490   25.9570   17.0270 C.1   171  A4P171      0.1401
     48  C10        7.3260   24.5910   16.6350 C.2   171  A4P171      0.2989
@<TRIPOS>BOND
     1    38    37    1
     2    39    37    2
     3    39    40    2
     4    41    40    2
     5    37    36    2
     6    40    48    1
     7    36    47    2
     8    48    47    1
     9    48    42    2
    10    47    46    2
    11     6     5    1
    12    42    43    2
    13     7     5    2
    14     7     9    1
    15     5     4    1
    16    46    45    1
    17     9    10    1
    18    43    45    1
    19    43    44    1
    20    35    44    1
    21    35    32    1
    22     4    11    1
    23     4     3    2
    24    10    11    2
    25    11     1    1
    26     3     2    1
    27    34    32    2
    28    33    32    1
    29    32    31    1
    30     2     1    1
    31     1     8    1
    32    29    28    2
    33    21    20    2
    34    31    28    1
    35    26    24    2
    36    28    30    1
    37    28    27    1
    38     8    18    1
    39     8    15    1
    40    18    16    1
    41    18    19    1
    42    20    12    1
    43    20    22    1
    44    20    23    1
    45    12    13    1
    46    15    14    1
    47    16    14    1
    48    16    17    1
    49    24    27    1
    50    24    23    1
    51    24    25    1
    52    14    13    1
