@<TRIPOS>MOLECULE
1ex9_OCP_A_1.pdb
 38 37 0 0 0
SMALL
GASTEIGER

@<TRIPOS>ATOM
      1  P1         0.5970   -1.0870   45.0760 P.3   382  OCP382      0.2201
      2  O1         1.1510   -2.0250   46.2280 O.3   382  OCP382     -0.3133
      3  O4         0.9700    0.3190   45.1170 O.3   382  OCP382     -0.1774
      4  O5         3.6700   -2.6100   49.0390 O.3   382  OCP382     -0.4307
      5  O6         3.0600   -1.2020   50.9770 O.2   382  OCP382     -0.2246
      6  O3         0.4510   -2.7530   50.1950 O.3   382  OCP382     -0.4295
      7  O7        -1.9780   -3.4090   49.9360 O.2   382  OCP382     -0.2246
      8  C1         2.3570   -1.7690   47.0810 C.3   382  OCP382      0.1960
      9  C2         2.2540   -2.0640   48.5850 C.3   382  OCP382      0.2437
     10  C3         1.1690   -3.1690   48.9950 C.3   382  OCP382      0.2561
     11  C4        -1.0320   -0.8630   44.6270 C.3   382  OCP382      0.0809
     12  C5        -1.4310   -2.3750   44.4920 C.3   382  OCP382      0.0095
     13  C6        -3.0670   -2.4660   44.3870 C.3   382  OCP382      0.0005
     14  C7        -3.7740   -1.9570   45.6560 C.3   382  OCP382      0.0000
     15  C8        -4.7850   -2.6010   46.5560 C.3   382  OCP382      0.0000
     16  C9        -5.6930   -1.5310   47.3170 C.3   382  OCP382      0.0000
     17  C10       -5.7250   -2.3130   48.6850 C.3   382  OCP382      0.0000
     18  C11       -5.8190   -1.3330   50.0840 C.3   382  OCP382      0.0000
     19  C12       -0.7590   -3.3580   50.4650 C.2   382  OCP382      0.4212
     20  N1        -0.5480   -4.2000   51.8190 N.am  382  OCP382     -0.1687
     21  C13       -1.4520   -3.6570   53.1190 C.3   382  OCP382      0.1187
     22  C14       -1.1110   -4.7610   54.1770 C.3   382  OCP382      0.0235
     23  C15       -1.7440   -4.1060   55.3150 C.3   382  OCP382      0.0018
     24  C16       -2.5930   -4.1760   56.4120 C.3   382  OCP382      0.0001
     25  C17       -2.7340   -4.9010   57.7340 C.3   382  OCP382      0.0000
     26  C18       -1.7380   -4.4470   58.8030 C.3   382  OCP382      0.0000
     27  C19       -2.8380   -3.7420   59.5970 C.3   382  OCP382      0.0000
     28  C20       -2.3120   -3.0380   60.8940 C.3   382  OCP382      0.0000
     29  C22        3.8390   -2.0130   50.3680 C.2   382  OCP382      0.4212
     30  N2         4.9590   -2.2210   51.2340 N.am  382  OCP382     -0.1687
     31  C23        5.7760   -3.4420   52.2560 C.3   382  OCP382      0.1187
     32  C24        6.1570   -3.4630   53.6720 C.3   382  OCP382      0.0235
     33  C25        7.4350   -4.0100   53.4380 C.3   382  OCP382      0.0018
     34  C26        8.2030   -4.0910   54.8090 C.3   382  OCP382      0.0001
     35  C27        8.2300   -5.6300   55.0280 C.3   382  OCP382      0.0000
     36  C28        8.8140   -6.0400   56.3650 C.3   382  OCP382      0.0000
     37  C29        7.5280   -6.1970   57.2600 C.3   382  OCP382      0.0000
     38  C30        8.1310   -6.6600   58.7810 C.3   382  OCP382      0.0000
@<TRIPOS>BOND
     1    13    12    1
     2    13    14    1
     3    12    11    1
     4    11     1    1
     5     1     3    1
     6     1     2    1
     7    14    15    1
     8     2     8    1
     9    15    16    1
    10     8     9    1
    11    16    17    1
    12     9    10    1
    13     9     4    1
    14    17    18    1
    15    10     6    1
    16     4    29    1
    17     7    19    2
    18     6    19    1
    19    29     5    2
    20    29    30   am
    21    19    20   am
    22    30    31    1
    23    20    21    1
    24    31    32    1
    25    21    22    1
    26    33    32    1
    27    33    34    1
    28    22    23    1
    29    34    35    1
    30    35    36    1
    31    23    24    1
    32    36    37    1
    33    24    25    1
    34    37    38    1
    35    25    26    1
    36    26    27    1
    37    27    28    1
