@<TRIPOS>MOLECULE
1exa_394_A_1.pdb
 29 31 0 0 0
SMALL
GASTEIGER

@<TRIPOS>ATOM
      1  C1        37.4110   16.5730   86.2330 C.ar  450  394450      0.1555
      2  C2        36.5280   17.5470   86.7160 C.ar  450  394450      0.0376
      3  C3        35.6190   17.1560   87.7140 C.ar  450  394450      0.0821
      4  C4        35.6250   15.8090   88.2730 C.ar  450  394450      0.0081
      5  C5        36.5690   14.8840   87.7220 C.ar  450  394450      0.0191
      6  C6        37.4410   15.2370   86.6830 C.ar  450  394450      0.1008
      7  C7        34.6170   18.0930   88.1940 C.2   450  394450      0.3878
      8  C8        41.0930   13.0980   82.5650 C.ar  450  394450     -0.0059
      9  C9        40.6340   13.5240   83.8140 C.ar  450  394450      0.0163
     10  C10       41.3210   14.6000   84.4770 C.ar  450  394450     -0.0017
     11  C11       42.4240   15.1680   83.8940 C.ar  450  394450     -0.0048
     12  C12       42.9010   14.7440   82.6510 C.ar  450  394450     -0.0268
     13  C13       44.1840   15.4010   82.1450 C.3   450  394450      0.0186
     14  C14       44.3920   15.0580   80.6620 C.3   450  394450      0.0044
     15  C15       44.1050   13.6290   80.2440 C.3   450  394450      0.0044
     16  C16       42.6900   13.1920   80.6460 C.3   450  394450      0.0186
     17  C17       42.2220   13.6980   81.9690 C.ar  450  394450     -0.0270
     18  C18       41.7490   13.6950   79.5350 C.3   450  394450      0.0044
     19  C19       42.7160   11.6460   80.6760 C.3   450  394450      0.0044
     20  C20       44.1930   16.8980   82.1940 C.3   450  394450      0.0044
     21  C21       45.4470   15.0300   82.9150 C.3   450  394450      0.0044
     22  C22       39.4260   12.8950   84.4660 C.3   450  394450      0.2516
     23  C23       38.3830   14.0000   84.8530 C.2   450  394450      0.2804
     24  N6        38.3320   14.2560   86.1780 N.am  450  394450     -0.1745
     25  F1        38.3800   16.9090   85.3560 F     450  394450     -0.2028
     26  O22       39.8040   12.1480   85.6700 O.3   450  394450     -0.2083
     27  O23       37.6870   14.5380   83.9940 O.2   450  394450     -0.2699
     28  O71       34.4300   19.1460   87.5240 O.co2 450  394450     -0.2406
     29  O72       33.9090   17.7530   89.1750 O.co2 450  394450     -0.2406
@<TRIPOS>BOND
     1    18    16    1
     2    15    16    1
     3    15    14    1
     4    16    19    1
     5    16    17    1
     6    14    13    1
     7    17     8   ar
     8    17    12   ar
     9    13    20    1
    10    13    12    1
    11    13    21    1
    12     8     9   ar
    13    12    11   ar
    14     9    22    1
    15     9    10   ar
    16    11    10   ar
    17    27    23    2
    18    22    23    1
    19    22    26    1
    20    23    24   am
    21    25     1    1
    22    24     6    1
    23     1     6   ar
    24     1     2   ar
    25     6     5   ar
    26     2     3   ar
    27    28     7   ar
    28     3     7    1
    29     3     4   ar
    30     5     4   ar
    31     7    29   ar
