@<TRIPOS>MOLECULE
1exb_NDP_A_1.pdb
 48 52 0 0 0
SMALL
GASTEIGER

@<TRIPOS>ATOM
      1  PA        17.3810   14.4240   20.9530 P.3   1000  NDP1000     0.2189
      2  O1A       15.9550   14.0430   20.9770 O.2   1000  NDP1000    -0.5170
      3  O2A       18.0850   14.3490   22.2650 O.3   1000  NDP1000    -0.4371
      4  O5B       18.2040   13.5350   19.8890 O.3   1000  NDP1000    -0.3112
      5  C5B       17.6350   13.5200   18.5170 C.3   1000  NDP1000     0.1813
      6  C4B       18.8290   13.0990   17.6140 C.3   1000  NDP1000     0.1820
      7  O4B       19.0210   11.7160   17.9130 O.3   1000  NDP1000    -0.3136
      8  C3B       18.5190   13.2060   16.0710 C.3   1000  NDP1000     0.2157
      9  O3B       18.9330   14.4460   15.5540 O.3   1000  NDP1000    -0.2175
     10  C2B       19.2380   11.8810   15.5740 C.3   1000  NDP1000     0.2314
     11  O2B       20.6320   11.9410   15.3280 O.3   1000  NDP1000    -0.2630
     12  C1B       19.0080   10.9620   16.7230 C.3   1000  NDP1000     0.3158
     13  N9A       17.7720   10.1900   16.7510 N.pl3 1000  NDP1000    -0.1439
     14  C8A       16.4760   10.6280   16.9470 C.3   1000  NDP1000     0.3377
     15  N7A       15.5890    9.6750   16.9770 N.2   1000  NDP1000    -0.2095
     16  C5A       16.3310    8.5510   16.8110 C.2   1000  NDP1000     0.2526
     17  C6A       15.9310    7.1850   16.7510 C.2   1000  NDP1000     0.4393
     18  N6A       14.6370    6.8840   16.8930 N.pl3 1000  NDP1000     0.2180
     19  N1A       16.9240    6.2350   16.5540 N.2   1000  NDP1000     0.0021
     20  C2A       18.2480    6.6630   16.4150 C.3   1000  NDP1000     0.5254
     21  N3A       18.7010    7.9150   16.4520 N.2   1000  NDP1000    -0.0055
     22  C4A       17.6770    8.8160   16.6650 C.2   1000  NDP1000     0.3518
     23  O3        17.6430   15.6830   20.2490 O.3   1000  NDP1000    -0.2703
     24  PN        17.8970   17.1810   20.0150 P.3   1000  NDP1000     0.2189
     25  O1N       17.6130   17.6340   18.6240 O.2   1000  NDP1000    -0.5170
     26  O2N       18.8100   17.8990   20.9000 O.3   1000  NDP1000    -0.4371
     27  O5D       16.7200   17.7960   20.9820 O.3   1000  NDP1000    -0.3112
     28  C5D       16.8950   19.2190   20.8340 C.3   1000  NDP1000     0.1813
     29  C4D       15.5930   19.9040   20.4390 C.3   1000  NDP1000     0.1799
     30  O4D       15.0560   20.5200   21.6330 O.3   1000  NDP1000    -0.3327
     31  C3D       15.8430   21.0020   19.3960 C.3   1000  NDP1000     0.2158
     32  O3D       15.1070   20.6880   18.2340 O.3   1000  NDP1000    -0.2175
     33  C2D       15.3990   22.3040   20.1250 C.3   1000  NDP1000     0.2309
     34  O2D       14.1330   22.7510   19.6330 O.3   1000  NDP1000    -0.2158
     35  C1D       15.3660   21.9540   21.6080 C.3   1000  NDP1000     0.2263
     36  N1N       16.6870   22.3560   22.3240 N.pl3 1000  NDP1000    -0.2787
     37  C2N       16.5410   23.4690   23.2160 C.3   1000  NDP1000     0.1244
     38  C3N       17.7360   23.9890   23.7720 C.2   1000  NDP1000     0.0544
     39  C7N       17.6090   25.2260   24.7350 C.2   1000  NDP1000     0.2818
     40  O7N       18.6330   25.6390   25.2550 O.2   1000  NDP1000    -0.2670
     41  N7N       16.3640   25.7570   24.9130 N.am  1000  NDP1000    -0.0839
     42  C4N       19.0700   23.4810   23.5170 C.2   1000  NDP1000     0.0033
     43  C5N       19.0700   22.3850   22.5920 C.2   1000  NDP1000     0.0157
     44  C6N       17.9790   21.8460   21.9920 C.2   1000  NDP1000     0.0633
     45  P2B       21.2320   12.0370   13.7550 P.3   1000  NDP1000     0.5328
     46  O1X       22.6480   11.7720   14.1540 O.3   1000  NDP1000    -0.1145
     47  O2X       20.5240   10.9200   13.0840 O.2   1000  NDP1000    -0.2224
     48  O3X       20.9200   13.3550   13.2440 O.3   1000  NDP1000    -0.1145
@<TRIPOS>BOND
     1    47    45    2
     2    48    45    1
     3    45    46    1
     4    45    11    1
     5    11    10    1
     6     9     8    1
     7    10     8    1
     8    10    12    1
     9     8     6    1
    10    20    21    1
    11    20    19    1
    12    21    22    2
    13    19    17    2
    14    22    13    1
    15    22    16    1
    16    12    13    1
    17    12     7    1
    18    13    14    1
    19    17    16    1
    20    17    18    1
    21    16    15    2
    22    14    15    1
    23     6     7    1
    24     6     5    1
    25    32    31    1
    26     5     4    1
    27    25    24    2
    28    31    33    1
    29    31    29    1
    30    34    33    1
    31     4     1    1
    32    24    23    1
    33    24    26    1
    34    24    27    1
    35    33    35    1
    36    23     1    1
    37    29    28    1
    38    29    30    1
    39    28    27    1
    40     1     2    2
    41     1     3    1
    42    35    30    1
    43    35    36    1
    44    44    36    1
    45    44    43    2
    46    36    37    1
    47    43    42    1
    48    37    38    1
    49    42    38    2
    50    38    39    1
    51    39    41   am
    52    39    40    2
