@<TRIPOS>MOLECULE
1exc_DUT_A_1.pdb
 28 29 0 0 0
SMALL
GASTEIGER

@<TRIPOS>ATOM
      1  N1         4.6660  -15.8480   37.9670 N.am  201  DUT201     -0.1790
      2  C2         5.2210  -14.6550   38.4080 C.1   201  DUT201      0.2844
      3  N3         6.0150  -14.7640   39.5230 N.2   201  DUT201     -0.2452
      4  C4         6.3050  -15.9190   40.2290 C.1   201  DUT201      0.2182
      5  C5         5.6990  -17.1100   39.7060 C.2   201  DUT201      0.1242
      6  C6         4.9210  -17.0340   38.6190 C.2   201  DUT201      0.0928
      7  O2         5.0200  -13.5830   37.8530 O.2   201  DUT201     -0.1918
      8  O4         7.0090  -15.8520   41.2420 O.2   201  DUT201     -0.2085
      9  C1'        3.7930  -15.8030   36.7850 C.3   201  DUT201      0.2090
     10  C2'        4.2540  -16.6970   35.6440 C.3   201  DUT201      0.0874
     11  C3'        2.9520  -17.1000   34.9750 C.3   201  DUT201      0.1857
     12  C4'        1.9390  -17.0940   36.1210 C.3   201  DUT201      0.1773
     13  O4'        2.5180  -16.2850   37.1760 O.3   201  DUT201     -0.3339
     14  O3'        2.6100  -16.0770   34.0510 O.3   201  DUT201     -0.2203
     15  C5'        1.5570  -18.4500   36.6790 C.3   201  DUT201      0.1812
     16  O5'        0.5770  -18.2970   37.7390 O.3   201  DUT201     -0.3112
     17  PA         1.0160  -17.8020   39.2280 P.3   201  DUT201      0.2189
     18  O1A        0.0020  -18.3410   40.1640 O.3   201  DUT201     -0.4371
     19  O2A        2.4400  -18.1650   39.3700 O.2   201  DUT201     -0.5170
     20  O3A        0.9580  -16.1620   39.3160 O.3   201  DUT201     -0.2700
     21  PB        -0.2140  -15.0860   39.7230 P.3   201  DUT201      0.2277
     22  O1B        0.2820  -13.7190   39.4780 O.2   201  DUT201     -0.5168
     23  O2B       -0.7250  -15.4720   41.0640 O.3   201  DUT201     -0.4368
     24  O3B       -1.4030  -15.3260   38.6360 O.3   201  DUT201     -0.2258
     25  PG        -1.3220  -15.5160   37.0230 P.3   201  DUT201      0.5373
     26  O1G        0.1350  -15.2480   36.7130 O.3   201  DUT201     -0.1143
     27  O2G       -1.7290  -16.9500   36.7460 O.3   201  DUT201     -0.1143
     28  O3G       -2.2710  -14.4930   36.4340 O.2   201  DUT201     -0.2221
@<TRIPOS>BOND
     1    14    11    1
     2    11    10    1
     3    11    12    1
     4    10     9    1
     5    12    15    1
     6    12    13    1
     7    28    25    2
     8    15    16    1
     9    26    25    1
    10    27    25    1
    11     9    13    1
    12     9     1    1
    13    25    24    1
    14    16    17    1
    15     7     2    2
    16     1     2   am
    17     1     6    1
    18     2     3    2
    19     6     5    2
    20    24    21    1
    21    17    20    1
    22    17    19    2
    23    17    18    1
    24    20    21    1
    25    22    21    2
    26     3     4    2
    27     5     4    1
    28    21    23    1
    29     4     8    2
