@<TRIPOS>MOLECULE
1exd_A_A_1.pdb
 22 24 0 0 0
SMALL
GASTEIGER

@<TRIPOS>ATOM
      1  P         46.0860   27.6220   14.8460 P.3   998  A998        0.3942
      2  OP1       46.6380   26.5030   14.0440 O.3   998  A998       -0.1425
      3  OP2       46.5120   27.7900   16.2570 O.3   998  A998       -0.1425
      4  O5'       44.4930   27.5110   14.7950 O.3   998  A998       -0.2926
      5  C5'       43.7470   28.0340   13.6710 C.3   998  A998        0.1831
      6  C4'       42.3120   28.3040   14.0620 C.3   998  A998        0.1822
      7  O4'       41.6960   27.0570   14.4690 O.3   998  A998       -0.3135
      8  C3'       42.0780   29.2170   15.2610 C.3   998  A998        0.2184
      9  O3'       42.1430   30.6000   14.9130 O.3   998  A998       -0.2174
     10  C2'       40.6650   28.8260   15.6970 C.3   998  A998        0.2570
     11  O2'       39.6330   29.4280   14.9310 O.3   998  A998       -0.2130
     12  C1'       40.6730   27.3210   15.4250 C.3   998  A998        0.3186
     13  N9        40.9190   26.5190   16.6220 N.pl3 998  A998       -0.1439
     14  C8        42.1150   26.0870   17.1250 C.3   998  A998        0.3377
     15  N7        42.0030   25.3670   18.2110 N.2   998  A998       -0.2095
     16  C5        40.6390   25.3290   18.4430 C.2   998  A998        0.2526
     17  C6        39.8700   24.7170   19.4430 C.2   998  A998        0.4393
     18  N6        40.3950   23.9980   20.4490 N.pl3 998  A998        0.2180
     19  N1        38.5270   24.8710   19.3810 N.2   998  A998        0.0021
     20  C2        38.0110   25.5920   18.3810 C.3   998  A998        0.5254
     21  N3        38.6320   26.2110   17.3870 N.2   998  A998       -0.0055
     22  C4        39.9600   26.0380   17.4750 C.2   998  A998        0.3518
@<TRIPOS>BOND
     1     5     6    1
     2     5     4    1
     3     2     1    1
     4     6     7    1
     5     6     8    1
     6     7    12    1
     7     4     1    1
     8     1     3    1
     9     9     8    1
    10    11    10    1
    11     8    10    1
    12    12    10    1
    13    12    13    1
    14    13    14    1
    15    13    22    1
    16    14    15    1
    17    21    22    2
    18    21    20    1
    19    22    16    1
    20    15    16    2
    21    20    19    1
    22    16    17    1
    23    19    17    2
    24    17    18    1
