@<TRIPOS>MOLECULE
1exi_118_A_1.pdb
 25 27 0 0 0
SMALL
GASTEIGER

@<TRIPOS>ATOM
      1 SB         51.3020   85.6520  138.6120 Sb    502  118502      0.0000
      2  C1A       52.0270   84.1360  139.0460 C.ar  502  118502      0.0000
      3  C2A       52.0550   83.0500  138.1480 C.ar  502  118502      0.0000
      4  C3A       52.6220   81.8680  138.4990 C.ar  502  118502      0.0000
      5  C4A       53.1760   81.7390  139.7640 C.ar  502  118502      0.0000
      6  C5A       53.1470   82.8450  140.6850 C.ar  502  118502      0.0000
      7  C6A       52.5770   84.0170  140.3130 C.ar  502  118502      0.0000
      8  C1C       52.2180   87.1280  139.3210 C.ar  502  118502      0.0000
      9  C6C       51.5080   88.0680  140.0840 C.ar  502  118502      0.0000
     10  C5C       52.1550   89.1800  140.6350 C.ar  502  118502      0.0000
     11  C4C       53.5230   89.3700  140.4110 C.ar  502  118502      0.0000
     12  C3C       54.2460   88.4380  139.6390 C.ar  502  118502      0.0000
     13  C2C       53.5910   87.3250  139.0990 C.ar  502  118502      0.0000
     14  C1D       49.5480   85.4980  139.0250 C.ar  502  118502      0.0000
     15  C6D       49.0950   84.2150  139.3750 C.ar  502  118502      0.0000
     16  C5D       47.7730   83.9910  139.6930 C.ar  502  118502      0.0000
     17  C4D       46.8890   85.0270  139.6520 C.ar  502  118502      0.0000
     18  C3D       47.3260   86.3240  139.2840 C.ar  502  118502      0.0000
     19  C2D       48.6450   86.5510  138.9660 C.ar  502  118502      0.0000
     20  C6B       50.3670   86.7180  136.0420 C.ar  502  118502      0.0000
     21  C5B       50.3400   86.9250  134.6450 C.ar  502  118502      0.0000
     22  C4B       51.2940   86.3070  133.8370 C.ar  502  118502      0.0000
     23  C3B       52.2930   85.4660  134.4270 C.ar  502  118502      0.0000
     24  C2B       52.3120   85.2580  135.8100 C.ar  502  118502      0.0000
     25  C1B       51.3550   85.8860  136.6410 C.ar  502  118502      0.0000
@<TRIPOS>BOND
     1    22    23   ar
     2    22    21   ar
     3    23    24   ar
     4    21    20   ar
     5    24    25   ar
     6    20    25   ar
     7     3     4   ar
     8     3     2   ar
     9     4     5   ar
    10     1    14    1
    11     1     2    1
    12     1     8    1
    13    19    14   ar
    14    19    18   ar
    15    14    15   ar
    16     2     7   ar
    17    13     8   ar
    18    13    12   ar
    19    18    17   ar
    20     8     9   ar
    21    15    16   ar
    22    12    11   ar
    23    17    16   ar
    24     5     6   ar
    25     9    10   ar
    26     7     6   ar
    27    11    10   ar
