@<TRIPOS>MOLECULE
1exj_P4P_A_1.pdb
 25 28 0 0 0
SMALL
GASTEIGER

@<TRIPOS>ATOM
      1  P         70.7350  137.4650   83.3830 P.3   502  P4P502     -0.0109
      2  C1A       70.3410  139.0510   82.6700 C.ar  502  P4P502      0.0017
      3  C2A       71.3130  140.0330   82.4570 C.ar  502  P4P502      0.0005
      4  C3A       70.9600  141.2770   81.8950 C.ar  502  P4P502      0.0000
      5  C4A       69.6190  141.5400   81.5500 C.ar  502  P4P502      0.0000
      6  C5A       68.6420  140.5710   81.7630 C.ar  502  P4P502      0.0000
      7  C6A       69.0030  139.3300   82.3260 C.ar  502  P4P502      0.0005
      8  C1C       69.3110  136.4700   83.6110 C.ar  502  P4P502      0.0017
      9  C6C       68.3590  136.4150   82.5920 C.ar  502  P4P502      0.0005
     10  C5C       67.2190  135.6370   82.7330 C.ar  502  P4P502      0.0000
     11  C4C       67.0230  134.8880   83.9030 C.ar  502  P4P502      0.0000
     12  C3C       67.9650  134.9260   84.9240 C.ar  502  P4P502      0.0000
     13  C2C       69.1070  135.7140   84.7760 C.ar  502  P4P502      0.0005
     14  C1D       71.4370  137.7960   84.9150 C.ar  502  P4P502      0.0017
     15  C6D       72.8290  137.7210   85.0280 C.ar  502  P4P502      0.0005
     16  C5D       73.4500  137.9880   86.2510 C.ar  502  P4P502      0.0000
     17  C4D       72.6750  138.3410   87.3570 C.ar  502  P4P502      0.0000
     18  C3D       71.2790  138.4260   87.2450 C.ar  502  P4P502      0.0000
     19  C2D       70.6720  138.1570   86.0350 C.ar  502  P4P502      0.0005
     20  C6B       72.9210  137.0550   81.8330 C.ar  502  P4P502      0.0005
     21  C5B       73.7870  136.2780   81.0600 C.ar  502  P4P502      0.0000
     22  C4B       73.5350  134.9130   80.8870 C.ar  502  P4P502      0.0000
     23  C3B       72.4270  134.3300   81.4760 C.ar  502  P4P502      0.0000
     24  C2B       71.5670  135.1060   82.2320 C.ar  502  P4P502      0.0005
     25  C1B       71.8050  136.4710   82.4210 C.ar  502  P4P502      0.0017
@<TRIPOS>BOND
     1    22    21   ar
     2    22    23   ar
     3    21    20   ar
     4    23    24   ar
     5     5     6   ar
     6     5     4   ar
     7     6     7   ar
     8    20    25   ar
     9     4     3   ar
    10    24    25   ar
    11     7     2   ar
    12    25     1    1
    13     3     2   ar
    14     9    10   ar
    15     9     8   ar
    16     2     1    1
    17    10    11   ar
    18     1     8    1
    19     1    14    1
    20     8    13   ar
    21    11    12   ar
    22    13    12   ar
    23    14    15   ar
    24    14    19   ar
    25    15    16   ar
    26    19    18   ar
    27    16    17   ar
    28    18    17   ar
