@<TRIPOS>MOLECULE
1exm_GNP_A_1.pdb
 32 34 0 0 0
SMALL
GASTEIGER

@<TRIPOS>ATOM
      1  PG        41.7230    2.0120   -0.0060 P.3   406  GNP406      0.4884
      2  O1G       43.1340    1.6220    0.3670 O.3   406  GNP406     -0.1240
      3  O2G       40.8410    1.0820    0.7120 O.3   406  GNP406     -0.1240
      4  O3G       41.6440    2.1500   -1.4970 O.2   406  GNP406     -0.2331
      5  N3B       41.5570    3.5170    0.6970 N.3   406  GNP406     -0.0163
      6  PB        42.3100    4.1310    2.0290 P.3   406  GNP406      0.4669
      7  O1B       41.5940    3.7100    3.2810 O.3   406  GNP406     -0.1253
      8  O2B       43.7930    3.8910    2.0570 O.2   406  GNP406     -0.2351
      9  O3A       42.0470    5.7030    1.8360 O.3   406  GNP406     -0.2360
     10  PA        43.0260    6.8980    1.4240 P.3   406  GNP406      0.2220
     11  O1A       44.1070    7.1190    2.4310 O.3   406  GNP406     -0.4370
     12  O2A       43.4790    6.6860    0.0130 O.2   406  GNP406     -0.5170
     13  O5'       41.9910    8.0990    1.5330 O.3   406  GNP406     -0.3111
     14  C5'       40.7130    8.0930    0.8720 C.3   406  GNP406      0.1813
     15  C4'       40.2770    9.5210    0.6530 C.3   406  GNP406      0.1799
     16  O4'       39.8390   10.1890    1.8710 O.3   406  GNP406     -0.3326
     17  C3'       41.2850   10.4710    0.0080 C.3   406  GNP406      0.2158
     18  O3'       40.6750   11.4370   -0.8280 O.3   406  GNP406     -0.2175
     19  C2'       41.9480   11.1240    1.2130 C.3   406  GNP406      0.2310
     20  O2'       42.5050   12.4080    0.9960 O.3   406  GNP406     -0.2158
     21  C1'       40.7580   11.2210    2.1760 C.3   406  GNP406      0.2293
     22  N9        41.1170   11.3320    3.5850 N.pl3 406  GNP406     -0.2354
     23  C8        42.0210   10.5590    4.2810 C.3   406  GNP406      0.2246
     24  N7        42.1740   10.9290    5.5200 N.2   406  GNP406     -0.2322
     25  C5        41.3230   12.0090    5.6630 C.2   406  GNP406      0.2182
     26  C6        41.0750   12.8320    6.7980 C.1   406  GNP406      0.2372
     27  O6        41.6010   12.7570    7.9090 O.2   406  GNP406     -0.2069
     28  N1        40.1160   13.8280    6.5340 N.2   406  GNP406     -0.2485
     29  C2        39.4860   14.0060    5.3160 C.1   406  GNP406      0.2531
     30  N2        38.6170   15.0230    5.2350 N.pl3 406  GNP406     -0.0226
     31  N3        39.7250   13.2340    4.2330 N.2   406  GNP406     -0.3074
     32  C4        40.6480   12.2640    4.4840 C.2   406  GNP406      0.2300
@<TRIPOS>BOND
     1     4     1    2
     2    18    17    1
     3     1     2    1
     4     1     5    1
     5     1     3    1
     6    17    15    1
     7    17    19    1
     8    12    10    2
     9    15    14    1
    10    15    16    1
    11     5     6    1
    12    14    13    1
    13    20    19    1
    14    19    21    1
    15    10    13    1
    16    10     9    1
    17    10    11    1
    18     9     6    1
    19    16    21    1
    20     6     8    2
    21     6     7    1
    22    21    22    1
    23    22    23    1
    24    22    32    1
    25    31    32    2
    26    31    29    2
    27    23    24    1
    28    32    25    1
    29    30    29    1
    30    29    28    2
    31    24    25    2
    32    25    26    1
    33    28    26    2
    34    26    27    2
