@<TRIPOS>MOLECULE
1exp_G2F_A_1.pdb
 11 11 0 0 0
SMALL
GASTEIGER

@<TRIPOS>ATOM
      1  C1        21.4980   68.5150   37.1920 C.3   602  G2F602      0.1801
      2  C2        20.7760   69.6510   37.8940 C.3   602  G2F602      0.2230
      3  C3        20.0060   68.9020   38.9750 C.3   602  G2F602      0.2194
      4  C4        19.0090   67.8920   38.3540 C.3   602  G2F602      0.2144
      5  C5        19.7640   66.9400   37.4290 C.3   602  G2F602      0.1810
      6  C6        18.8560   66.0240   36.6160 C.3   602  G2F602      0.2141
      7  O3        19.3290   69.8020   39.8220 O.3   602  G2F602     -0.2173
      8  O4        18.3970   67.1550   39.4070 O.3   602  G2F602     -0.2176
      9  O5        20.5570   67.7070   36.4900 O.3   602  G2F602     -0.3479
     10  O6        17.6660   66.6940   36.2160 O.3   602  G2F602     -0.2176
     11  F2        21.1610   70.9780   37.9580 F     602  G2F602     -0.2317
@<TRIPOS>BOND
     1    10     6    1
     2     9     1    1
     3     9     5    1
     4     6     5    1
     5     1     2    1
     6     5     4    1
     7     2    11    1
     8     2     3    1
     9     4     3    1
    10     4     8    1
    11     3     7    1
