@<TRIPOS>MOLECULE
1exp_BGC_A_1.pdb
 11 11 0 0 0
SMALL
GASTEIGER

@<TRIPOS>ATOM
      1  C2        16.7740   65.7460   40.2840 C.3   601  BGC601      0.2141
      2  C3        15.2920   65.4060   40.2380 C.3   601  BGC601      0.2173
      3  C4        14.4670   66.6820   40.2960 C.3   601  BGC601      0.2142
      4  C5        14.9070   67.6420   39.1910 C.3   601  BGC601      0.1810
      5  C6        14.1920   69.0060   39.2630 C.3   601  BGC601      0.2141
      6  C1        17.1090   66.7140   39.1680 C.3   601  BGC601      0.1777
      7  O2        17.5410   64.5450   40.1570 O.3   601  BGC601     -0.2176
      8  O3        14.9390   64.5440   41.3170 O.3   601  BGC601     -0.2175
      9  O4        13.0820   66.3520   40.1480 O.3   601  BGC601     -0.2176
     10  O5        16.3310   67.9090   39.2710 O.3   601  BGC601     -0.3481
     11  O6        14.4990   69.7280   40.4570 O.3   601  BGC601     -0.2176
@<TRIPOS>BOND
     1     6    10    1
     2     6     1    1
     3     4     5    1
     4     4    10    1
     5     4     3    1
     6     5    11    1
     7     9     3    1
     8     7     1    1
     9     2     1    1
    10     2     3    1
    11     2     8    1
