@<TRIPOS>MOLECULE
1exv_PLP_A_1.pdb
 15 15 0 0 0
SMALL
GASTEIGER

@<TRIPOS>ATOM
      1  N1        74.5530   90.6680   97.8970 N.ar  860  PLP860     -0.2452
      2  C2        74.9730   91.8280   97.3290 C.ar  860  PLP860      0.0978
      3  C2A       74.8660   91.9080   95.8270 C.3   860  PLP860      0.0555
      4  C3        75.5090   92.8630   98.1270 C.ar  860  PLP860      0.2049
      5  O3        75.9050   94.0750   97.5720 O.3   860  PLP860     -0.2857
      6  C4        75.6070   92.6770   99.5000 C.ar  860  PLP860      0.0182
      7  C4A       76.2160   93.6750  100.3020 C.3   860  PLP860      0.0342
      8  C5        75.1490   91.4800  100.0500 C.ar  860  PLP860      0.0261
      9  C6        74.6450   90.5090   99.2430 C.ar  860  PLP860      0.0965
     10  C5A       75.0410   91.2280  101.5540 C.3   860  PLP860      0.1815
     11  O4P       73.6610   91.5460  101.9040 O.3   860  PLP860     -0.2653
     12  P         73.0890   91.2950  103.4110 P.3   860  PLP860      0.5329
     13  O1P       73.1870   89.8630  103.6950 O.3   860  PLP860     -0.1145
     14  O2P       71.6870   91.8020  103.3440 O.2   860  PLP860     -0.2224
     15  O3P       74.0790   92.1120  104.1610 O.3   860  PLP860     -0.1145
@<TRIPOS>BOND
     1     3     2    1
     2     2     1   ar
     3     2     4   ar
     4     5     4    1
     5     1     9   ar
     6     4     6   ar
     7     9     8   ar
     8     6     8   ar
     9     6     7    1
    10     8    10    1
    11    10    11    1
    12    11    12    1
    13    14    12    2
    14    12    13    1
    15    12    15    1
