@<TRIPOS>MOLECULE
1exv_NBG_A_1.pdb
 15 15 0 0 0
SMALL
GASTEIGER

@<TRIPOS>ATOM
      1  C1        77.8730   85.4780  105.6730 C.3   861  NBG861      0.2446
      2  C2        76.8580   85.8180  106.8090 C.3   861  NBG861      0.2326
      3  C3        76.6550   87.3770  106.9390 C.3   861  NBG861      0.2190
      4  C4        78.0270   88.0940  107.0880 C.3   861  NBG861      0.2144
      5  C5        78.9230   87.7220  105.8690 C.3   861  NBG861      0.1828
      6  C6        80.3260   88.3760  105.9180 C.3   861  NBG861      0.2142
      7  C7        78.2260   83.2650  104.6920 C.2   861  NBG861      0.2440
      8  C8        78.2940   81.7780  104.9240 C.3   861  NBG861      0.0965
      9  N1        78.2690   84.0800  105.7810 N.am  861  NBG861     -0.1751
     10  O3        75.8220   87.6940  108.0610 O.3   861  NBG861     -0.2174
     11  O2        75.6180   85.1550  106.5940 O.3   861  NBG861     -0.2157
     12  O4        77.8320   89.5080  107.1740 O.3   861  NBG861     -0.2176
     13  O5        79.0750   86.2810  105.8040 O.3   861  NBG861     -0.3315
     14  O6        81.0240   88.1050  107.1400 O.3   861  NBG861     -0.2176
     15  O7        78.1400   83.6810  103.5470 O.2   861  NBG861     -0.2733
@<TRIPOS>BOND
     1    15     7    2
     2     7     8    1
     3     7     9   am
     4     1     9    1
     5     1    13    1
     6     1     2    1
     7    13     5    1
     8     5     6    1
     9     5     4    1
    10     6    14    1
    11    11     2    1
    12     2     3    1
    13     3     4    1
    14     3    10    1
    15     4    12    1
