@<TRIPOS>MOLECULE
1exv_700_A_1.pdb
 30 33 0 0 0
SMALL
GASTEIGER

@<TRIPOS>ATOM
      1  C10       97.6380   92.2600   75.7210 C.3   862  700862      0.0574
      2  C11       97.6230   91.2390   74.5590 C.ar  862  700862     -0.0200
      3  C12       98.7270   90.3510   74.3240 C.ar  862  700862     -0.0042
      4  C13       98.6790   89.4100   73.2590 C.ar  862  700862     -0.0003
      5  C14       97.5380   89.3350   72.4210 C.ar  862  700862     -0.0000
      6  C15       96.4380   90.2120   72.6430 C.ar  862  700862     -0.0003
      7  C16       96.4830   91.1610   73.7070 C.ar  862  700862     -0.0042
      8  C17       96.7350   91.8380   76.9520 C.3   862  700862      0.1759
      9  C18       97.2770   90.5970   77.4450 C.2   862  700862      0.2459
     10  O2        98.2570   90.6450   78.1600 O.2   862  700862     -0.2730
     11  N3        96.7170   89.4350   77.0000 N.am  862  700862     -0.2769
     12  C19       95.4720   89.1040   76.2700 C.3   862  700862      0.1064
     13  C20       95.7740   87.6130   76.4730 C.3   862  700862      0.1428
     14  C21       94.7080   86.6570   77.0280 C.2   862  700862      0.3677
     15  O3        93.5360   87.0200   76.8360 O.co2 862  700862     -0.2455
     16  O4        95.1640   85.6300   77.5470 O.co2 862  700862     -0.2455
     17  C22       97.0260   88.0630   77.3670 C.3   862  700862      0.1064
     18  N1        96.7280   92.9170   77.9730 N.am  862  700862     -0.1918
     19  C9        95.9860   92.8420   79.1270 C.2   862  700862      0.2910
     20  C8        95.9830   93.9110   80.1670 C.2   862  700862      0.1676
     21  C7        96.7220   95.2410   80.2310 C.3   862  700862      0.0923
     22  C6        96.3170   95.8390   81.5580 C.2   862  700862      0.0116
     23  C1        95.4320   94.8700   82.0970 C.2   862  700862      0.1096
     24  C2        94.8200   95.0610   83.3710 C.3   862  700862      0.0854
     25  C3        95.1350   96.2440   84.0960 C.2   862  700862     -0.0073
     26  C4        96.0280   97.2130   83.5590 C.2   862  700862      0.0536
     27 CL1        96.3760   98.6320   84.4890 Cl    862  700862     -0.0826
     28  C5        96.6350   97.0270   82.2740 C.2   862  700862      0.0094
     29  N2        95.2830   93.8100   81.2570 N.2   862  700862     -0.4055
     30  O1        95.2910   91.8780   79.3700 O.2   862  700862     -0.2659
@<TRIPOS>BOND
     1     5     6   ar
     2     5     4   ar
     3     6     7   ar
     4     4     3   ar
     5     7     2   ar
     6     3     2   ar
     7     2     1    1
     8     1     8    1
     9    12    13    1
    10    12    11    1
    11    13    14    1
    12    13    17    1
    13    15    14   ar
    14     8     9    1
    15     8    18    1
    16    11    17    1
    17    11     9   am
    18    14    16   ar
    19     9    10    2
    20    18    19   am
    21    19    30    2
    22    19    20    1
    23    20    21    1
    24    20    29    2
    25    21    22    1
    26    29    23    2
    27    22    23    1
    28    22    28    2
    29    23    24    1
    30    28    26    1
    31    24    25    1
    32    26    25    2
    33    26    27    1
