@<TRIPOS>MOLECULE
1exw_HDS_A_1.pdb
 19 18 0 0 0
SMALL
GASTEIGER

@<TRIPOS>ATOM
      1  C1        42.9280    9.5870   58.8790 C.3   430  HDS430      0.1479
      2  C2        42.4020    8.1950   58.9090 C.3   430  HDS430      0.0250
      3  C3        43.3180    7.4860   59.9130 C.3   430  HDS430      0.0018
      4  C4        42.9660    5.9840   60.0950 C.3   430  HDS430      0.0001
      5  C5        41.6680    5.9380   60.9320 C.3   430  HDS430      0.0000
      6  C6        40.5870    5.1780   60.2490 C.3   430  HDS430      0.0000
      7  C7        40.3280    3.8060   60.9430 C.3   430  HDS430      0.0000
      8  C8        39.2100    3.1460   60.1060 C.3   430  HDS430      0.0000
      9  C9        38.6800    1.8610   60.8410 C.3   430  HDS430      0.0000
     10  C10       37.6330    1.2890   59.9530 C.3   430  HDS430      0.0000
     11  C11       38.0770    0.3380   58.8450 C.3   430  HDS430      0.0000
     12  C12       36.7940   -0.0060   58.1900 C.3   430  HDS430      0.0000
     13  C13       36.3680   -1.4740   58.1560 C.3   430  HDS430      0.0000
     14  C14       34.9320   -1.5630   57.7120 C.3   430  HDS430      0.0000
     15  C15       34.4130   -3.0320   57.6580 C.3   430  HDS430      0.0000
     16  C16       32.9770   -2.9910   57.7820 C.3   430  HDS430      0.0000
     17  S1        42.4510   10.9840   59.0130 S.3   430  HDS430     -0.0184
     18  O1S       41.3870   11.3750   57.7520 O.3   430  HDS430     -0.0782
     19  O2S       41.4500   11.5150   60.4350 O.3   430  HDS430     -0.0782
@<TRIPOS>BOND
     1    15    14    1
     2    15    16    1
     3    14    13    1
     4    18    17    1
     5    13    12    1
     6    12    11    1
     7    11    10    1
     8     1     2    1
     9     1    17    1
    10     2     3    1
    11    17    19    1
    12     3     4    1
    13    10     9    1
    14     4     5    1
    15     8     9    1
    16     8     7    1
    17     6     5    1
    18     6     7    1
