@<TRIPOS>MOLECULE
1exx_961_A_1.pdb
 29 31 0 0 0
SMALL
GASTEIGER

@<TRIPOS>ATOM
      1  C1        36.9240   15.2090   87.6800 C.ar  450  961450      0.1555
      2  C2        35.9770   16.0630   88.2250 C.ar  450  961450      0.0376
      3  C3        35.8160   17.3260   87.6580 C.ar  450  961450      0.0821
      4  C4        36.5950   17.6900   86.5660 C.ar  450  961450      0.0081
      5  C5        37.5410   16.8010   86.0440 C.ar  450  961450      0.0191
      6  C6        37.7340   15.5500   86.6200 C.ar  450  961450      0.1008
      7  C7        34.8010   18.2250   88.1840 C.2   450  961450      0.3878
      8  C8        42.4400   14.1370   83.6980 C.ar  450  961450     -0.0059
      9  C9        41.2490   13.4710   83.9620 C.ar  450  961450      0.0163
     10  C10       40.6620   12.7690   82.9230 C.ar  450  961450     -0.0017
     11  C11       41.2110   12.8050   81.6560 C.ar  450  961450     -0.0048
     12  C12       42.4420   13.4200   81.4030 C.ar  450  961450     -0.0268
     13  C13       43.0100   13.2740   80.0020 C.3   450  961450      0.0186
     14  C14       44.4650   13.7440   79.9510 C.3   450  961450      0.0044
     15  C15       44.6280   15.0600   80.7150 C.3   450  961450      0.0044
     16  C16       44.3330   14.8860   82.2140 C.3   450  961450      0.0186
     17  C17       43.0810   14.0760   82.4360 C.ar  450  961450     -0.0270
     18  C18       45.4840   14.1070   82.8840 C.3   450  961450      0.0044
     19  C19       44.2450   16.2720   82.8500 C.3   450  961450      0.0044
     20  C20       42.9960   11.7870   79.6290 C.3   450  961450      0.0044
     21  C21       42.1030   14.0470   79.0550 C.3   450  961450      0.0044
     22  C22       40.6340   13.5170   85.3400 C.3   450  961450      0.2516
     23  C23       39.8720   14.8380   85.6370 C.2   450  961450      0.2804
     24  N6        38.6180   14.6390   86.0580 N.am  450  961450     -0.1745
     25  F1        37.0730   14.0100   88.2320 F     450  961450     -0.2028
     26  O22       39.8550   12.3690   85.6960 O.3   450  961450     -0.2083
     27  O23       40.4610   15.9130   85.5510 O.2   450  961450     -0.2699
     28  O71       34.1630   17.8290   89.1720 O.co2 450  961450     -0.2406
     29  O72       34.4950   19.2960   87.6200 O.co2 450  961450     -0.2406
@<TRIPOS>BOND
     1    21    13    1
     2    20    13    1
     3    14    13    1
     4    14    15    1
     5    13    12    1
     6    15    16    1
     7    12    11   ar
     8    12    17   ar
     9    11    10   ar
    10    16    17    1
    11    16    19    1
    12    16    18    1
    13    17     8   ar
    14    10     9   ar
    15     8     9   ar
    16     9    22    1
    17    22    23    1
    18    22    26    1
    19    27    23    2
    20    23    24   am
    21     5     4   ar
    22     5     6   ar
    23    24     6    1
    24     4     3   ar
    25     6     1   ar
    26    29     7   ar
    27     3     7    1
    28     3     2   ar
    29     1     2   ar
    30     1    25    1
    31     7    28   ar
