@<TRIPOS>MOLECULE
1eye_PMM_A_1.pdb
 18 19 0 0 0
SMALL
GASTEIGER

@<TRIPOS>ATOM
      1  N5        33.5710    5.5920   39.1240 N.2   301  PMM301     -0.3831
      2  C6        32.3820    5.7110   39.6410 C.2   301  PMM301      0.1442
      3  C7        31.9320    4.8990   40.8220 C.3   301  PMM301      0.1939
      4  N8        32.9330    3.9960   41.3560 N.2   301  PMM301     -0.1992
      5  N1        35.0680    3.0500   41.2480 N.2   301  PMM301     -0.2672
      6  C2        36.3120    2.9450   40.6480 C.1   301  PMM301      0.2609
      7  N2        37.1290    2.0390   41.2580 N.pl3 301  PMM301     -0.0220
      8  N3        36.6650    3.6720   39.5850 N.2   301  PMM301     -0.2466
      9  C4        35.7820    4.5360   39.0930 C.1   301  PMM301      0.2569
     10  O4        36.1180    5.2780   38.0140 O.2   301  PMM301     -0.2052
     11  C4A       34.5270    4.6930   39.6470 C.2   301  PMM301      0.2989
     12  C8A       34.1470    3.9370   40.7380 C.1   301  PMM301      0.1401
     13  C9        31.4130    6.5770   38.9390 C.3   301  PMM301      0.2097
     14  O10       30.6560    5.5530   38.2800 O.3   301  PMM301     -0.2628
     15  PA        29.3260    5.7430   37.4940 P.3   301  PMM301      0.5330
     16  O1P       28.5070    4.5030   37.4800 O.3   301  PMM301     -0.1145
     17  O2P       29.6940    6.2510   36.1490 O.2   301  PMM301     -0.2224
     18  O3P       28.5180    6.8760   38.3030 O.3   301  PMM301     -0.1145
@<TRIPOS>BOND
     1    17    15    2
     2    16    15    1
     3    15    14    1
     4    15    18    1
     5    10     9    2
     6    14    13    1
     7    13     2    1
     8     9     8    2
     9     9    11    1
    10     1     2    2
    11     1    11    2
    12     8     6    2
    13     2     3    1
    14    11    12    1
    15     6     5    2
    16     6     7    1
    17    12     5    2
    18    12     4    2
    19     3     4    1
