@<TRIPOS>MOLECULE
1eyi_F6P_A_1.pdb
 16 16 0 0 0
SMALL
GASTEIGER

@<TRIPOS>ATOM
      1  O1         9.4270    9.7990   25.3960 O.3   339  F6P339     -0.2148
      2  C1         9.5900    9.5050   26.7740 C.3   339  F6P339      0.2434
      3  C2         8.6610    8.3880   27.1890 C.3   339  F6P339      0.2807
      4  O2         9.0260    7.2010   26.5140 O.3   339  F6P339     -0.1896
      5  C3         7.1770    8.6890   26.9880 C.3   339  F6P339      0.2409
      6  O3         6.7760    8.4340   25.6540 O.3   339  F6P339     -0.2149
      7  C4         6.5260    7.7640   28.0130 C.3   339  F6P339      0.2167
      8  O4         5.3040    8.3180   28.4880 O.3   339  F6P339     -0.2175
      9  C5         7.5470    7.7390   29.1430 C.3   339  F6P339      0.1808
     10  O5         8.8160    8.1650   28.5770 O.3   339  F6P339     -0.3254
     11  C6         7.7180    6.3760   29.7560 C.3   339  F6P339      0.1859
     12  O6         8.7080    6.4910   30.7830 O.3   339  F6P339     -0.2675
     13  P          8.8330    5.3520   31.9360 P.3   339  F6P339      0.5327
     14  O1P        7.4260    5.0750   32.4480 O.3   339  F6P339     -0.1145
     15  O2P        9.7330    5.9910   32.9800 O.3   339  F6P339     -0.1145
     16  O3P        9.4610    4.1490   31.2580 O.2   339  F6P339     -0.2224
@<TRIPOS>BOND
     1     1     2    1
     2     6     5    1
     3     4     3    1
     4     2     3    1
     5     5     3    1
     6     5     7    1
     7     3    10    1
     8     7     8    1
     9     7     9    1
    10    10     9    1
    11     9    11    1
    12    11    12    1
    13    12    13    1
    14    16    13    2
    15    13    14    1
    16    13    15    1
