@<TRIPOS>MOLECULE
1eyj_AMP_A_1.pdb
 23 25 0 0 0
SMALL
GASTEIGER

@<TRIPOS>ATOM
      1  P         35.4570   90.0120  -13.6150 P.3   341  AMP341      0.5327
      2  O1P       36.8230   90.6640  -13.4940 O.3   341  AMP341     -0.1145
      3  O2P       35.2970   89.2470  -14.9250 O.2   341  AMP341     -0.2224
      4  O3P       35.0970   89.1720  -12.3970 O.3   341  AMP341     -0.1145
      5  O5'       34.3730   91.2230  -13.6700 O.3   341  AMP341     -0.2675
      6  C5'       34.4860   92.2790  -14.6450 C.3   341  AMP341      0.1860
      7  C4'       33.6470   93.4610  -14.2250 C.3   341  AMP341      0.1823
      8  O4'       32.2580   93.0380  -14.0730 O.3   341  AMP341     -0.3135
      9  C3'       34.0100   94.0550  -12.8720 C.3   341  AMP341      0.2184
     10  O3'       35.0710   94.9960  -12.9760 O.3   341  AMP341     -0.2174
     11  C2'       32.7030   94.7200  -12.4620 C.3   341  AMP341      0.2570
     12  O2'       32.4940   95.9530  -13.1220 O.3   341  AMP341     -0.2130
     13  C1'       31.6870   93.6820  -12.9440 C.3   341  AMP341      0.3186
     14  N9        31.4420   92.6700  -11.9160 N.pl3 341  AMP341     -0.1439
     15  C8        31.9160   91.3850  -11.8680 C.3   341  AMP341      0.3377
     16  N7        31.5470   90.7250  -10.7990 N.2   341  AMP341     -0.2095
     17  C5        30.7740   91.6370  -10.0950 C.2   341  AMP341      0.2526
     18  C6        30.0940   91.5560   -8.8630 C.2   341  AMP341      0.4393
     19  N6        30.1030   90.4780   -8.0710 N.pl3 341  AMP341      0.2180
     20  N1        29.4030   92.6410   -8.4610 N.2   341  AMP341      0.0021
     21  C2        29.4180   93.7340   -9.2340 C.3   341  AMP341      0.5254
     22  N3        30.0300   93.9370  -10.3930 N.2   341  AMP341     -0.0055
     23  C4        30.6940   92.8360  -10.7760 C.2   341  AMP341      0.3518
@<TRIPOS>BOND
     1     3     1    2
     2     6     7    1
     3     6     5    1
     4     7     8    1
     5     7     9    1
     6     8    13    1
     7     5     1    1
     8     1     2    1
     9     1     4    1
    10    12    11    1
    11    10     9    1
    12    13    11    1
    13    13    14    1
    14     9    11    1
    15    14    15    1
    16    14    23    1
    17    15    16    1
    18    16    17    2
    19    23    22    2
    20    23    17    1
    21    22    21    1
    22    17    18    1
    23    21    20    1
    24    18    20    2
    25    18    19    1
