@<TRIPOS>MOLECULE
1eyj_F6P_A_1.pdb
 16 16 0 0 0
SMALL
GASTEIGER

@<TRIPOS>ATOM
      1  O1        43.1900  107.0360   10.6930 O.3   338  F6P338     -0.2148
      2  C1        43.4530  108.3260   11.2220 C.3   338  F6P338      0.2434
      3  C2        42.3940  108.7160   12.2300 C.3   338  F6P338      0.2807
      4  O2        42.4410  107.8260   13.3280 O.3   338  F6P338     -0.1896
      5  C3        40.9850  108.7710   11.6360 C.3   338  F6P338      0.2409
      6  O3        40.3180  107.5470   11.8390 O.3   338  F6P338     -0.2149
      7  C4        40.3480  109.9390   12.3820 C.3   338  F6P338      0.2167
      8  O4        39.4020  110.5860   11.5390 O.3   338  F6P338     -0.2175
      9  C5        41.5320  110.8620   12.6390 C.3   338  F6P338      0.1808
     10  O5        42.7010  110.0030   12.7290 O.3   338  F6P338     -0.3254
     11  C6        41.4110  111.6790   13.9070 C.3   338  F6P338      0.1859
     12  O6        42.6500  112.3850   14.0960 O.3   338  F6P338     -0.2675
     13  P         42.7260  113.6790   15.0850 P.3   338  F6P338      0.5327
     14  O1P       43.1860  113.1430   16.4310 O.3   338  F6P338     -0.1145
     15  O2P       43.7370  114.6240   14.4490 O.2   338  F6P338     -0.2224
     16  O3P       41.3260  114.2660   15.1290 O.3   338  F6P338     -0.1145
@<TRIPOS>BOND
     1     1     2    1
     2     2     3    1
     3     8     7    1
     4     5     6    1
     5     5     3    1
     6     5     7    1
     7     3    10    1
     8     3     4    1
     9     7     9    1
    10     9    10    1
    11     9    11    1
    12    11    12    1
    13    12    13    1
    14    15    13    2
    15    13    16    1
    16    13    14    1
