@<TRIPOS>MOLECULE
1eyk_AMP_A_1.pdb
 23 25 0 0 0
SMALL
GASTEIGER

@<TRIPOS>ATOM
      1  P         35.7210   90.2140  -13.6970 P.3   341  AMP341      0.5327
      2  O1P       37.0910   90.8480  -13.5720 O.3   341  AMP341     -0.1145
      3  O2P       35.5260   89.4950  -15.0240 O.2   341  AMP341     -0.2224
      4  O3P       35.3860   89.3720  -12.4730 O.3   341  AMP341     -0.1145
      5  O5'       34.6290   91.4240  -13.6980 O.3   341  AMP341     -0.2675
      6  C5'       34.6590   92.4630  -14.7010 C.3   341  AMP341      0.1860
      7  C4'       33.8070   93.6330  -14.2620 C.3   341  AMP341      0.1823
      8  O4'       32.4220   93.2040  -14.1220 O.3   341  AMP341     -0.3135
      9  C3'       34.1570   94.2070  -12.8970 C.3   341  AMP341      0.2184
     10  O3'       35.2170   95.1490  -12.9830 O.3   341  AMP341     -0.2174
     11  C2'       32.8500   94.8690  -12.4900 C.3   341  AMP341      0.2570
     12  O2'       32.6450   96.1100  -13.1290 O.3   341  AMP341     -0.2130
     13  C1'       31.8340   93.8450  -12.9960 C.3   341  AMP341      0.3186
     14  N9        31.5780   92.8310  -11.9740 N.pl3 341  AMP341     -0.1439
     15  C8        32.0800   91.5560  -11.9140 C.3   341  AMP341      0.3377
     16  N7        31.7140   90.8950  -10.8450 N.2   341  AMP341     -0.2095
     17  C5        30.9050   91.7890  -10.1600 C.2   341  AMP341      0.2526
     18  C6        30.2160   91.6980   -8.9380 C.2   341  AMP341      0.4393
     19  N6        30.2330   90.6190   -8.1560 N.pl3 341  AMP341      0.2180
     20  N1        29.5040   92.7700   -8.5400 N.2   341  AMP341      0.0021
     21  C2        29.4920   93.8580   -9.3190 C.3   341  AMP341      0.5254
     22  N3        30.0990   94.0660  -10.4810 N.2   341  AMP341     -0.0055
     23  C4        30.8010   92.9810  -10.8510 C.2   341  AMP341      0.3518
@<TRIPOS>BOND
     1     3     1    2
     2     6     7    1
     3     6     5    1
     4     7     8    1
     5     7     9    1
     6     8    13    1
     7     5     1    1
     8     1     2    1
     9     1     4    1
    10    12    11    1
    11    13    11    1
    12    13    14    1
    13    10     9    1
    14     9    11    1
    15    14    15    1
    16    14    23    1
    17    15    16    1
    18    23    22    2
    19    23    17    1
    20    16    17    2
    21    22    21    1
    22    17    18    1
    23    21    20    1
    24    18    20    2
    25    18    19    1
