@<TRIPOS>MOLECULE
1eyk_F6P_A_1.pdb
 16 16 0 0 0
SMALL
GASTEIGER

@<TRIPOS>ATOM
      1  O1        44.9030  108.7230   11.3970 O.3   338  F6P338     -0.2148
      2  C1        43.5750  108.7910   10.8920 C.3   338  F6P338      0.2434
      3  C2        42.5720  108.9950   12.0170 C.3   338  F6P338      0.2807
      4  O2        42.6850  107.9580   12.9750 O.3   338  F6P338     -0.1896
      5  C3        41.1380  109.1130   11.5040 C.3   338  F6P338      0.2409
      6  O3        40.4680  107.8760   11.6000 O.3   338  F6P338     -0.2149
      7  C4        40.5460  110.2000   12.3880 C.3   338  F6P338      0.2167
      8  O4        39.5770  110.9230   11.6450 O.3   338  F6P338     -0.2175
      9  C5        41.7440  111.0850   12.6970 C.3   338  F6P338      0.1808
     10  O5        42.8930  110.2000   12.6950 O.3   338  F6P338     -0.3254
     11  C6        41.6450  111.7710   14.0410 C.3   338  F6P338      0.1859
     12  O6        42.7960  112.6200   14.2030 O.3   338  F6P338     -0.2675
     13  P         42.7030  113.9520   15.1440 P.3   338  F6P338      0.5327
     14  O1P       41.2550  114.4070   15.0690 O.3   338  F6P338     -0.1145
     15  O2P       43.1080  113.5210   16.5440 O.3   338  F6P338     -0.1145
     16  O3P       43.6690  114.9540   14.5310 O.2   338  F6P338     -0.2224
@<TRIPOS>BOND
     1     2     1    1
     2     2     3    1
     3     5     6    1
     4     5     3    1
     5     5     7    1
     6     8     7    1
     7     3    10    1
     8     3     4    1
     9     7     9    1
    10    10     9    1
    11     9    11    1
    12    11    12    1
    13    12    13    1
    14    16    13    2
    15    14    13    1
    16    13    15    1
