@<TRIPOS>MOLECULE
1eyn_2AN_A_1.pdb
 21 23 0 0 0
SMALL
GASTEIGER

@<TRIPOS>ATOM
      1  C1       -33.8320   11.4280   78.9410 C.ar  550  2AN550      0.0717
      2  C2       -32.7570   11.6190   79.8880 C.ar  550  2AN550      0.0165
      3  C3       -32.1370   10.5570   80.5560 C.ar  550  2AN550      0.0013
      4  C4       -32.5700    9.2300   80.3040 C.ar  550  2AN550      0.0001
      5  C5       -33.6070    8.9800   79.3910 C.ar  550  2AN550      0.0025
      6  C6       -33.9860    7.6200   79.1810 C.ar  550  2AN550      0.0001
      7  C7       -35.0150    7.3190   78.2800 C.ar  550  2AN550      0.0013
      8  C8       -35.6700    8.3550   77.5750 C.ar  550  2AN550      0.0189
      9  N        -34.3760   12.5550   78.3350 N.pl3 550  2AN550     -0.2124
     10  S        -36.1550   10.5810   76.8850 S.3   550  2AN550      0.0421
     11  C9       -35.3470    9.7270   77.7260 C.ar  550  2AN550      0.1135
     12  C10      -34.2850   10.0750   78.6690 C.ar  550  2AN550      0.0329
     13  C11      -34.5090   13.8470   78.8660 C.ar  550  2AN550      0.0705
     14  C12      -34.6250   14.9560   77.9590 C.ar  550  2AN550      0.0165
     15  C13      -34.8450   16.2870   78.4660 C.ar  550  2AN550      0.0013
     16  C14      -34.9390   16.5270   79.8710 C.ar  550  2AN550      0.0001
     17  C15      -34.8120   15.4480   80.7530 C.ar  550  2AN550      0.0013
     18  C16      -34.6070   14.1220   80.2720 C.ar  550  2AN550      0.0165
     19  O1       -35.1650   11.5950   75.8810 O.3   550  2AN550     -0.0650
     20  O2       -37.1680    9.5140   75.8480 O.3   550  2AN550     -0.0650
     21  O3       -37.2290   11.5690   77.9180 O.3   550  2AN550     -0.0650
@<TRIPOS>BOND
     1    20    10    1
     2    19    10    1
     3    10    11    1
     4    10    21    1
     5     8    11   ar
     6     8     7   ar
     7    11    12   ar
     8    14    15   ar
     9    14    13   ar
    10     7     6   ar
    11     9    13    1
    12     9     1    1
    13    15    16   ar
    14    12     1   ar
    15    12     5   ar
    16    13    18   ar
    17     1     2   ar
    18     6     5   ar
    19     5     4   ar
    20    16    17   ar
    21     2     3   ar
    22    18    17   ar
    23     4     3   ar
