@<TRIPOS>MOLECULE
1eyq_NAR_A_1.pdb
 20 22 0 0 0
SMALL
GASTEIGER

@<TRIPOS>ATOM
      1  C1        27.4870   19.8260   34.7710 C.ar  501  NAR501      0.0792
      2  C2        26.9340   18.8600   35.8070 C.ar  501  NAR501      0.2020
      3  C3        25.6030   18.8720   36.0770 C.ar  501  NAR501      0.0843
      4  C4        24.6400   19.8290   35.3820 C.ar  501  NAR501      0.2046
      5  C5        25.1660   20.6810   34.4540 C.ar  501  NAR501      0.1078
      6  C6        26.6860   20.7010   34.1140 C.ar  501  NAR501      0.1479
      7  C7        24.2640   21.6920   33.6830 C.2   501  NAR501      0.1831
      8  C8        25.0450   22.6680   32.8190 C.3   501  NAR501      0.1174
      9  C9        26.2890   22.0400   32.2240 C.3   501  NAR501      0.1958
     10  O1        27.1850   21.5640   33.1860 O.3   501  NAR501     -0.4740
     11  O2        23.0580   21.7040   33.7500 O.2   501  NAR501     -0.2910
     12  C10       26.9710   23.0310   31.3180 C.ar  501  NAR501      0.0178
     13  C11       27.1220   24.3420   31.6870 C.ar  501  NAR501      0.0025
     14  C12       27.8160   25.3220   30.7580 C.ar  501  NAR501      0.0418
     15  C13       28.3010   24.9220   29.5550 C.ar  501  NAR501      0.1957
     16  C14       28.1340   23.4660   29.1450 C.ar  501  NAR501      0.0418
     17  C15       27.5160   22.5790   29.9640 C.ar  501  NAR501      0.0025
     18  O3        28.9150   25.8000   28.7430 O.3   501  NAR501     -0.2866
     19  O4        27.7480   17.9970   36.4440 O.3   501  NAR501     -0.2864
     20  O5        23.3090   19.8170   35.6730 O.3   501  NAR501     -0.2863
@<TRIPOS>BOND
     1    18    15    1
     2    16    15   ar
     3    16    17   ar
     4    15    14   ar
     5    17    12   ar
     6    14    13   ar
     7    12    13   ar
     8    12     9    1
     9     9     8    1
    10     9    10    1
    11     8     7    1
    12    10     6    1
    13     7    11    2
    14     7     5    1
    15     6     5   ar
    16     6     1   ar
    17     5     4   ar
    18     1     2   ar
    19     4    20    1
    20     4     3   ar
    21     2     3   ar
    22     2    19    1
