@<TRIPOS>MOLECULE
1eys_CRT_M_1.pdb
 44 43 0 0 0
SMALL
GASTEIGER

@<TRIPOS>ATOM
      1  C1M       -0.8130   -2.3280   48.1650 C.3   613  CRT613      0.1739
      2  O1        -0.0450   -1.3780   48.8810 O.3   613  CRT613     -0.3559
      3  C1         1.1000   -1.8740   49.6160 C.3   613  CRT613      0.0930
      4  C2         2.1460   -2.5310   48.7040 C.3   613  CRT613      0.0296
      5  C3         0.6870   -2.8830   50.6920 C.3   613  CRT613      0.0296
      6  C4         1.6990   -0.6000   50.3090 C.3   613  CRT613      0.0276
      7  C5         2.2570    0.4790   49.3710 C.3   613  CRT613      0.0067
      8  C6         1.4110    1.7600   49.4350 C.3   613  CRT613      0.0221
      9  C7         1.5740    2.7610   48.3350 C.2   613  CRT613     -0.0439
     10  C8         2.0660    2.3070   47.0150 C.3   613  CRT613      0.0264
     11  C9         1.2400    4.0600   48.5850 C.2   613  CRT613     -0.0085
     12  C10        1.3090    5.1480   47.6560 C.2   613  CRT613     -0.0010
     13  C11        0.8960    6.4510   48.0620 C.2   613  CRT613     -0.0043
     14  C12        0.9070    7.6440   47.2900 C.2   613  CRT613     -0.0218
     15  C13        1.4030    7.6450   45.8960 C.3   613  CRT613      0.0310
     16  C14        0.4380    8.8150   47.9110 C.2   613  CRT613     -0.0043
     17  C15        0.4190   10.1210   47.3680 C.2   613  CRT613     -0.0006
     18  C16       -0.0730   11.2270   48.1420 C.2   613  CRT613     -0.0043
     19  C17       -0.1740   12.5620   47.7040 C.2   613  CRT613     -0.0218
     20  C18        0.3600   12.9410   46.3820 C.3   613  CRT613      0.0310
     21  C19       -0.7930   13.5150   48.5540 C.2   613  CRT613     -0.0043
     22  C20       -0.9490   14.8730   48.2430 C.2   613  CRT613     -0.0003
     23  C21       -1.5070   15.7830   49.0730 C.2   613  CRT613     -0.0003
     24  C22       -2.1480   15.4490   50.2850 C.2   613  CRT613     -0.0043
     25  C23       -2.6560   16.3760   51.2390 C.2   613  CRT613     -0.0218
     26  C24       -2.4260   17.8320   51.1120 C.3   613  CRT613      0.0310
     27  C25       -3.4150   15.8670   52.3060 C.2   613  CRT613     -0.0043
     28  C26       -3.4680   16.3720   53.6320 C.2   613  CRT613     -0.0006
     29  C27       -4.2680   15.7360   54.6020 C.2   613  CRT613     -0.0043
     30  C28       -4.4060   16.1190   55.9380 C.2   613  CRT613     -0.0218
     31  C29       -3.6650   17.2980   56.4470 C.3   613  CRT613      0.0310
     32  C30       -5.2670   15.3630   56.7680 C.2   613  CRT613     -0.0043
     33  C31       -5.4540   15.4740   58.1870 C.2   613  CRT613     -0.0010
     34  C32       -6.4350   14.6680   58.8750 C.2   613  CRT613     -0.0085
     35  C33       -6.6950   14.6540   60.2340 C.2   613  CRT613     -0.0439
     36  C34       -5.9900   15.5140   61.2170 C.3   613  CRT613      0.0264
     37  C35       -7.7230   13.7150   60.7300 C.3   613  CRT613      0.0221
     38  C36       -8.1920   13.8770   62.1720 C.3   613  CRT613      0.0067
     39  C37       -9.2650   12.8360   62.4560 C.3   613  CRT613      0.0276
     40  C38      -10.4370   13.2720   63.3660 C.3   613  CRT613      0.0930
     41  C39      -11.5160   12.1720   63.3240 C.3   613  CRT613      0.0296
     42  C40       -9.9610   13.4200   64.8230 C.3   613  CRT613      0.0296
     43  O2       -10.8850   14.5180   62.7950 O.3   613  CRT613     -0.3559
     44  C2M      -12.0100   15.1390   63.4280 C.3   613  CRT613      0.1739
@<TRIPOS>BOND
     1    15    14    1
     2    20    19    1
     3    10     9    1
     4    14    16    2
     5    14    13    1
     6    17    16    1
     7    17    18    2
     8    12    13    2
     9    12    11    1
    10    19    18    1
    11    19    21    2
    12     1     2    1
    13    22    21    1
    14    22    23    2
    15     9    11    2
    16     9     8    1
    17     4     3    1
    18     2     3    1
    19    23    24    1
    20     7     8    1
    21     7     6    1
    22     3     6    1
    23     3     5    1
    24    24    25    2
    25    26    25    1
    26    25    27    1
    27    27    28    2
    28    28    29    1
    29    29    30    2
    30    30    31    1
    31    30    32    1
    32    32    33    2
    33    33    34    1
    34    34    35    2
    35    35    37    1
    36    35    36    1
    37    37    38    1
    38    38    39    1
    39    39    40    1
    40    43    40    1
    41    43    44    1
    42    41    40    1
    43    40    42    1
