@<TRIPOS>MOLECULE
1eys_HEM_C_1.pdb
 43 50 0 0 0
SMALL
GASTEIGER

@<TRIPOS>ATOM
      1 FE        -35.3370    0.6390    3.0950 Fe    609  HEM609      0.0000
      2  CHA      -38.6790    1.5330    3.7760 C.2   609  HEM609      0.0000
      3  CHB      -36.5440   -0.3880   -0.0660 C.2   609  HEM609      0.0000
      4  CHC      -32.3390   -0.5870    2.2660 C.2   609  HEM609      0.0000
      5  CHD      -34.4980    1.2250    6.1610 C.2   609  HEM609      0.0000
      6  NA       -37.2520    0.2280    2.2050 N.ar  609  HEM609      0.0000
      7  C1A      -38.4650    0.8460    2.5780 C.ar  609  HEM609      0.0000
      8  C2A      -39.4710    0.7440    1.5230 C.ar  609  HEM609      0.0000
      9  C3A      -38.8810    0.2240    0.4580 C.ar  609  HEM609      0.0000
     10  C4A      -37.5020   -0.0320    0.8240 C.ar  609  HEM609      0.0000
     11  CMA      -39.5460   -0.0900   -0.8710 C.3   609  HEM609      0.0000
     12  CAA      -40.9510    1.0990    1.6770 C.3   609  HEM609      0.0000
     13  CBA      -41.7270   -0.0760    2.2840 C.3   609  HEM609      0.0000
     14  CGA      -43.2130    0.1640    2.4400 C.2   609  HEM609      0.0000
     15  O1A      -43.6250    0.7170    3.4760 O.co2 609  HEM609      0.0000
     16  O2A      -43.9780   -0.2330    1.5430 O.co2 609  HEM609      0.0000
     17  NB       -34.6380   -0.0680    1.3670 N.2   609  HEM609      0.0000
     18  C1B      -35.2280   -0.4600    0.2190 C.2   609  HEM609      0.0000
     19  C2B      -34.2820   -1.0110   -0.6840 C.2   609  HEM609      0.0000
     20  C3B      -33.1040   -1.0890   -0.0680 C.2   609  HEM609      0.0000
     21  C4B      -33.3070   -0.5660    1.2560 C.2   609  HEM609      0.0000
     22  CMB      -34.6030   -1.4500   -2.1030 C.3   609  HEM609      0.0000
     23  CAB      -31.9330   -1.6280   -0.6020 C.3   609  HEM609      0.0000
     24  CBB      -31.2580   -1.1120   -1.7840 C.3   609  HEM609      0.0000
     25  NC       -33.8400   -0.0050    4.1450 N.ar  609  HEM609      0.0000
     26  C1C      -32.5820   -0.3010    3.5980 C.ar  609  HEM609      0.0000
     27  C2C      -31.5770   -0.2110    4.6260 C.ar  609  HEM609      0.0000
     28  C3C      -32.1840    0.2940    5.7130 C.ar  609  HEM609      0.0000
     29  C4C      -33.5780    0.5080    5.3670 C.ar  609  HEM609      0.0000
     30  CMC      -30.1330   -0.6260    4.5140 C.3   609  HEM609      0.0000
     31  CAC      -31.6470    0.5400    6.9720 C.3   609  HEM609      0.0000
     32  CBC      -30.3180    1.0190    7.2560 C.3   609  HEM609      0.0000
     33  ND       -36.4140    1.4630    4.5670 N.2   609  HEM609      0.0000
     34  C1D      -35.8210    1.6100    5.8270 C.2   609  HEM609      0.0000
     35  C2D      -36.7590    2.1930    6.7320 C.2   609  HEM609      0.0000
     36  C3D      -37.9240    2.3080    6.0700 C.2   609  HEM609      0.0000
     37  C4D      -37.7180    1.7540    4.7340 C.2   609  HEM609      0.0000
     38  CMD      -36.4670    2.6020    8.1440 C.3   609  HEM609      0.0000
     39  CAD      -39.1910    2.9370    6.5770 C.3   609  HEM609      0.0000
     40  CBD      -39.4370    4.2760    5.8840 C.3   609  HEM609      0.0000
     41  CGD      -40.3940    5.1900    6.6010 C.2   609  HEM609      0.0000
     42  O1D      -40.5210    6.3440    6.1920 O.co2 609  HEM609      0.0000
     43  O2D      -40.9840    4.7820    7.6010 O.co2 609  HEM609      0.0000
@<TRIPOS>BOND
     1    22    19    1
     2    24    23    1
     3    11     9    1
     4    19    20    2
     5    19    18    1
     6    23    20    1
     7    20    21    1
     8     3    18    1
     9     3    10    2
    10    18    17    2
    11     9    10   ar
    12     9     8   ar
    13    10     6   ar
    14    21    17    1
    15    21     4    2
    16    17     1    1
    17     8    12    1
    18     8     7   ar
    19    16    14   ar
    20    12    13    1
    21     6     7   ar
    22     6     1    1
    23     4    26    1
    24    13    14    1
    25    14    15   ar
    26     7     2    2
    27     1    25    1
    28     1    33    1
    29    26    25   ar
    30    26    27   ar
    31     2    37    1
    32    25    29   ar
    33    30    27    1
    34    33    37    2
    35    33    34    1
    36    27    28   ar
    37    37    36    1
    38    29    28   ar
    39    29     5    1
    40    28    31    1
    41    34     5    2
    42    34    35    1
    43    40    39    1
    44    40    41    1
    45    36    39    1
    46    36    35    2
    47    42    41   ar
    48    41    43   ar
    49    35    38    1
    50    31    32    1
