@<TRIPOS>MOLECULE
1eyw_TEN_A_1.pdb
 11 10 0 0 0
SMALL
GASTEIGER

@<TRIPOS>ATOM
      1  P1        49.0230   37.0590   23.0220 P.3   403  TEN403      0.4796
      2  O1        49.2440   36.1100   24.1380 O.2   403  TEN403     -0.2271
      3  O2        50.1720   38.1400   22.9720 O.3   403  TEN403     -0.2732
      4  C1        49.6250   39.4560   22.9350 C.3   403  TEN403      0.1537
      5  C2        50.5600   40.5290   23.5100 C.3   403  TEN403      0.0353
      6  O3        47.6360   37.8020   23.1780 O.3   403  TEN403     -0.2732
      7  C3        46.8140   37.0130   24.0170 C.3   403  TEN403      0.1537
      8  C4        45.3550   37.4370   24.0560 C.3   403  TEN403      0.0353
      9  O4        48.9810   36.3120   21.6240 O.3   403  TEN403     -0.2732
     10  C5        48.0240   36.9840   20.8100 C.3   403  TEN403      0.1537
     11  C6        47.0930   36.1190   19.9430 C.3   403  TEN403      0.0353
@<TRIPOS>BOND
     1    11    10    1
     2    10     9    1
     3     9     1    1
     4     4     3    1
     5     4     5    1
     6     3     1    1
     7     1     6    1
     8     1     2    2
     9     6     7    1
    10     7     8    1
