@<TRIPOS>MOLECULE
1eyx_BLA_A_1.pdb
 43 46 0 0 0
SMALL
GASTEIGER

@<TRIPOS>ATOM
      1  CHA      131.3720   53.9890  -13.7080 C.3   166  BLA166      0.1128
      2  NA       130.3380   56.0380  -12.7200 N.2   166  BLA166     -0.4104
      3  C1A      130.3220   54.8890  -13.5480 C.2   166  BLA166      0.1111
      4  C2A      128.9630   54.6040  -13.9250 C.2   166  BLA166      0.0024
      5  C3A      128.2270   55.8250  -13.6790 C.2   166  BLA166      0.0021
      6  C4A      129.1040   56.6870  -12.9420 C.2   166  BLA166      0.1111
      7  CMA      126.7760   56.0750  -14.0660 C.3   166  BLA166      0.0331
      8  CAA      128.5460   53.4370  -14.8400 C.3   166  BLA166      0.0402
      9  CBA      128.8410   53.6400  -16.3710 C.3   166  BLA166      0.1188
     10  CGA      130.3180   53.7930  -16.8200 C.2   166  BLA166      0.3652
     11  O1A      130.8190   54.9300  -16.8580 O.co2 166  BLA166     -0.2456
     12  O2A      131.2970   52.7260  -16.6850 O.co2 166  BLA166     -0.2456
     13  CHB      128.8560   57.9600  -12.3210 C.3   166  BLA166      0.1138
     14  NB       128.4210   59.2140  -14.4310 N.2   166  BLA166     -0.3448
     15  C1B      128.6970   59.1990  -13.0440 C.2   166  BLA166      0.1070
     16  C2B      128.2410   60.4290  -12.4900 C.3   166  BLA166      0.0660
     17  C3B      127.2260   60.8300  -13.4190 C.3   166  BLA166      0.1246
     18  C4B      127.4100   60.0620  -14.5920 C.1   166  BLA166      0.1788
     19  CMB      128.8370   61.2130  -11.3230 C.3   166  BLA166      0.0083
     20  OB       126.7080   60.0250  -15.6030 O.2   166  BLA166     -0.2142
     21  CAB      126.3140   62.0520  -13.3530 C.3   166  BLA166      0.0180
     22  CBB      125.9270   62.7980  -14.6580 C.3   166  BLA166      0.0012
     23  NC       137.4050   54.7110  -10.1950 N.2   166  BLA166     -0.3448
     24  C1C      138.1560   54.9720   -9.1120 C.1   166  BLA166      0.1788
     25  C2C      137.3320   55.5170   -8.1220 C.3   166  BLA166      0.1246
     26  C3C      136.3260   56.3310   -8.8870 C.3   166  BLA166      0.0660
     27  C4C      136.2030   55.4850  -10.1650 C.2   166  BLA166      0.1067
     28  CMC      137.1710   54.9660   -6.7280 C.3   166  BLA166      0.0192
     29  OC       139.2720   54.4910   -8.9030 O.2   166  BLA166     -0.2142
     30  CAC      136.7940   57.8410   -8.8390 C.3   166  BLA166      0.0078
     31  CBC      136.9640   58.1840   -7.3970 C.3   166  BLA166      0.0005
     32  CHD      135.1270   55.4770  -11.0520 C.3   166  BLA166      0.1096
     33  ND       133.2670   55.2220  -12.5990 N.2   166  BLA166     -0.4183
     34  C1D      134.4970   54.7730  -12.0860 C.2   166  BLA166      0.0926
     35  C2D      134.8960   53.7250  -12.9810 C.3   166  BLA166      0.0548
     36  C3D      133.6830   53.1490  -13.4470 C.3   166  BLA166      0.0554
     37  C4D      132.6700   54.1010  -13.2060 C.2   166  BLA166      0.0929
     38  CMD      136.2330   53.0110  -13.0530 C.3   166  BLA166      0.0075
     39  CAD      133.5230   51.8320  -14.2000 C.3   166  BLA166      0.0189
     40  CBD      133.8960   50.6610  -13.3490 C.3   166  BLA166      0.1145
     41  CGD      133.3320   49.4110  -13.9550 C.2   166  BLA166      0.3649
     42  O1D      132.2360   49.4410  -14.9040 O.co2 166  BLA166     -0.2457
     43  O2D      134.0290   48.4020  -13.8300 O.co2 166  BLA166     -0.2457
@<TRIPOS>BOND
     1    11    10   ar
     2    10    12   ar
     3    10     9    1
     4     9     8    1
     5    20    18    2
     6    42    41   ar
     7     8     4    1
     8    22    21    1
     9    18    14    2
    10    18    17    1
    11    14    15    2
    12    39    36    1
    13    39    40    1
    14     7     5    1
    15    41    43   ar
    16    41    40    1
    17     4     5    2
    18     4     3    1
    19     1     3    1
    20     1    37    1
    21     5     6    1
    22     3     2    2
    23    36    37    1
    24    36    35    1
    25    17    21    1
    26    17    16    1
    27    37    33    2
    28    38    35    1
    29    15    16    1
    30    15    13    1
    31    35    34    1
    32     6     2    2
    33     6    13    1
    34    33    34    2
    35    16    19    1
    36    34    32    1
    37    32    27    1
    38    23    27    2
    39    23    24    2
    40    27    26    1
    41    24    29    2
    42    24    25    1
    43    26    30    1
    44    26    25    1
    45    30    31    1
    46    25    28    1
