@<TRIPOS>MOLECULE
1eyx_III_G_1.pdb
 42 42 0 0 0
SMALL
GASTEIGER

@<TRIPOS>ATOM
      1  N         89.3480   64.2640  -11.7270 N.3     1  ALA1       -0.1231
      2  CA        90.0190   63.0730  -12.2340 C.3     1  ALA1        0.1694
      3  C         89.8170   62.9240  -13.7380 C.2     1  ALA1        0.2592
      4  O         90.3510   62.0030  -14.3580 O.2     1  ALA1       -0.2718
      5  CB        89.5250   61.8330  -11.5080 C.3     1  ALA1        0.0304
      6  N         89.0360   63.8290  -14.3210 N.am    2  ALA2       -0.1966
      7  CA        88.7700   63.7950  -15.7540 C.3     2  ALA2        0.1728
      8  C         89.9120   64.4470  -16.5310 C.2     2  ALA2        0.2616
      9  O         89.9660   64.3630  -17.7560 O.2     2  ALA2       -0.2715
     10  CB        87.4480   64.4720  -16.0770 C.3     2  ALA2        0.0334
     11  N         90.8020   65.0960  -15.7940 N.am    3  PHE3       -0.1960
     12  CA        91.9860   65.7290  -16.3560 C.3     3  PHE3        0.1771
     13  C         93.0620   64.6880  -16.6440 C.2     3  PHE3        0.2619
     14  O         93.8650   64.8200  -17.5650 O.2     3  PHE3       -0.2715
     15  CB        92.5310   66.8030  -15.4120 C.3     3  PHE3        0.0574
     16  CG        93.3500   67.8720  -16.1220 C.ar    3  PHE3       -0.0200
     17  CD1       92.8860   68.4300  -17.3010 C.ar    3  PHE3       -0.0042
     18  CD2       94.5580   68.3120  -15.6090 C.ar    3  PHE3       -0.0042
     19  CE1       93.6140   69.4050  -17.9560 C.ar    3  PHE3       -0.0003
     20  CE2       95.2950   69.2820  -16.2630 C.ar    3  PHE3       -0.0003
     21  CZ        94.8240   69.8320  -17.4400 C.ar    3  PHE3       -0.0000
     22  N         93.0660   63.6430  -15.8250 N.am    4  ARG4       -0.1963
     23  CA        94.0100   62.5440  -15.9420 C.3     4  ARG4        0.1729
     24  C         93.7220   61.6870  -17.1670 C.2     4  ARG4        0.2616
     25  O         94.5480   61.5780  -18.0700 O.2     4  ARG4       -0.2715
     26  CB        93.9660   61.6840  -14.6750 C.3     4  ARG4        0.0348
     27  CG        94.3510   62.4140  -13.4030 C.3     4  ARG4        0.0492
     28  CD        93.3470   63.5130  -13.0420 C.3     4  ARG4        0.2205
     29  NE        93.8460   64.3580  -11.9610 N.pl3   4  ARG4       -0.0865
     30  CZ        94.3840   65.5570  -12.1170 C.cat   4  ARG4        0.5346
     31  NH1       94.5360   66.0740  -13.3270 N.pl3   4  ARG4        0.1354
     32  NH2       94.8000   66.2390  -11.0520 N.pl3   4  ARG4        0.1354
     33  N         92.5450   61.0700  -17.1870 N.am    5  ALA5       -0.1963
     34  CA        92.1530   60.1920  -18.2820 C.3     5  ALA5        0.1728
     35  C         92.2090   60.9170  -19.6240 C.2     5  ALA5        0.2616
     36  O         92.9380   60.5070  -20.5260 O.2     5  ALA5       -0.2715
     37  CB        90.7600   59.6310  -18.0390 C.3     5  ALA5        0.0334
     38  N         91.4270   61.9850  -19.7410 N.am    6  ALA6       -0.1977
     39  CA        91.3770   62.7720  -20.9670 C.3     6  ALA6        0.1597
     40  C         92.6530   63.5880  -21.1420 C.2     6  ALA6        0.2287
     41  O         93.2020   63.6810  -22.2400 O.2     6  ALA6       -0.2864
     42  CB        90.1520   63.6740  -20.9640 C.3     6  ALA6        0.0319
@<TRIPOS>BOND
     1    41    40    2
     2    40    39    1
     3    39    42    1
     4    39    38    1
     5    36    35    2
     6    38    35   am
     7    35    34    1
     8    34    37    1
     9    34    33    1
    10    25    24    2
    11    19    21   ar
    12    19    17   ar
    13     9     8    2
    14    14    13    2
    15    21    20   ar
    16    17    16   ar
    17    33    24   am
    18    24    23    1
    19    13    12    1
    20    13    22   am
    21     8    11   am
    22     8     7    1
    23    12    11    1
    24    12    15    1
    25    20    18   ar
    26    16    18   ar
    27    16    15    1
    28    10     7    1
    29    23    22    1
    30    23    26    1
    31     7     6    1
    32    26    27    1
    33     4     3    2
    34     6     3   am
    35     3     2    1
    36    27    28    1
    37    31    30    1
    38    28    29    1
    39     2     1    1
    40     2     5    1
    41    30    29    2
    42    30    32    1
