@<TRIPOS>MOLECULE
1eyx_PUB_B_1.pdb
 43 46 0 0 0
SMALL
GASTEIGER

@<TRIPOS>ATOM
      1  CHC       85.5940   92.8180  -21.1370 C.3   179  PUB179      0.1138
      2  NC        87.7790   93.9440  -20.8930 N.2   179  PUB179     -0.4104
      3  C1C       89.0040   93.9340  -21.5890 C.2   179  PUB179      0.1111
      4  C2C       88.7840   93.4520  -22.9100 C.2   179  PUB179      0.0024
      5  C3C       87.3760   93.1230  -23.0020 C.2   179  PUB179      0.0021
      6  C4C       86.8490   93.2530  -21.6850 C.2   179  PUB179      0.1111
      7  CMC       86.6140   92.7400  -24.2670 C.3   179  PUB179      0.0331
      8  CAC       89.6870   93.7530  -24.0970 C.3   179  PUB179      0.0402
      9  CBC       90.2270   92.4920  -24.7420 C.3   179  PUB179      0.1188
     10  CGC       91.2630   92.6930  -25.8510 C.2   179  PUB179      0.3652
     11  O1C       91.6950   91.6830  -26.4260 O.co2 179  PUB179     -0.2456
     12  O2C       91.9410   93.9790  -26.0340 O.co2 179  PUB179     -0.2456
     13  ND        83.9480   94.3640  -22.2800 N.2   179  PUB179     -0.3448
     14  C1D       84.3200   93.4890  -21.2000 C.2   179  PUB179      0.1070
     15  C2D       83.0770   92.9960  -20.6660 C.3   179  PUB179      0.0660
     16  C3D       82.2480   92.9940  -21.8670 C.3   179  PUB179      0.1246
     17  C4D       82.8740   93.7900  -22.8350 C.1   179  PUB179      0.1788
     18  CMD       82.7120   92.8480  -19.1880 C.3   179  PUB179      0.0083
     19  CBD       79.8900   92.8880  -21.0220 C.3   179  PUB179      0.0012
     20  OD        82.6180   93.8570  -24.0390 O.2   179  PUB179     -0.2142
     21  NA        89.7800   97.2300  -15.4310 N.2   179  PUB179     -0.3375
     22  C1A       90.2450   97.6250  -14.2480 C.1   179  PUB179      0.2000
     23  C2A       89.6480   96.7940  -13.2730 C.2   179  PUB179      0.0710
     24  C3A       89.0880   95.6480  -13.9360 C.2   179  PUB179      0.0124
     25  C4A       89.4610   95.8240  -15.2980 C.2   179  PUB179      0.1251
     26  CMA       89.9200   96.9800  -11.7860 C.3   179  PUB179      0.0445
     27  CBA       87.4390   94.3660  -13.3450 C.3   179  PUB179      0.0051
     28  OA        91.1070   98.4870  -14.0770 O.2   179  PUB179     -0.2096
     29  CHA       89.9910   94.7710  -16.1370 C.3   179  PUB179      0.1138
     30  CAA       88.5690   94.2970  -13.4300 C.3   179  PUB179      0.0291
     31  CAD       80.7750   92.7830  -22.2490 C.3   179  PUB179      0.0180
     32  NB        89.6850   94.5240  -18.6350 N.2   179  PUB179     -0.4183
     33  C1B       90.4490   94.9060  -17.4970 C.2   179  PUB179      0.0929
     34  C2B       91.6570   95.5270  -17.9090 C.3   179  PUB179      0.0548
     35  C3B       91.5920   95.6330  -19.3460 C.3   179  PUB179      0.0554
     36  C4B       90.5210   94.7520  -19.7680 C.2   179  PUB179      0.0929
     37  CHB       90.1990   94.4650  -21.1010 C.3   179  PUB179      0.1128
     38  CMB       92.6940   96.1390  -16.9780 C.3   179  PUB179      0.0075
     39  CAB       92.3500   96.6560  -20.2240 C.3   179  PUB179      0.0189
     40  CBB       91.6550   98.0330  -20.3530 C.3   179  PUB179      0.1145
     41  CGB       90.7510   98.4440  -19.1840 C.2   179  PUB179      0.3649
     42  O1B       89.3220   98.6640  -19.2530 O.co2 179  PUB179     -0.2457
     43  O2B       91.2880   98.8790  -18.1630 O.co2 179  PUB179     -0.2457
@<TRIPOS>BOND
     1    11    10   ar
     2    12    10   ar
     3    10     9    1
     4     9     8    1
     5     7     5    1
     6     8     4    1
     7    20    17    2
     8     5     4    2
     9     5     6    1
    10     4     3    1
    11    17    13    2
    12    17    16    1
    13    13    14    2
    14    31    16    1
    15    31    19    1
    16    16    15    1
    17     6     1    1
    18     6     2    2
    19     3    37    1
    20     3     2    2
    21    14     1    1
    22    14    15    1
    23    37    36    1
    24    15    18    1
    25    40    39    1
    26    40    41    1
    27    39    35    1
    28    36    35    1
    29    36    32    2
    30    35    34    1
    31    42    41   ar
    32    41    43   ar
    33    32    33    2
    34    34    33    1
    35    34    38    1
    36    33    29    1
    37    29    25    1
    38    21    25    2
    39    21    22    2
    40    25    24    1
    41    22    28    2
    42    22    23    1
    43    24    30    1
    44    24    23    2
    45    30    27    1
    46    23    26    1
