@<TRIPOS>MOLECULE
1eyy_NAP_A_1.pdb
 31 33 0 0 0
SMALL
GASTEIGER

@<TRIPOS>ATOM
      1  PA        42.9720   45.4410   56.1090 P.3   650  NAP650      0.2231
      2  O1A       44.3680   44.9460   56.0460 O.2   650  NAP650     -0.5169
      3  O2A       42.6890   46.1970   57.3600 O.3   650  NAP650     -0.4370
      4  O5B       41.9020   44.2210   56.0250 O.3   650  NAP650     -0.3111
      5  C5B       42.1270   43.1370   55.0420 C.3   650  NAP650      0.1813
      6  C4B       41.5430   41.8220   55.7010 C.3   650  NAP650      0.1820
      7  O4B       42.4550   41.3490   56.6960 O.3   650  NAP650     -0.3136
      8  C3B       40.1460   41.9900   56.3830 C.3   650  NAP650      0.2157
      9  O3B       39.3820   40.8390   56.1340 O.3   650  NAP650     -0.2175
     10  C2B       40.5800   42.1890   57.8930 C.3   650  NAP650      0.2314
     11  O2B       39.6570   41.8120   58.8810 O.3   650  NAP650     -0.2630
     12  C1B       41.7710   41.2710   57.9410 C.3   650  NAP650      0.3158
     13  N9A       42.7230   41.6000   58.9550 N.pl3 650  NAP650     -0.1439
     14  C8A       43.6030   42.6530   58.9770 C.3   650  NAP650      0.3377
     15  N7A       44.5290   42.5300   59.8950 N.2   650  NAP650     -0.2095
     16  C5A       44.0790   41.4910   60.6480 C.2   650  NAP650      0.2526
     17  C6A       44.6590   40.8520   61.7940 C.2   650  NAP650      0.4393
     18  N6A       45.8420   41.2830   62.2500 N.pl3 650  NAP650      0.2180
     19  N1A       44.0500   39.6950   62.2510 N.2   650  NAP650      0.0021
     20  C2A       42.9970   39.1550   61.5200 C.3   650  NAP650      0.5254
     21  N3A       42.3820   39.6990   60.4750 N.2   650  NAP650     -0.0055
     22  C4A       43.0370   40.8300   60.0410 C.2   650  NAP650      0.3518
     23  O3        42.6180   46.2990   54.8980 O.3   650  NAP650     -0.2261
     24  PN        41.4310   47.0370   54.1520 P.3   650  NAP650      0.5373
     25  O1N       42.2120   48.2280   53.3300 O.3   650  NAP650     -0.1143
     26  O2N       40.4950   47.6440   55.1200 O.3   650  NAP650     -0.1143
     27  O5D       40.7760   46.1780   53.1340 O.2   650  NAP650     -0.2221
     28  P2B       38.2640   42.7850   59.0760 P.3   650  NAP650      0.5328
     29  O1X       37.9800   42.3900   60.4980 O.3   650  NAP650     -0.1145
     30  O2X       38.7920   44.1610   58.8980 O.3   650  NAP650     -0.1145
     31  O3X       37.3350   42.3490   58.0570 O.2   650  NAP650     -0.2224
@<TRIPOS>BOND
     1    27    24    2
     2    25    24    1
     3    24    23    1
     4    24    26    1
     5    23     1    1
     6     5     6    1
     7     5     4    1
     8     6     8    1
     9     6     7    1
    10     4     1    1
    11     2     1    2
    12     1     3    1
    13     9     8    1
    14     8    10    1
    15     7    12    1
    16    10    12    1
    17    10    11    1
    18    12    13    1
    19    31    28    2
    20    11    28    1
    21    30    28    1
    22    13    14    1
    23    13    22    1
    24    14    15    1
    25    28    29    1
    26    15    16    2
    27    22    21    2
    28    22    16    1
    29    21    20    1
    30    16    17    1
    31    20    19    1
    32    17    18    1
    33    17    19    2
