@<TRIPOS>MOLECULE
1eyz_ANP_A_1.pdb
 31 33 0 0 0
SMALL
GASTEIGER

@<TRIPOS>ATOM
      1  PG        30.0970   47.2040   26.1060 P.3   400  ANP400      0.4884
      2  O1G       28.7210   46.8040   25.6510 O.3   400  ANP400     -0.1240
      3  O2G       31.1140   47.2310   25.0020 O.2   400  ANP400     -0.2331
      4  O3G       30.6850   46.2720   27.2880 O.3   400  ANP400     -0.1240
      5  PB        30.5350   49.3960   28.0200 P.3   400  ANP400      0.4669
      6  O1B       29.4450   49.8040   28.9590 O.3   400  ANP400     -0.1253
      7  O2B       31.5550   48.4970   28.6590 O.2   400  ANP400     -0.2351
      8  N3B       29.9190   48.6990   26.6930 N.3   400  ANP400     -0.0163
      9  PA        32.7050   50.8580   26.8650 P.3   400  ANP400      0.2220
     10  O1A       33.8790   50.9550   27.8350 O.3   400  ANP400     -0.4370
     11  O2A       32.9810   49.6550   25.9890 O.2   400  ANP400     -0.5170
     12  O3A       31.3130   50.7370   27.5780 O.3   400  ANP400     -0.2360
     13  O5'       32.6690   52.1810   25.9780 O.3   400  ANP400     -0.3111
     14  C5'       31.6200   52.3680   24.9920 C.3   400  ANP400      0.1813
     15  C4'       32.1940   53.2150   23.8540 C.3   400  ANP400      0.1821
     16  O4'       32.5250   54.5680   24.3250 O.3   400  ANP400     -0.3135
     17  C3'       33.5030   52.6920   23.2740 C.3   400  ANP400      0.2184
     18  O3'       33.2510   51.5610   22.4180 O.3   400  ANP400     -0.2174
     19  C2'       34.0570   53.9970   22.6590 C.3   400  ANP400      0.2570
     20  O2'       33.3090   54.3820   21.4850 O.3   400  ANP400     -0.2130
     21  C1'       33.7150   55.0000   23.7670 C.3   400  ANP400      0.3186
     22  N9        34.7280   55.0570   24.8170 N.pl3 400  ANP400     -0.1439
     23  C8        34.7990   54.3670   25.9900 C.3   400  ANP400      0.3377
     24  N7        35.8580   54.7210   26.7460 N.2   400  ANP400     -0.2095
     25  C5        36.5020   55.7040   26.0030 C.2   400  ANP400      0.2526
     26  C6        37.6490   56.4840   26.2870 C.2   400  ANP400      0.4393
     27  N6        38.3890   56.4670   27.3090 N.pl3 400  ANP400      0.2180
     28  N1        37.9480   57.3090   25.2550 N.2   400  ANP400      0.0021
     29  C2        37.2360   57.4350   24.0880 C.3   400  ANP400      0.5254
     30  N3        36.1280   56.7730   23.8330 N.2   400  ANP400     -0.0055
     31  C4        35.8270   55.8910   24.8030 C.2   400  ANP400      0.3518
@<TRIPOS>BOND
     1    20    19    1
     2    18    17    1
     3    19    17    1
     4    19    21    1
     5    17    15    1
     6    21    16    1
     7    21    22    1
     8    30    29    1
     9    30    31    2
    10    15    16    1
    11    15    14    1
    12    29    28    1
    13    31    22    1
    14    31    25    1
    15    22    23    1
    16    14    13    1
    17     3     1    2
    18    28    26    2
    19     2     1    1
    20    13     9    1
    21    11     9    2
    22    23    24    1
    23    25    26    1
    24    25    24    2
    25     1     8    1
    26     1     4    1
    27    26    27    1
    28     8     5    1
    29     9    12    1
    30     9    10    1
    31    12     5    1
    32     5     7    2
    33     5     6    1
