@<TRIPOS>MOLECULE
1ez0_NAP_A_1.pdb
 48 52 0 0 0
SMALL
GASTEIGER

@<TRIPOS>ATOM
      1  PA        42.9580   45.3590   55.9510 P.3   650  NAP650      0.2189
      2  O1A       44.3630   44.8820   55.9120 O.2   650  NAP650     -0.5170
      3  O2A       42.6660   46.1980   57.1520 O.3   650  NAP650     -0.4371
      4  O5B       41.9160   44.1070   55.9710 O.3   650  NAP650     -0.3112
      5  C5B       42.0210   43.0770   54.9160 C.3   650  NAP650      0.1813
      6  C4B       41.4260   41.7540   55.5490 C.3   650  NAP650      0.1820
      7  O4B       42.3410   41.2580   56.5350 O.3   650  NAP650     -0.3136
      8  C3B       40.0290   41.9360   56.2330 C.3   650  NAP650      0.2157
      9  O3B       39.2020   40.8390   55.9180 O.3   650  NAP650     -0.2175
     10  C2B       40.4480   42.0450   57.7600 C.3   650  NAP650      0.2314
     11  O2B       39.5030   41.6010   58.7020 O.3   650  NAP650     -0.2630
     12  C1B       41.6600   41.1360   57.7800 C.3   650  NAP650      0.3158
     13  N9A       42.6220   41.4660   58.7880 N.pl3 650  NAP650     -0.1439
     14  C8A       43.4400   42.5710   58.8410 C.3   650  NAP650      0.3377
     15  N7A       44.0380   42.6940   60.0000 N.2   650  NAP650     -0.2095
     16  C5A       43.9340   41.4410   60.5170 C.2   650  NAP650      0.2526
     17  C6A       44.5040   40.8680   61.7000 C.2   650  NAP650      0.4393
     18  N6A       45.5930   41.4290   62.2370 N.pl3 650  NAP650      0.2180
     19  N1A       43.9040   39.7260   62.2070 N.2   650  NAP650      0.0021
     20  C2A       42.8810   39.1240   61.4690 C.3   650  NAP650      0.5254
     21  N3A       42.3160   39.5810   60.3490 N.2   650  NAP650     -0.0055
     22  C4A       42.9530   40.7080   59.8870 C.2   650  NAP650      0.3518
     23  O3        42.5660   46.1280   54.6830 O.3   650  NAP650     -0.2703
     24  PN        41.4980   47.1540   54.0940 P.3   650  NAP650      0.2189
     25  O1N       40.7720   47.8240   55.1970 O.3   650  NAP650     -0.4371
     26  O2N       40.5980   46.5460   53.0870 O.2   650  NAP650     -0.5170
     27  O5D       42.4530   48.2710   53.3190 O.3   650  NAP650     -0.3112
     28  C5D       42.5240   48.2610   51.8630 C.3   650  NAP650      0.1813
     29  C4D       44.0000   47.9800   51.5340 C.3   650  NAP650      0.1799
     30  O4D       44.0470   46.9040   50.5750 O.3   650  NAP650     -0.3327
     31  C3D       44.6990   49.1960   50.8540 C.3   650  NAP650      0.2158
     32  O3D       45.8690   49.5300   51.6020 O.3   650  NAP650     -0.2175
     33  C2D       45.0000   48.6230   49.4220 C.3   650  NAP650      0.2309
     34  O2D       46.1930   49.1950   48.8600 O.3   650  NAP650     -0.2158
     35  C1D       45.1540   47.1280   49.7170 C.3   650  NAP650      0.2263
     36  N1N       45.0360   46.2620   48.4900 N.pl3 650  NAP650     -0.2787
     37  C2N       46.2790   45.8270   47.9090 C.3   650  NAP650      0.1244
     38  C3N       46.2000   45.3530   46.5730 C.2   650  NAP650      0.0544
     39  C7N       47.5440   44.9480   45.8840 C.2   650  NAP650      0.2818
     40  O7N       47.5070   43.9960   45.1060 O.2   650  NAP650     -0.2670
     41  N7N       48.6970   45.4790   46.4210 N.am  650  NAP650     -0.0839
     42  C4N       44.9720   45.2480   45.7900 C.2   650  NAP650      0.0033
     43  C5N       43.8370   45.8040   46.4970 C.2   650  NAP650      0.0157
     44  C6N       43.7940   46.1070   47.8300 C.2   650  NAP650      0.0633
     45  P2B       38.2090   42.6670   59.0860 P.3   650  NAP650      0.5328
     46  O1X       37.3020   42.2610   57.9450 O.2   650  NAP650     -0.2224
     47  O2X       37.8090   42.1690   60.4330 O.3   650  NAP650     -0.1145
     48  O3X       38.7430   44.0140   59.0620 O.3   650  NAP650     -0.1145
@<TRIPOS>BOND
     1    40    39    2
     2    42    43    1
     3    42    38    2
     4    39    41   am
     5    39    38    1
     6    43    44    2
     7    38    37    1
     8    44    36    1
     9    37    36    1
    10    36    35    1
    11    34    33    1
    12    33    35    1
    13    33    31    1
    14    35    30    1
    15    30    29    1
    16    31    29    1
    17    31    32    1
    18    29    28    1
    19    28    27    1
    20    26    24    2
    21    27    24    1
    22    24    23    1
    23    24    25    1
    24    23     1    1
    25     5     6    1
    26     5     4    1
    27     6     8    1
    28     6     7    1
    29     2     1    2
    30     9     8    1
    31     1     4    1
    32     1     3    1
    33     8    10    1
    34     7    12    1
    35    10    12    1
    36    10    11    1
    37    12    13    1
    38    46    45    2
    39    11    45    1
    40    13    14    1
    41    13    22    1
    42    14    15    1
    43    48    45    1
    44    45    47    1
    45    22    21    2
    46    22    16    1
    47    15    16    2
    48    21    20    1
    49    16    17    1
    50    20    19    1
    51    17    19    2
    52    17    18    1
