@<TRIPOS>MOLECULE
1ez1_ANP_A_1.pdb
 31 33 0 0 0
SMALL
GASTEIGER

@<TRIPOS>ATOM
      1  PG        30.5250   46.6230   25.9130 P.3   400  ANP400      0.4884
      2  O1G       29.1760   46.1820   25.4310 O.3   400  ANP400     -0.1240
      3  O2G       31.6070   46.6700   24.8580 O.2   400  ANP400     -0.2331
      4  O3G       31.0480   45.7910   27.1820 O.3   400  ANP400     -0.1240
      5  PB        30.8650   48.8330   27.8360 P.3   400  ANP400      0.4669
      6  O1B       29.7920   49.3340   28.7190 O.3   400  ANP400     -0.1253
      7  O2B       31.9390   48.0650   28.4840 O.2   400  ANP400     -0.2351
      8  N3B       30.2990   48.1220   26.4940 N.3   400  ANP400     -0.0163
      9  PA        33.0220   50.3790   26.6820 P.3   400  ANP400      0.2220
     10  O1A       34.1650   50.6130   27.6180 O.3   400  ANP400     -0.4370
     11  O2A       33.3810   49.2180   25.8370 O.2   400  ANP400     -0.5170
     12  O3A       31.6140   50.1630   27.3540 O.3   400  ANP400     -0.2360
     13  O5'       32.9150   51.7170   25.7810 O.3   400  ANP400     -0.3111
     14  C5'       31.9080   51.7500   24.7440 C.3   400  ANP400      0.1813
     15  C4'       32.5260   52.6360   23.6560 C.3   400  ANP400      0.1821
     16  O4'       32.8230   53.9600   24.2420 O.3   400  ANP400     -0.3135
     17  C3'       33.8970   52.2130   23.1640 C.3   400  ANP400      0.2184
     18  O3'       33.7640   51.2050   22.1660 O.3   400  ANP400     -0.2174
     19  C2'       34.4300   53.5410   22.6230 C.3   400  ANP400      0.2570
     20  O2'       33.7720   53.8640   21.3810 O.3   400  ANP400     -0.2130
     21  C1'       33.9960   54.5070   23.7190 C.3   400  ANP400      0.3186
     22  N9        35.0230   54.6470   24.7860 N.pl3 400  ANP400     -0.1439
     23  C8        35.0860   53.9940   25.9640 C.3   400  ANP400      0.3377
     24  N7        36.1310   54.3550   26.6880 N.2   400  ANP400     -0.2095
     25  C5        36.7880   55.3010   25.9730 C.2   400  ANP400      0.2526
     26  C6        37.8900   56.1040   26.3160 C.2   400  ANP400      0.4393
     27  N6        38.5780   56.0700   27.3710 N.pl3 400  ANP400      0.2180
     28  N1        38.2420   56.9300   25.2960 N.2   400  ANP400      0.0021
     29  C2        37.5410   57.0420   24.1220 C.3   400  ANP400      0.5254
     30  N3        36.4640   56.3780   23.8460 N.2   400  ANP400     -0.0055
     31  C4        36.1290   55.4940   24.7930 C.2   400  ANP400      0.3518
@<TRIPOS>BOND
     1    20    19    1
     2    18    17    1
     3    19    17    1
     4    19    21    1
     5    17    15    1
     6    15    16    1
     7    15    14    1
     8    21    16    1
     9    21    22    1
    10    30    29    1
    11    30    31    2
    12    29    28    1
    13    14    13    1
    14    22    31    1
    15    22    23    1
    16    31    25    1
    17     3     1    2
    18    28    26    2
    19     2     1    1
    20    13     9    1
    21    11     9    2
    22     1     8    1
    23     1     4    1
    24    23    24    1
    25    25    26    1
    26    25    24    2
    27    26    27    1
    28     8     5    1
    29     9    12    1
    30     9    10    1
    31    12     5    1
    32     5     7    2
    33     5     6    1
