@<TRIPOS>MOLECULE
1ez1_GAR_A_1.pdb
 18 18 0 0 0
SMALL
GASTEIGER

@<TRIPOS>ATOM
      1  C1        23.8680   39.0290   25.9830 C.3   410  GAR410      0.2159
      2  O6        23.2610   37.8210   26.4420 O.3   410  GAR410     -0.2175
      3  C2        24.8810   38.9030   24.8730 C.3   410  GAR410      0.2325
      4  O8        24.5030   37.8750   23.9360 O.3   410  GAR410     -0.2157
      5  C3        24.7760   40.2730   24.2600 C.3   410  GAR410      0.2447
      6  O4        23.5110   40.7680   24.5080 O.3   410  GAR410     -0.3316
      7  C5        22.7960   39.8990   25.3500 C.3   410  GAR410      0.1801
      8  C10       21.8690   40.7310   26.1690 C.3   410  GAR410      0.1859
      9  O12       21.0170   41.5780   25.4130 O.3   410  GAR410     -0.2675
     10  N19       25.7130   41.1600   24.8840 N.am  410  GAR410     -0.1738
     11  C21       26.4230   42.1040   24.2900 C.2   410  GAR410      0.2629
     12  O22       26.3530   42.2800   23.0820 O.2   410  GAR410     -0.2716
     13  C23       27.2860   42.9560   25.1520 C.3   410  GAR410      0.1956
     14  N24       28.0300   43.9500   24.3590 N.3   410  GAR410     -0.1210
     15  P15       19.6620   42.0910   26.0280 P.3   410  GAR410      0.5327
     16  O16       20.1060   43.2360   26.9130 O.3   410  GAR410     -0.1145
     17  O17       18.8140   41.0570   26.7420 O.3   410  GAR410     -0.1145
     18  O18       18.8040   42.5640   24.8300 O.2   410  GAR410     -0.2224
@<TRIPOS>BOND
     1    12    11    2
     2     4     3    1
     3     5     6    1
     4     5     3    1
     5     5    10    1
     6    11    10   am
     7    11    13    1
     8    14    13    1
     9     6     7    1
    10    18    15    2
    11     3     1    1
    12     7     1    1
    13     7     8    1
    14     9    15    1
    15     9     8    1
    16     1     2    1
    17    15    17    1
    18    15    16    1
