@<TRIPOS>MOLECULE
1ez2_DII_A_1.pdb
 11 10 0 0 0
SMALL
GASTEIGER

@<TRIPOS>ATOM
      1  P1        48.6010   -8.2050   29.4810 P.3   1403  DII1403     0.3437
      2  O1        48.6210   -7.1150   28.4380 O.2   1403  DII1403    -0.2577
      3  O2        49.6920   -9.2940   29.2190 O.3   1403  DII1403    -0.2966
      4  C1        49.6620  -10.5620   29.9610 C.3   1403  DII1403     0.1241
      5  C2        49.0260  -11.7080   29.1710 C.3   1403  DII1403     0.0326
      6  C3        51.0520  -10.9790   30.4440 C.3   1403  DII1403     0.0326
      7  O3        47.2620   -9.0080   29.3410 O.3   1403  DII1403    -0.2966
      8  C4        46.0090   -8.3280   29.0820 C.3   1403  DII1403     0.1241
      9  C5        45.1280   -9.1970   28.1920 C.3   1403  DII1403     0.0326
     10  C6        45.3000   -8.0620   30.4100 C.3   1403  DII1403     0.0326
     11  C7        48.7450   -7.6010   30.9990 C.3   1403  DII1403     0.1287
@<TRIPOS>BOND
     1     9     8    1
     2     2     1    2
     3     8     7    1
     4     8    10    1
     5     5     4    1
     6     3     1    1
     7     3     4    1
     8     7     1    1
     9     1    11    1
    10     4     6    1
