@<TRIPOS>MOLECULE
1ez4_NAD_A_1.pdb
 44 48 0 0 0
SMALL
GASTEIGER

@<TRIPOS>ATOM
      1  PA        12.2200   50.7070   13.7610 P.3   1352  NAD1352     0.2189
      2  O1A       11.6490   49.5730   12.9960 O.2   1352  NAD1352    -0.5170
      3  O2A       11.3670   51.4320   14.7350 O.3   1352  NAD1352    -0.4371
      4  O5B       13.4880   50.0180   14.5050 O.3   1352  NAD1352    -0.3112
      5  C5B       14.1000   50.4920   15.7220 C.3   1352  NAD1352     0.1813
      6  C4B       13.9090   49.4490   16.8120 C.3   1352  NAD1352     0.1821
      7  O4B       14.3060   50.0010   18.0700 O.3   1352  NAD1352    -0.3135
      8  C3B       12.4340   49.1210   16.9840 C.3   1352  NAD1352     0.2184
      9  O3B       12.0240   48.1320   16.0290 O.3   1352  NAD1352    -0.2174
     10  C2B       12.2410   48.8220   18.4820 C.3   1352  NAD1352     0.2570
     11  O2B       11.7850   47.5090   18.8970 O.3   1352  NAD1352    -0.2130
     12  C1B       13.6180   49.1760   19.0290 C.3   1352  NAD1352     0.3186
     13  N9A       13.5620   49.7750   20.3780 N.pl3 1352  NAD1352    -0.1439
     14  C8A       12.6350   50.6240   20.8500 C.3   1352  NAD1352     0.3377
     15  N7A       12.8590   50.8860   22.1420 N.2   1352  NAD1352    -0.2095
     16  C5A       13.9580   50.1890   22.4260 C.2   1352  NAD1352     0.2526
     17  C6A       14.6540   50.1970   23.6400 C.2   1352  NAD1352     0.4393
     18  N6A       14.2940   50.9580   24.6630 N.pl3 1352  NAD1352     0.2180
     19  N1A       15.7890   49.4660   23.6890 N.2   1352  NAD1352     0.0021
     20  C2A       16.2380   48.7780   22.6340 C.3   1352  NAD1352     0.5254
     21  N3A       15.5810   48.7770   21.4700 N.2   1352  NAD1352    -0.0055
     22  C4A       14.4320   49.4860   21.3470 C.2   1352  NAD1352     0.3518
     23  O3        12.8310   51.7690   12.7120 O.3   1352  NAD1352    -0.2703
     24  PN        14.0110   51.7900   11.6140 P.3   1352  NAD1352     0.2189
     25  O1N       13.5100   52.1360   10.2620 O.2   1352  NAD1352    -0.5170
     26  O2N       14.8930   50.5970   11.7360 O.3   1352  NAD1352    -0.4371
     27  O5D       14.8560   53.0610   12.0890 O.3   1352  NAD1352    -0.3112
     28  C5D       15.4480   53.1020   13.4000 C.3   1352  NAD1352     0.1813
     29  C4D       16.0130   54.4780   13.7370 C.3   1352  NAD1352     0.1799
     30  O4D       17.1000   54.7950   12.8150 O.3   1352  NAD1352    -0.3327
     31  C3D       14.8720   55.4970   13.6220 C.3   1352  NAD1352     0.2158
     32  O3D       14.8440   56.5040   14.6650 O.3   1352  NAD1352    -0.2175
     33  C2D       15.0730   55.9680   12.1780 C.3   1352  NAD1352     0.2309
     34  O2D       14.4400   57.2320   11.9370 O.3   1352  NAD1352    -0.2158
     35  C1D       16.6090   55.9450   12.0900 C.3   1352  NAD1352     0.2263
     36  N1N       17.2320   56.0690   10.7460 N.pl3 1352  NAD1352    -0.2787
     37  C2N       18.4230   56.8150   10.7470 C.3   1352  NAD1352     0.1244
     38  C3N       18.8030   57.6000    9.6550 C.2   1352  NAD1352     0.0544
     39  C7N       19.8540   58.7150    9.8640 C.2   1352  NAD1352     0.2818
     40  O7N       20.1810   59.4780    8.9570 O.2   1352  NAD1352    -0.2670
     41  N7N       20.3830   58.8450   11.0740 N.am  1352  NAD1352    -0.0839
     42  C4N       18.0240   57.5230    8.4900 C.2   1352  NAD1352     0.0033
     43  C5N       16.8840   56.7100    8.4250 C.2   1352  NAD1352     0.0157
     44  C6N       16.4730   55.9920    9.5520 C.2   1352  NAD1352     0.0633
@<TRIPOS>BOND
     1    43    42    1
     2    43    44    2
     3    42    38    2
     4    40    39    2
     5    44    36    1
     6    38    39    1
     7    38    37    1
     8    39    41   am
     9    25    24    2
    10    36    37    1
    11    36    35    1
    12    24    26    1
    13    24    27    1
    14    24    23    1
    15    34    33    1
    16    27    28    1
    17    35    33    1
    18    35    30    1
    19    33    31    1
    20    23     1    1
    21    30    29    1
    22     2     1    2
    23    28    29    1
    24    31    29    1
    25    31    32    1
    26     1     4    1
    27     1     3    1
    28     4     5    1
    29     5     6    1
    30     9     8    1
    31     6     8    1
    32     6     7    1
    33     8    10    1
    34     7    12    1
    35    10    11    1
    36    10    12    1
    37    12    13    1
    38    13    14    1
    39    13    22    1
    40    14    15    1
    41    22    21    2
    42    22    16    1
    43    21    20    1
    44    15    16    2
    45    16    17    1
    46    20    19    1
    47    17    19    2
    48    17    18    1
