@<TRIPOS>MOLECULE
1ez9_GLC_A_1.pdb
 11 11 0 0 0
SMALL
GASTEIGER

@<TRIPOS>ATOM
      1  C1        -4.3670   -3.1760    3.3690 C.3   381  GLC381      0.1777
      2  C2        -3.7930   -2.3680    2.2060 C.3   381  GLC381      0.2141
      3  C3        -4.5520   -2.6660    0.9010 C.3   381  GLC381      0.2173
      4  C4        -4.6890   -4.1740    0.6580 C.3   381  GLC381      0.2142
      5  C5        -5.2400   -4.8630    1.9030 C.3   381  GLC381      0.1810
      6  C6        -5.2940   -6.3690    1.7780 C.3   381  GLC381      0.2141
      7  O2        -3.8930   -0.9830    2.5090 O.3   381  GLC381     -0.2176
      8  O3        -3.8590   -2.0820   -0.1910 O.3   381  GLC381     -0.2175
      9  O4        -5.5940   -4.3970   -0.4370 O.3   381  GLC381     -0.2176
     10  O5        -4.4120   -4.5580    3.0400 O.3   381  GLC381     -0.3481
     11  O6        -6.1250   -6.9230    2.7820 O.3   381  GLC381     -0.2176
@<TRIPOS>BOND
     1     9     4    1
     2     8     3    1
     3     4     3    1
     4     4     5    1
     5     3     2    1
     6     6     5    1
     7     6    11    1
     8     5    10    1
     9     2     7    1
    10     2     1    1
    11    10     1    1
