@<TRIPOS>MOLECULE
1ez9_GLO_B_1.pdb
 12 11 0 0 0
SMALL
GASTEIGER

@<TRIPOS>ATOM
      1  C1        23.1590   -0.6160   37.7440 C.3   1380  GLO1380     0.2175
      2  C2        23.9260   -1.7800   37.1460 C.3   1380  GLO1380     0.2175
      3  C3        23.1660   -3.1120   37.2250 C.3   1380  GLO1380     0.2175
      4  C4        24.0940   -4.2850   36.8990 C.3   1380  GLO1380     0.2175
      5  C5        23.4050   -5.6280   37.1400 C.3   1380  GLO1380     0.2175
      6  C6        24.3910   -6.7180   37.5290 C.3   1380  GLO1380     0.2175
      7  O1        23.0750   -0.7320   39.1560 O.3   1380  GLO1380    -0.2175
      8  O2        24.2560   -1.4910   35.7950 O.3   1380  GLO1380    -0.2175
      9  O3        22.0750   -3.1020   36.3150 O.3   1380  GLO1380    -0.2175
     10  O4        24.5080   -4.2030   35.5230 O.3   1380  GLO1380    -0.2175
     11  O5        22.4180   -5.4940   38.1500 O.3   1380  GLO1380    -0.2175
     12  O6        24.0040   -7.9810   37.0050 O.3   1380  GLO1380    -0.2175
@<TRIPOS>BOND
     1    10     4    1
     2     8     2    1
     3     9     3    1
     4     4     5    1
     5     4     3    1
     6    12     6    1
     7     5     6    1
     8     5    11    1
     9     2     3    1
    10     2     1    1
    11     1     7    1
