@<TRIPOS>MOLECULE
1ezf_IN0_A_1.pdb
 40 43 0 0 0
SMALL
GASTEIGER

@<TRIPOS>ATOM
      1  C1        -9.8250   43.3230   32.4290 C.ar  991  IN0991      0.0233
      2  C7       -10.8190   42.5380   33.3050 C.3   991  IN0991      0.1615
      3  C17      -10.2330   41.8570   34.5510 C.ar  991  IN0991      0.0088
      4  C28      -10.2640   42.5110   35.8050 C.ar  991  IN0991     -0.0016
      5  C27       -9.7560   41.8760   36.9520 C.ar  991  IN0991     -0.0002
      6  C26       -9.2170   40.5750   36.8490 C.ar  991  IN0991     -0.0000
      7  C16       -9.1820   39.9110   35.6060 C.ar  991  IN0991     -0.0002
      8  C29       -8.6750   38.5990   35.5140 C.ar  991  IN0991     -0.0000
      9  C30       -8.6630   37.9340   34.2770 C.ar  991  IN0991     -0.0000
     10  C31       -9.1480   38.5740   33.1260 C.ar  991  IN0991     -0.0000
     11  C33       -9.6550   39.8770   33.2120 C.ar  991  IN0991     -0.0002
     12  C15       -9.6850   40.5540   34.4480 C.ar  991  IN0991     -0.0014
     13  O6       -11.9650   43.3530   33.6390 O.3   991  IN0991     -0.3401
     14  C5       -12.5400   44.0730   32.5250 C.3   991  IN0991      0.2011
     15  C14      -13.9540   44.5680   32.9380 C.3   991  IN0991      0.1258
     16  C11      -14.4520   45.7140   32.0960 C.2   991  IN0991      0.2448
     17  O58      -13.6840   46.6030   31.7710 O.2   991  IN0991     -0.2732
     18  N23      -15.7550   45.7020   31.7270 N.am  991  IN0991     -0.1949
     19  C38      -16.2950   46.7880   30.9000 C.3   991  IN0991      0.2090
     20  C61      -16.8620   46.2850   29.5470 C.3   991  IN0991      0.1472
     21  C62      -17.6300   47.3780   28.8310 C.2   991  IN0991      0.3672
     22  O64      -18.9440   47.1510   28.6390 O.co2 991  IN0991     -0.2456
     23  O63      -17.0870   48.4140   28.4520 O.co2 991  IN0991     -0.2456
     24  C60      -17.3750   47.5360   31.6510 C.2   991  IN0991      0.3848
     25  O66      -18.3330   46.8370   32.2850 O.co2 991  IN0991     -0.2437
     26  O65      -17.3720   48.7610   31.6660 O.co2 991  IN0991     -0.2437
     27  C4       -12.5580   43.2290   31.2560 C.2   991  IN0991      0.2570
     28  O13      -13.6180   42.7150   30.9310 O.2   991  IN0991     -0.2719
     29  N3       -11.3870   43.0760   30.5430 N.am  991  IN0991     -0.2569
     30  C2       -10.1390   43.5610   31.0700 C.ar  991  IN0991      0.0525
     31  C8        -9.2300   44.2480   30.2510 C.ar  991  IN0991      0.0155
     32  C9        -8.0360   44.7280   30.7840 C.ar  991  IN0991      0.0127
     33  C20       -7.7310   44.5240   32.1440 C.ar  991  IN0991      0.0575
     34 CL36       -6.2490   45.1490   32.8000 Cl    991  IN0991     -0.0823
     35  C21       -8.6210   43.8120   32.9640 C.ar  991  IN0991      0.0110
     36  C43      -11.4260   42.4940   29.1890 C.3   991  IN0991      0.0981
     37  C10      -11.1420   40.9710   28.9980 C.3   991  IN0991      0.0187
     38  C32      -12.2030   40.1100   29.7570 C.3   991  IN0991      0.0017
     39  C25      -11.1940   40.5860   27.4850 C.3   991  IN0991      0.0017
     40  C24       -9.7300   40.5860   29.5540 C.3   991  IN0991      0.0017
@<TRIPOS>BOND
     1    39    37    1
     2    23    21   ar
     3    22    21   ar
     4    21    20    1
     5    37    36    1
     6    37    40    1
     7    37    38    1
     8    36    29    1
     9    20    19    1
    10    31    32   ar
    11    31    30   ar
    12    29    30    1
    13    29    27   am
    14    32    33   ar
    15    19    24    1
    16    19    18    1
    17    28    27    2
    18    30     1   ar
    19    27    14    1
    20    24    26   ar
    21    24    25   ar
    22    18    16   am
    23    17    16    2
    24    16    15    1
    25    33    34    1
    26    33    35   ar
    27     1    35   ar
    28     1     2    1
    29    14    15    1
    30    14    13    1
    31    10    11   ar
    32    10     9   ar
    33    11    12   ar
    34     2    13    1
    35     2     3    1
    36     9     8   ar
    37    12     3   ar
    38    12     7   ar
    39     3     4   ar
    40     8     7   ar
    41     7     6   ar
    42     4     5   ar
    43     6     5   ar
