@<TRIPOS>MOLECULE
1ezq_RPR_A_1.pdb
 34 36 0 0 0
SMALL
GASTEIGER

@<TRIPOS>ATOM
      1  C1         7.2260    0.1870   17.7590 C.ar  265  RPR265     -0.0028
      2  C2         7.9430    0.8410   18.7920 C.ar  265  RPR265     -0.0003
      3  C3         9.3330    0.5830   18.8920 C.ar  265  RPR265     -0.0000
      4  C4         9.9990   -0.2930   17.9980 C.ar  265  RPR265     -0.0003
      5  C5         9.2750   -0.9420   16.9700 C.ar  265  RPR265     -0.0028
      6  C6         7.8800   -0.7010   16.8480 C.ar  265  RPR265     -0.0032
      7  C7         7.1360    3.9720   20.9030 C.ar  265  RPR265      0.0046
      8  C8         5.9420    3.5980   21.5860 C.ar  265  RPR265      0.0550
      9  C9         5.4120    2.2940   21.3340 C.ar  265  RPR265      0.0046
     10  C10        6.0620    1.4080   20.4320 C.ar  265  RPR265      0.0001
     11  C11        7.2490    1.7840   19.7550 C.ar  265  RPR265     -0.0000
     12  C12        7.7700    3.0800   20.0090 C.ar  265  RPR265      0.0001
     13  C13        5.2730    4.5350   22.5310 C.2   265  RPR265      0.2647
     14  N14        5.4850    5.8740   22.2930 N.am  265  RPR265     -0.2029
     15  C15        4.9130    6.9410   23.1240 C.3   265  RPR265      0.1065
     16  C16        4.4460    8.0750   22.1970 C.3   265  RPR265      0.0240
     17  C17        5.9910    7.4100   24.1730 C.3   265  RPR265      0.1233
     18  C18        5.3710    8.5300   25.0530 C.2   265  RPR265      0.3186
     19  O19        4.1050    8.1520   25.5930 O.3   265  RPR265     -0.4443
     20  C20        7.2930    7.9220   23.4540 C.3   265  RPR265      0.0392
     21  C21        7.0910   -1.3800   15.7640 C.3   265  RPR265      0.1356
     22  N22        6.7260   -0.4380   14.7000 N.3   265  RPR265     -0.1262
     23  C23        8.8140    7.3760   25.4750 C.ar  265  RPR265      0.0037
     24  C24        9.9870    7.6130   26.2340 C.ar  265  RPR265      0.0972
     25  C25       10.8930    8.6260   25.8190 C.ar  265  RPR265      0.0080
     26  C26       10.6260    9.3840   24.6630 C.ar  265  RPR265     -0.0001
     27  C27        9.4580    9.1410   23.9140 C.ar  265  RPR265     -0.0042
     28  C28        8.5360    8.1360   24.3060 C.ar  265  RPR265     -0.0213
     29  C29       10.2690    6.8280   27.4410 C.2   265  RPR265      0.4766
     30  N30       11.5370    6.6570   27.8650 N.pl3 265  RPR265      0.2047
     31  N31        9.2640    6.2760   28.1360 N.pl3 265  RPR265      0.2047
     32  O32        5.8330    9.6280   25.1930 O.2   265  RPR265     -0.2500
     33  O33        4.5770    4.1470   23.4760 O.2   265  RPR265     -0.2684
     34  C34        3.3210    9.1160   26.3120 C.3   265  RPR265      0.2556
@<TRIPOS>BOND
     1    22    21    1
     2    21     6    1
     3     6     5   ar
     4     6     1   ar
     5     5     4   ar
     6     1     2   ar
     7     4     3   ar
     8     2     3   ar
     9     2    11    1
    10    11    12   ar
    11    11    10   ar
    12    12     7   ar
    13    10     9   ar
    14     7     8   ar
    15     9     8   ar
    16     8    13    1
    17    16    15    1
    18    14    13   am
    19    14    15    1
    20    13    33    2
    21    15    17    1
    22    20    17    1
    23    20    28    1
    24    27    28   ar
    25    27    26   ar
    26    17    18    1
    27    28    23   ar
    28    26    25   ar
    29    18    32    2
    30    18    19    1
    31    23    24   ar
    32    19    34    1
    33    25    24   ar
    34    24    29    1
    35    29    30    2
    36    29    31    1
