@<TRIPOS>MOLECULE
1ezv_HEM_C_1.pdb
 43 50 0 0 0
SMALL
GASTEIGER

@<TRIPOS>ATOM
      1 FE        -10.4710   38.7620   -1.5100 Fe    401  HEM401      0.0000
      2  CHA      -11.6620   35.6440   -1.9710 C.2   401  HEM401      0.0000
      3  CHB      -13.0440   40.0780   -3.4200 C.2   401  HEM401      0.0000
      4  CHC       -9.2360   41.8940   -1.0490 C.2   401  HEM401      0.0000
      5  CHD       -7.8300   37.4690    0.3390 C.2   401  HEM401      0.0000
      6  NA       -12.0050   38.0310   -2.5180 N.ar  401  HEM401      0.0000
      7  C1A      -12.3350   36.6900   -2.5940 C.ar  401  HEM401      0.0000
      8  C2A      -13.5540   36.5350   -3.3500 C.ar  401  HEM401      0.0000
      9  C3A      -13.9000   37.7520   -3.8150 C.ar  401  HEM401      0.0000
     10  C4A      -12.9790   38.6970   -3.2420 C.ar  401  HEM401      0.0000
     11  CMA      -15.0750   38.0730   -4.7490 C.3   401  HEM401      0.0000
     12  CAA      -14.3120   35.2420   -3.4520 C.3   401  HEM401      0.0000
     13  CBA      -15.4330   35.2180   -2.4140 C.3   401  HEM401      0.0000
     14  CGA      -16.0720   33.8400   -2.2660 C.2   401  HEM401      0.0000
     15  O1A      -15.5880   33.0490   -1.4430 O.co2 401  HEM401      0.0000
     16  O2A      -17.0460   33.5450   -2.9700 O.co2 401  HEM401      0.0000
     17  NB       -11.0330   40.6040   -2.1390 N.2   401  HEM401      0.0000
     18  C1B      -12.1250   40.9670   -2.8990 C.2   401  HEM401      0.0000
     19  C2B      -12.1600   42.3820   -3.0910 C.2   401  HEM401      0.0000
     20  C3B      -11.1020   42.8910   -2.4090 C.2   401  HEM401      0.0000
     21  C4B      -10.3880   41.7780   -1.8270 C.2   401  HEM401      0.0000
     22  CMB      -13.2560   43.0880   -3.9490 C.3   401  HEM401      0.0000
     23  CAB      -10.6740   44.1890   -2.1900 C.3   401  HEM401      0.0000
     24  CBB      -11.0070   45.3510   -2.9010 C.3   401  HEM401      0.0000
     25  NC        -8.8630   39.5160   -0.5270 N.ar  401  HEM401      0.0000
     26  C1C       -8.5220   40.8570   -0.4540 C.ar  401  HEM401      0.0000
     27  C2C       -7.2510   41.0080    0.2140 C.ar  401  HEM401      0.0000
     28  C3C       -6.8780   39.7800    0.6270 C.ar  401  HEM401      0.0000
     29  C4C       -7.8600   38.8450    0.1380 C.ar  401  HEM401      0.0000
     30  CMC       -6.3410   42.2750    0.4460 C.3   401  HEM401      0.0000
     31  CAC       -5.7510   39.5670    1.4220 C.3   401  HEM401      0.0000
     32  CBC       -4.9980   38.3890    1.2040 C.3   401  HEM401      0.0000
     33  ND        -9.9020   36.9340   -0.8610 N.2   401  HEM401      0.0000
     34  C1D       -8.7970   36.5790   -0.1180 C.2   401  HEM401      0.0000
     35  C2D       -8.8360   35.1770    0.1860 C.2   401  HEM401      0.0000
     36  C3D       -9.8790   34.6550   -0.4960 C.2   401  HEM401      0.0000
     37  C4D      -10.5390   35.7540   -1.1620 C.2   401  HEM401      0.0000
     38  CMD       -7.8810   34.5330    1.1940 C.3   401  HEM401      0.0000
     39  CAD      -10.3620   33.1980   -0.4520 C.3   401  HEM401      0.0000
     40  CBD      -11.3840   33.0250    0.6870 C.3   401  HEM401      0.0000
     41  CGD      -12.8080   33.1940    0.2170 C.2   401  HEM401      0.0000
     42  O1D      -13.1990   32.5010   -0.7410 O.co2 401  HEM401      0.0000
     43  O2D      -13.5380   34.0440    0.7630 O.co2 401  HEM401      0.0000
@<TRIPOS>BOND
     1    11     9    1
     2    22    19    1
     3     9     8   ar
     4     9    10   ar
     5    12     8    1
     6    12    13    1
     7     3    10    2
     8     3    18    1
     9     8     7   ar
    10    10     6   ar
    11    19    18    1
    12    19    20    2
    13    16    14   ar
    14    24    23    1
    15    18    17    2
    16     7     6   ar
    17     7     2    2
    18     6     1    1
    19    13    14    1
    20    20    23    1
    21    20    21    1
    22    14    15   ar
    23    17    21    1
    24    17     1    1
    25     2    37    1
    26    21     4    2
    27     1    33    1
    28     1    25    1
    29    37    33    2
    30    37    36    1
    31     4    26    1
    32    33    34    1
    33    42    41   ar
    34    25    26   ar
    35    25    29   ar
    36    36    39    1
    37    36    35    2
    38    26    27   ar
    39    39    40    1
    40    34    35    1
    41    34     5    2
    42    29     5    1
    43    29    28   ar
    44    35    38    1
    45    27    30    1
    46    27    28   ar
    47    41    40    1
    48    41    43   ar
    49    28    31    1
    50    32    31    1
