@<TRIPOS>MOLECULE
1ezv_UQ6_C_1.pdb
 43 43 0 0 0
SMALL
GASTEIGER

@<TRIPOS>ATOM
      1  C1       -14.2330   63.1110    2.4070 C.2   506  UQ6506      0.0198
      2  C1M      -12.8610   62.7760    2.9690 C.3   506  UQ6506      0.0343
      3  C2       -14.2330   64.1130    1.3520 C.2   506  UQ6506      0.2282
      4  O2       -13.1650   64.6090    0.9970 O.2   506  UQ6506     -0.2836
      5  C3       -15.5360   64.4990    0.7590 C.2   506  UQ6506      0.2140
      6  C4       -16.6700   63.9200    1.1930 C.2   506  UQ6506      0.2140
      7  C5       -16.6330   62.9230    2.2250 C.2   506  UQ6506      0.2285
      8  O5       -17.6460   62.4050    2.6160 O.2   506  UQ6506     -0.2835
      9  C6       -15.3980   62.5340    2.8280 C.2   506  UQ6506      0.0235
     10  O3       -15.6290   65.4400   -0.2190 O.2   506  UQ6506     -0.4652
     11  C3M      -15.0710   66.7220   -0.4130 C.3   506  UQ6506      0.2528
     12  O4       -17.9150   64.2190    0.7150 O.2   506  UQ6506     -0.4652
     13  C4M      -19.1190   64.3360    1.4600 C.3   506  UQ6506      0.2528
     14  C7       -15.4790   61.4270    3.9470 C.3   506  UQ6506      0.0548
     15  C8       -14.9980   60.0510    3.4270 C.2   506  UQ6506     -0.0298
     16  C9       -13.7850   59.5240    3.5900 C.2   506  UQ6506     -0.0475
     17  C10      -12.6730   60.2820    4.3480 C.3   506  UQ6506      0.0260
     18  C11      -13.2520   58.1300    3.0520 C.3   506  UQ6506      0.0264
     19  C12      -11.8140   57.8440    3.4410 C.3   506  UQ6506      0.0297
     20  C13      -11.1910   56.5220    3.4100 C.2   506  UQ6506     -0.0342
     21  C14      -10.0740   56.0910    2.6560 C.2   506  UQ6506     -0.0478
     22  C15       -9.2990   56.9960    1.6860 C.3   506  UQ6506      0.0260
     23  C16       -9.4610   54.6410    2.7300 C.3   506  UQ6506      0.0263
     24  C17       -8.2690   54.1040    1.8770 C.3   506  UQ6506      0.0297
     25  C18       -8.1420   52.6110    1.9440 C.2   506  UQ6506     -0.0342
     26  C19       -7.5470   51.6610    2.7670 C.2   506  UQ6506     -0.0478
     27  C20       -7.6610   50.1760    2.4060 C.3   506  UQ6506      0.0260
     28  C21       -6.7500   51.9670    4.0580 C.3   506  UQ6506      0.0263
     29  C22       -5.4620   51.2110    4.3260 C.3   506  UQ6506      0.0297
     30  C23       -5.6500   50.0510    5.1910 C.2   506  UQ6506     -0.0342
     31  C24       -4.8810   48.9720    5.5600 C.2   506  UQ6506     -0.0478
     32  C25       -3.4490   48.6860    5.0950 C.3   506  UQ6506      0.0260
     33  C26       -5.3860   47.9050    6.5200 C.3   506  UQ6506      0.0263
     34  C27       -4.7670   47.8470    7.8890 C.3   506  UQ6506      0.0297
     35  C28       -4.5240   46.4680    8.2520 C.2   506  UQ6506     -0.0342
     36  C29       -4.4170   45.8650    9.4770 C.2   506  UQ6506     -0.0478
     37  C30       -4.5430   46.6360   10.8030 C.3   506  UQ6506      0.0260
     38  C31       -4.1500   44.3630    9.7020 C.3   506  UQ6506      0.0263
     39  C32       -4.2930   43.9480   11.1640 C.3   506  UQ6506      0.0297
     40  C33       -4.0350   42.5330   11.4470 C.2   506  UQ6506     -0.0342
     41  C34       -2.9750   41.8650   12.0630 C.2   506  UQ6506     -0.0478
     42  C35       -2.8950   40.3580   12.2790 C.3   506  UQ6506      0.0260
     43  C36       -1.7330   42.5360   12.6190 C.3   506  UQ6506      0.0260
@<TRIPOS>BOND
     1    11    10    1
     2    10     5    1
     3    12     6    1
     4    12    13    1
     5     5     6    2
     6     5     3    1
     7     4     3    2
     8     6     7    1
     9     3     1    1
    10    22    21    1
    11    24    25    1
    12    24    23    1
    13    25    26    2
    14     7     8    2
    15     7     9    1
    16    27    26    1
    17     1     9    2
    18     1     2    1
    19    21    23    1
    20    21    20    2
    21    26    28    1
    22     9    14    1
    23    18    19    1
    24    18    16    1
    25    20    19    1
    26    15    16    2
    27    15    14    1
    28    16    17    1
    29    28    29    1
    30    29    30    1
    31    32    31    1
    32    30    31    2
    33    31    33    1
    34    33    34    1
    35    34    35    1
    36    35    36    2
    37    36    38    1
    38    36    37    1
    39    38    39    1
    40    39    40    1
    41    40    41    2
    42    41    42    1
    43    41    43    1
