@<TRIPOS>MOLECULE
1ezv_SMA_C_1.pdb
 37 38 0 0 0
SMALL
GASTEIGER

@<TRIPOS>ATOM
      1  C2       -17.2860   37.7270  -17.8010 C.ar  505  SMA505      0.1220
      2  C3       -17.4970   37.1790  -19.0320 C.ar  505  SMA505      0.0475
      3  C3M      -17.4640   38.0320  -20.2910 C.3   505  SMA505      0.0373
      4  C4       -17.7470   35.7550  -19.1980 C.ar  505  SMA505      0.2002
      5  C4A      -17.7630   34.9550  -17.9400 C.ar  505  SMA505      0.1105
      6  C5       -18.0380   33.5130  -17.8940 C.ar  505  SMA505      0.1479
      7  C5M      -19.4010   32.0440  -19.0760 C.3   505  SMA505      0.2525
      8  C6       -18.0290   32.8350  -16.6910 C.ar  505  SMA505      0.0774
      9  C7       -17.7850   33.5300  -15.4730 C.ar  505  SMA505      0.1835
     10  C7M      -18.3940   31.5830  -14.2650 C.3   505  SMA505      0.2526
     11  C8       -17.5380   34.9240  -15.4490 C.ar  505  SMA505      0.2636
     12  C8A      -17.5280   35.6440  -16.6480 C.ar  505  SMA505      0.1925
     13  C9       -17.0610   39.2010  -17.5940 C.3   505  SMA505      0.0644
     14  C10      -15.7150   39.4970  -17.0720 C.3   505  SMA505      0.0104
     15  C11      -15.4040   40.9740  -16.7790 C.3   505  SMA505      0.0277
     16  C12      -14.1100   41.3360  -17.5400 C.3   505  SMA505      0.1175
     17  C13      -12.8470   40.7110  -16.7430 C.3   505  SMA505      0.0544
     18  C14      -11.6200   41.6600  -16.6460 C.3   505  SMA505      0.1176
     19  C15      -10.3070   40.9100  -16.8430 C.3   505  SMA505      0.0296
     20  C16       -9.0980   41.2900  -16.3570 C.3   505  SMA505      0.0028
     21  C17       -8.2190   40.5320  -15.4510 C.3   505  SMA505      0.0044
     22  C18       -7.6300   39.3550  -15.7680 C.3   505  SMA505      0.0217
     23  C19       -6.2820   38.9340  -15.4010 C.2   505  SMA505     -0.0482
     24  C20       -5.5970   39.3080  -14.2890 C.2   505  SMA505     -0.0342
     25  C21       -4.1920   38.8320  -13.9560 C.3   505  SMA505      0.0300
     26  C22      -16.5850   41.8880  -17.1170 C.3   505  SMA505      0.0025
     27  C23      -14.3040   42.9910  -19.0470 C.3   505  SMA505      0.1740
     28  C24      -13.2120   40.2870  -15.3230 C.3   505  SMA505      0.0050
     29  C25      -10.8500   43.6160  -15.6450 C.3   505  SMA505      0.1740
     30  C26       -5.7730   37.9900  -16.4720 C.3   505  SMA505      0.0260
     31  O1       -17.3100   36.9930  -16.6380 O.2   505  SMA505     -0.4544
     32  O4       -17.9260   35.2440  -20.3140 O.2   505  SMA505     -0.2866
     33  O5       -18.2710   32.8350  -19.0790 O.3   505  SMA505     -0.4711
     34  O7       -17.7830   32.8280  -14.2610 O.3   505  SMA505     -0.4680
     35  O8       -17.3080   35.5490  -14.2830 O.3   505  SMA505     -0.2800
     36  O12      -14.0230   42.6800  -17.7490 O.3   505  SMA505     -0.3535
     37  O14      -11.8430   43.0090  -16.3620 O.3   505  SMA505     -0.3535
@<TRIPOS>BOND
     1    32     4    2
     2     3     2    1
     3     4     2   ar
     4     4     5   ar
     5    33     7    1
     6    33     6    1
     7    27    36    1
     8     2     1   ar
     9     5     6   ar
    10     5    12   ar
    11     6     8   ar
    12     1    13    1
    13     1    31   ar
    14    36    16    1
    15    13    14    1
    16    16    15    1
    17    16    17    1
    18    26    15    1
    19    14    15    1
    20    19    18    1
    21    19    20    1
    22    17    18    1
    23    17    28    1
    24     8     9   ar
    25    12    31   ar
    26    12    11   ar
    27    18    37    1
    28    30    23    1
    29    37    29    1
    30    20    21    1
    31    22    21    1
    32    22    23    1
    33     9    11   ar
    34     9    34    1
    35    11    35    1
    36    23    24    2
    37    24    25    1
    38    10    34    1
