@<TRIPOS>MOLECULE
1f06_2NP_B_1.pdb
 13 12 0 0 0
SMALL
GASTEIGER

@<TRIPOS>ATOM
      1  C1         9.8330   34.5190   41.2540 C.2   950  2NP950      0.3819
      2  O11        8.7300   33.8240   41.2950 O.co2 950  2NP950     -0.2441
      3  O12       10.5830   34.6220   42.3120 O.co2 950  2NP950     -0.2441
      4  C2        10.2450   35.2170   39.9870 C.3   950  2NP950      0.1943
      5  N2        11.0260   36.3790   40.4010 N.3   950  2NP950     -0.1208
      6  C3        11.1340   34.3160   39.1640 C.3   950  2NP950      0.0310
      7  C4        10.3370   33.1800   38.5970 C.3   950  2NP950      0.0070
      8  C5        11.0360   32.6890   37.3490 C.3   950  2NP950      0.0331
      9  C6        12.3020   31.9830   37.7510 C.2   950  2NP950      0.0575
     10  C8        13.4790   32.5820   37.5600 C.2   950  2NP950      0.0021
     11  C7        12.2370   30.5910   38.3690 C.2   950  2NP950      0.3838
     12  O71       13.2620   30.0340   38.7530 O.co2 950  2NP950     -0.2409
     13  O72       11.1010   29.9880   38.5000 O.co2 950  2NP950     -0.2409
@<TRIPOS>BOND
     1     8     9    1
     2     8     7    1
     3    10     9    2
     4     9    11    1
     5    11    13   ar
     6    11    12   ar
     7     7     6    1
     8     6     4    1
     9     4     5    1
    10     4     1    1
    11     1     2   ar
    12     1     3   ar
