@<TRIPOS>MOLECULE
1f06_NDP_A_1.pdb
 48 52 0 0 0
SMALL
GASTEIGER

@<TRIPOS>ATOM
      1  PA        -4.4340   61.7490    7.8980 P.3   401  NDP401      0.2189
      2  O1A       -4.8930   62.6750    8.9760 O.3   401  NDP401     -0.4371
      3  O2A       -5.3050   61.5260    6.7190 O.2   401  NDP401     -0.5170
      4  O5B       -2.9730   62.1290    7.4620 O.3   401  NDP401     -0.3112
      5  C5B       -2.5910   61.7100    6.0710 C.3   401  NDP401      0.1813
      6  C4B       -1.8910   62.6690    5.1490 C.3   401  NDP401      0.1820
      7  O4B       -2.9100   63.5300    4.5440 O.3   401  NDP401     -0.3136
      8  C3B       -1.0160   63.6680    5.9610 C.3   401  NDP401      0.2157
      9  O3B        0.3070   63.2070    5.7880 O.3   401  NDP401     -0.2175
     10  C2B       -1.1410   64.9260    5.1050 C.3   401  NDP401      0.2314
     11  O2B       -0.0490   65.3040    4.2530 O.3   401  NDP401     -0.2630
     12  C1B       -2.5420   64.9170    4.6350 C.3   401  NDP401      0.3158
     13  N9A       -3.5570   65.8730    5.1040 N.pl3 401  NDP401     -0.1439
     14  C8A       -3.6960   65.7870    6.4500 C.3   401  NDP401      0.3377
     15  N7A       -4.6510   66.6030    6.9610 N.2   401  NDP401     -0.2095
     16  C5A       -5.0530   67.2460    5.8600 C.2   401  NDP401      0.2526
     17  C6A       -5.9810   68.2430    5.8190 C.2   401  NDP401      0.4393
     18  N6A       -6.5210   68.7590    6.9290 N.pl3 401  NDP401      0.2180
     19  N1A       -6.3510   68.7580    4.6210 N.2   401  NDP401      0.0021
     20  C2A       -5.7150   68.2280    3.5330 C.3   401  NDP401      0.5254
     21  N3A       -4.6870   67.3370    3.5350 N.2   401  NDP401     -0.0055
     22  C4A       -4.4290   66.8180    4.7540 C.2   401  NDP401      0.3518
     23  O3        -4.1880   60.3290    8.5770 O.3   401  NDP401     -0.2703
     24  PN        -3.2350   59.8930    9.7810 P.3   401  NDP401      0.2189
     25  O1N       -4.0290   59.0660   10.7090 O.3   401  NDP401     -0.4371
     26  O2N       -2.5530   61.0970   10.3160 O.2   401  NDP401     -0.5170
     27  O5D       -2.2290   59.0210    8.9370 O.3   401  NDP401     -0.3112
     28  C5D       -1.7620   57.7950    9.6230 C.3   401  NDP401      0.1813
     29  C4D       -1.2860   56.6360    8.8100 C.3   401  NDP401      0.1799
     30  O4D       -0.5800   55.7250    9.6700 O.3   401  NDP401     -0.3327
     31  C3D       -2.3930   55.8540    8.0990 C.3   401  NDP401      0.2158
     32  O3D       -2.3130   55.9630    6.6950 O.3   401  NDP401     -0.2175
     33  C2D       -2.2380   54.3890    8.5950 C.3   401  NDP401      0.2309
     34  O2D       -2.0950   53.4780    7.5290 O.3   401  NDP401     -0.2158
     35  C1D       -0.9670   54.3690    9.4700 C.3   401  NDP401      0.2263
     36  N1N       -1.1720   53.8060   10.8160 N.pl3 401  NDP401     -0.2787
     37  C2N       -0.4480   52.7200   11.1840 C.3   401  NDP401      0.1244
     38  C3N       -0.5490   52.0690   12.3620 C.2   401  NDP401      0.0544
     39  C7N        0.2010   50.9430   12.7190 C.2   401  NDP401      0.2818
     40  O7N        0.0150   50.3560   14.0250 O.2   401  NDP401     -0.2670
     41  N7N        1.0420   50.4870   11.7930 N.am  401  NDP401     -0.0839
     42  C4N       -1.4820   52.6440   13.1970 C.2   401  NDP401      0.0033
     43  C5N       -2.2750   53.7670   12.9070 C.2   401  NDP401      0.0157
     44  C6N       -2.0900   54.3700   11.6560 C.2   401  NDP401      0.0633
     45  P2B        0.3390   66.8170    3.9620 P.3   401  NDP401      0.5328
     46  O1X       -0.8510   67.4330    3.3180 O.3   401  NDP401     -0.1145
     47  O2X        0.6520   67.4210    5.2790 O.3   401  NDP401     -0.1145
     48  O3X        1.5160   66.7510    3.0780 O.2   401  NDP401     -0.2224
@<TRIPOS>BOND
     1    48    45    2
     2    46    45    1
     3    20    21    1
     4    20    19    1
     5    21    22    2
     6    45    11    1
     7    45    47    1
     8    11    10    1
     9     7    12    1
    10     7     6    1
    11    19    17    2
    12    12    13    1
    13    12    10    1
    14    22    13    1
    15    22    16    1
    16    13    14    1
    17    10     8    1
    18     6     8    1
    19     6     5    1
    20     9     8    1
    21    17    16    1
    22    17    18    1
    23    16    15    2
    24     5     4    1
    25    14    15    1
    26    32    31    1
    27     3     1    2
    28     4     1    1
    29    34    33    1
    30     1    23    1
    31     1     2    1
    32    31    33    1
    33    31    29    1
    34    23    24    1
    35    33    35    1
    36    29    28    1
    37    29    30    1
    38    27    28    1
    39    27    24    1
    40    35    30    1
    41    35    36    1
    42    24    26    2
    43    24    25    1
    44    36    37    1
    45    36    44    1
    46    37    38    1
    47    44    43    2
    48    41    39   am
    49    38    39    1
    50    38    42    2
    51    39    40    2
    52    43    42    1
