@<TRIPOS>MOLECULE
1f0l_APU_A_1.pdb
 43 47 0 0 0
SMALL
GASTEIGER

@<TRIPOS>ATOM
      1  PA       -12.2110   16.5500   29.6130 P.3   601  APU601      0.2141
      2  O1A      -12.0560   17.6450   28.6590 O.2   601  APU601     -0.5172
      3  O2A      -11.0200   15.7150   29.9290 O.3   601  APU601     -0.4373
      4  O5B      -14.5300   11.8980   30.8530 O.3   601  APU601     -0.2176
      5  C5B      -13.1640   12.2360   30.6370 C.3   601  APU601      0.2142
      6  C4B      -12.9530   13.2620   29.5020 C.3   601  APU601      0.1822
      7  O4B      -13.2230   12.8000   28.1550 O.3   601  APU601     -0.3135
      8  C3B      -13.9230   14.4450   29.6680 C.3   601  APU601      0.1885
      9  O3B      -13.4340   15.6510   29.0460 O.3   601  APU601     -0.3111
     10  C2B      -15.0950   14.0860   28.7700 C.3   601  APU601      0.2541
     11  O2B      -16.0290   15.1300   28.3510 O.3   601  APU601     -0.2131
     12  C1B      -14.3430   13.4940   27.5960 C.3   601  APU601      0.3185
     13  N9A      -15.0370   12.4850   26.7920 N.pl3 601  APU601     -0.1439
     14  C8A      -15.2230   12.5240   25.4300 C.3   601  APU601      0.3377
     15  N7A      -15.8460   11.4900   24.9630 N.2   601  APU601     -0.2095
     16  C5A      -16.0870   10.6760   26.0490 C.2   601  APU601      0.2526
     17  C6A      -16.6670    9.4270   26.1480 C.2   601  APU601      0.4393
     18  N6A      -17.2170    8.8160   25.0900 N.pl3 601  APU601      0.2180
     19  N1A      -16.8130    8.8800   27.3840 N.2   601  APU601      0.0021
     20  C2A      -16.2890    9.5420   28.4290 C.3   601  APU601      0.5254
     21  N3A      -15.6770   10.7330   28.4440 N.2   601  APU601     -0.0055
     22  C4A      -15.5920   11.2500   27.1820 C.2   601  APU601      0.3518
     23  N1U      -15.7620   17.2130   33.9530 N.am  601  APU601     -0.1766
     24  C2U      -16.6490   17.2300   34.9710 C.1   601  APU601      0.2845
     25  O2U      -16.2280   17.2130   36.1500 O.2   601  APU601     -0.1918
     26  N3U      -17.9840   17.3650   34.7100 N.2   601  APU601     -0.2452
     27  C4U      -18.5180   17.3720   33.4020 C.1   601  APU601      0.2182
     28  O4U      -19.7180   17.5830   33.2740 O.2   601  APU601     -0.2085
     29  C5U      -17.5140   17.4360   32.3820 C.2   601  APU601      0.1242
     30  C6U      -16.2210   17.2860   32.6720 C.2   601  APU601      0.0929
     31  C1D      -14.3140   17.1070   34.2600 C.3   601  APU601      0.2400
     32  C2D      -13.6740   15.8790   33.7360 C.3   601  APU601      0.2293
     33  O2D      -13.8190   14.7480   34.6580 O.3   601  APU601     -0.2158
     34  C3D      -12.2130   16.2970   33.5500 C.3   601  APU601      0.1902
     35  O3D      -11.4890   16.1940   34.7790 O.3   601  APU601     -0.2674
     36  C4D      -12.3440   17.7990   33.2470 C.3   601  APU601      0.1773
     37  O4D      -13.6940   18.1350   33.4920 O.3   601  APU601     -0.3321
     38  O5D      -12.8360   17.1650   30.9980 O.3   601  APU601     -0.3114
     39  C5D      -12.0590   18.1000   31.7810 C.3   601  APU601      0.1812
     40  PU        -9.8870   15.9120   34.7800 P.3   601  APU601      0.5327
     41  O1X       -9.4280   16.3400   36.1150 O.3   601  APU601     -0.1145
     42  O2X       -9.3980   16.9250   33.7090 O.2   601  APU601     -0.2224
     43  O3X       -9.5740   14.5290   34.3390 O.3   601  APU601     -0.1145
@<TRIPOS>BOND
     1    15    14    1
     2    15    16    2
     3    18    17    1
     4    14    13    1
     5    16    17    1
     6    16    22    1
     7    17    19    2
     8    13    22    1
     9    13    12    1
    10    22    21    2
    11    19    20    1
    12    12     7    1
    13    12    10    1
    14     7     6    1
    15    11    10    1
    16    20    21    1
    17     2     1    2
    18    10     8    1
    19     9     1    1
    20     9     8    1
    21     6     8    1
    22     6     5    1
    23     1     3    1
    24     1    38    1
    25     5     4    1
    26    38    39    1
    27    39    36    1
    28    29    30    2
    29    29    27    1
    30    30    23    1
    31    36    37    1
    32    36    34    1
    33    28    27    2
    34    27    26    2
    35    37    31    1
    36    34    32    1
    37    34    35    1
    38    42    40    2
    39    32    31    1
    40    32    33    1
    41    23    31    1
    42    23    24   am
    43    43    40    1
    44    26    24    2
    45    35    40    1
    46    40    41    1
    47    24    25    2
