@<TRIPOS>MOLECULE
1f0p_TRE_A_1.pdb
 23 24 0 0 0
SMALL
GASTEIGER

@<TRIPOS>ATOM
      1  C1        43.1240    4.7720   19.3490 C.3   1151  TRE1151     0.2713
      2  C2        41.7010    5.0040   18.8740 C.3   1151  TRE1151     0.2406
      3  C3        41.0830    3.8330   18.1300 C.3   1151  TRE1151     0.2198
      4  C4        42.0710    3.1580   17.2000 C.3   1151  TRE1151     0.2144
      5  C5        43.3810    2.8680   17.9350 C.3   1151  TRE1151     0.1835
      6  C6        44.4390    2.2560   17.0310 C.3   1151  TRE1151     0.2142
      7  O1        43.0850    4.0020   20.5410 O.3   1151  TRE1151    -0.3016
      8  O2        40.8740    5.3890   19.9780 O.3   1151  TRE1151    -0.2149
      9  O3        39.9940    4.2670   17.3020 O.3   1151  TRE1151    -0.2174
     10  O4        41.5960    1.9080   16.6790 O.3   1151  TRE1151    -0.2176
     11  O5        43.9430    4.1400   18.3780 O.3   1151  TRE1151    -0.3256
     12  O6        45.2580    1.3240   17.7420 O.3   1151  TRE1151    -0.2176
     13  C1P       44.3780    3.9460   21.1600 C.3   1151  TRE1151     0.2713
     14  C2P       44.2830    2.9460   22.3190 C.3   1151  TRE1151     0.2406
     15  C3P       43.2040    3.4250   23.3170 C.3   1151  TRE1151     0.2198
     16  C4P       43.4980    4.8600   23.7520 C.3   1151  TRE1151     0.2144
     17  C5P       43.6260    5.7560   22.5220 C.3   1151  TRE1151     0.1835
     18  C6P       43.9920    7.1910   22.8050 C.3   1151  TRE1151     0.2142
     19  O2P       43.9790    1.6550   21.8220 O.3   1151  TRE1151    -0.2149
     20  O3P       43.0790    2.5500   24.4210 O.3   1151  TRE1151    -0.2174
     21  O4P       42.4610    5.3670   24.6080 O.3   1151  TRE1151    -0.2176
     22  O5P       44.7000    5.2260   21.7110 O.3   1151  TRE1151    -0.3256
     23  O6P       43.7410    8.0340   21.6830 O.3   1151  TRE1151    -0.2176
@<TRIPOS>BOND
     1    10     4    1
     2     6    12    1
     3     6     5    1
     4     4     5    1
     5     4     3    1
     6     9     3    1
     7     5    11    1
     8     3     2    1
     9    11     1    1
    10     2     1    1
    11     2     8    1
    12     1     7    1
    13     7    13    1
    14    13    22    1
    15    13    14    1
    16    23    18    1
    17    22    17    1
    18    19    14    1
    19    14    15    1
    20    17    18    1
    21    17    16    1
    22    15    16    1
    23    15    20    1
    24    16    21    1
