@<TRIPOS>MOLECULE
1f0q_EMO_A_1.pdb
 20 22 0 0 0
SMALL
GASTEIGER

@<TRIPOS>ATOM
      1  C1        44.4380    8.6260    2.8160 C.ar  400  EMO400      0.2020
      2  O1        45.2150    9.7220    2.4500 O.3   400  EMO400     -0.2864
      3  C2        44.1340    7.7130    1.7570 C.ar  400  EMO400      0.0841
      4  C3        43.3440    6.5560    2.0280 C.ar  400  EMO400      0.1990
      5  O3        43.0370    5.6540    1.0140 O.3   400  EMO400     -0.2865
      6  C4        42.8410    6.2870    3.3480 C.ar  400  EMO400      0.0455
      7  C5        43.1290    7.1810    4.4340 C.ar  400  EMO400      0.0483
      8  C6        42.5980    6.8860    5.8540 C.2   400  EMO400      0.1960
      9  O6        41.9180    5.8870    6.0690 O.2   400  EMO400     -0.2866
     10  C7        42.9280    7.8720    7.0010 C.ar  400  EMO400      0.0448
     11  C8        42.4560    7.6230    8.3570 C.ar  400  EMO400     -0.0008
     12  C9        42.7810    8.5510    9.4250 C.ar  400  EMO400     -0.0186
     13  C10       42.3340    8.3970   10.8460 C.3   400  EMO400      0.0311
     14  C16       43.5810    9.7040    9.1550 C.ar  400  EMO400      0.0379
     15  C17       44.0450    9.9480    7.8270 C.ar  400  EMO400      0.1985
     16  O17       44.8310   11.1160    7.6330 O.3   400  EMO400     -0.2865
     17  C18       43.7500    9.0500    6.7400 C.ar  400  EMO400      0.0810
     18  C19       44.2690    9.3490    5.3210 C.2   400  EMO400      0.2019
     19  O19       44.9520   10.3400    5.0970 O.2   400  EMO400     -0.2864
     20  C20       43.9400    8.3710    4.1730 C.ar  400  EMO400      0.0812
@<TRIPOS>BOND
     1     5     4    1
     2     3     4   ar
     3     3     1   ar
     4     4     6   ar
     5     2     1    1
     6     1    20   ar
     7     6     7   ar
     8    20     7   ar
     9    20    18    1
    10     7     8    1
    11    19    18    2
    12    18    17    1
    13     8     9    2
    14     8    10    1
    15    17    10   ar
    16    17    15   ar
    17    10    11   ar
    18    16    15    1
    19    15    14   ar
    20    11    12   ar
    21    14    12   ar
    22    12    13    1
