@<TRIPOS>MOLECULE
1f0r_815_A_1.pdb
 31 35 0 0 0
SMALL
GASTEIGER

@<TRIPOS>ATOM
      1  C1         7.7410    9.1240   22.8480 C.ar  401  815401     -0.0026
      2  C2         9.0880    9.4590   23.1410 C.ar  401  815401     -0.0001
      3  C3         9.7550    8.8810   24.2720 C.ar  401  815401      0.0043
      4  C4         9.0680    7.9360   25.1490 C.ar  401  815401      0.0346
      5  C5         7.7300    7.5870   24.8810 C.ar  401  815401      0.0003
      6  C6         7.0170    8.2060   23.6710 C.ar  401  815401     -0.0022
      7  C10       11.1090    9.2260   24.5460 C.ar  401  815401      0.0208
      8  C11       11.7210    8.6290   25.6650 C.ar  401  815401      0.1004
      9  N12       11.0810    7.7380   26.4960 N.ar  401  815401     -0.2259
     10  C13        9.7720    7.3880   26.2540 C.ar  401  815401      0.1696
     11  C16        7.7850    1.0920   19.6120 C.ar  401  815401      0.0484
     12  C17        9.0610    0.9520   19.0840 C.ar  401  815401      0.0096
     13  C18        9.2710    0.4420   17.7740 C.ar  401  815401      0.0212
     14  C19        8.1400    0.0760   17.0030 C.ar  401  815401      0.0989
     15  N20        6.8780    0.2040   17.5050 N.ar  401  815401     -0.2433
     16  C21        6.6740    0.7000   18.7800 C.ar  401  815401      0.0892
     17  C25        5.4160    0.9140   19.4960 C.ar  401  815401      0.0462
     18  C26        5.6160    1.4400   20.7820 C.ar  401  815401      0.1545
     19  S27        7.2850    1.6670   21.1220 S.2   401  815401     -0.0657
     20  N28        5.5450    6.5380   22.6240 N.am  401  815401     -0.2742
     21  C29        5.0640    5.3650   23.0920 C.2   401  815401      0.2437
     22  C30        5.2120    4.3180   22.0020 C.3   401  815401      0.1754
     23  C31        5.4240    5.1650   20.7410 C.3   401  815401      0.0502
     24  C32        6.0400    6.4550   21.2450 C.3   401  815401      0.0958
     25  N37        4.0250    3.4980   21.9110 N.3   401  815401     -0.0694
     26  S38        4.2360    1.7790   21.8030 S.O2  401  815401      0.0830
     27  O39        2.9910    1.4090   21.1640 O.2   401  815401     -0.1511
     28  O40        4.5080    1.3770   23.1580 O.2   401  815401     -0.1511
     29  O41        4.5910    5.1490   24.2020 O.2   401  815401     -0.2733
     30  N42        9.2240    6.5130   27.1140 N.pl3 401  815401     -0.1072
     31  C43        5.5990    7.7970   23.3850 C.3   401  815401      0.1202
@<TRIPOS>BOND
     1    14    15   ar
     2    14    13   ar
     3    15    16   ar
     4    13    12   ar
     5    16    17   ar
     6    16    11   ar
     7    12    11   ar
     8    17    18   ar
     9    11    19   ar
    10    23    24    1
    11    23    22    1
    12    18    19   ar
    13    18    26    1
    14    27    26    2
    15    24    20    1
    16    26    25    1
    17    26    28    2
    18    25    22    1
    19    22    21    1
    20    20    21   am
    21    20    31    1
    22     1     2   ar
    23     1     6   ar
    24    21    29    2
    25     2     3   ar
    26    31     6    1
    27     6     5   ar
    28     3     7   ar
    29     3     4   ar
    30     7     8   ar
    31     5     4   ar
    32     4    10   ar
    33     8     9   ar
    34    10     9   ar
    35    10    30    1
