@<TRIPOS>MOLECULE
1f0s_PR2_A_1.pdb
 29 33 0 0 0
SMALL
GASTEIGER

@<TRIPOS>ATOM
      1  C16        7.6060    1.0940   19.3540 C.ar  401  PR2401      0.0484
      2  C17        8.9380    0.8560   18.9180 C.ar  401  PR2401      0.0096
      3  C18        9.1560    0.3320   17.6010 C.ar  401  PR2401      0.0212
      4  C19        8.0090    0.0760   16.7810 C.ar  401  PR2401      0.0989
      5  N20        6.7310    0.3140   17.2280 N.ar  401  PR2401     -0.2433
      6  C21        6.5230    0.8210   18.5140 C.ar  401  PR2401      0.0892
      7  C25        5.2240    1.0830   19.0410 C.ar  401  PR2401      0.0462
      8  C26        5.4170    1.5850   20.3580 C.ar  401  PR2401      0.1545
      9  S27        7.0600    1.6950   20.8240 S.2   401  PR2401     -0.0657
     10  N28        5.4360    6.6890   22.3610 N.am  401  PR2401     -0.2717
     11  C29        4.8530    5.5240   22.7290 C.2   401  PR2401      0.2438
     12  C30        5.1980    4.5040   21.6700 C.3   401  PR2401      0.1754
     13  C31        5.6910    5.3290   20.4780 C.3   401  PR2401      0.0502
     14  C32        6.1760    6.6130   21.1040 C.3   401  PR2401      0.0959
     15  N37        4.0380    3.7310   21.2460 N.3   401  PR2401     -0.0694
     16  S38        4.0940    2.1000   21.3290 S.O2  401  PR2401      0.0830
     17  O39        2.8170    1.7980   20.7620 O.2   401  PR2401     -0.1511
     18  O40        4.3660    1.8090   22.7100 O.2   401  PR2401     -0.1511
     19  O41        4.1840    5.3260   23.7370 O.2   401  PR2401     -0.2733
     20  C1         5.3970    7.9560   23.0940 C.3   401  PR2401      0.1526
     21  C5         8.2870    7.7370   25.3130 C.ar  401  PR2401      0.1502
     22  C2         8.8340    8.6580   24.3270 C.ar  401  PR2401      0.0349
     23  C3        10.1640    9.1550   24.4650 C.ar  401  PR2401      0.0233
     24  C4        10.9160    8.7110   25.5940 C.ar  401  PR2401      0.0991
     25  N5        10.3610    7.8440   26.4980 N.ar  401  PR2401     -0.2396
     26  C6         9.1030    7.3430   26.4150 C.ar  401  PR2401      0.1308
     27  C27        7.8360    8.8770   23.3640 C.2   401  PR2401      0.0319
     28  C28        6.7390    8.0990   23.7830 C.2   401  PR2401      0.1292
     29  N29        7.0010    7.4330   24.9230 N.2   401  PR2401     -0.4029
@<TRIPOS>BOND
     1     4     5   ar
     2     4     3   ar
     3     5     6   ar
     4     3     2   ar
     5     6     7   ar
     6     6     1   ar
     7     2     1   ar
     8     7     8   ar
     9     1     9   ar
    10     8     9   ar
    11     8    16    1
    12    13    14    1
    13    13    12    1
    14    17    16    2
    15    14    10    1
    16    15    16    1
    17    15    12    1
    18    16    18    2
    19    12    11    1
    20    10    11   am
    21    10    20    1
    22    11    19    2
    23    20    28    1
    24    27    28    1
    25    27    22    2
    26    28    29    2
    27    22    23   ar
    28    22    21   ar
    29    23    24   ar
    30    29    21    2
    31    21    26   ar
    32    24    25   ar
    33    26    25   ar
