@<TRIPOS>MOLECULE
1f0t_PR1_A_1.pdb
 30 33 0 0 0
SMALL
GASTEIGER

@<TRIPOS>ATOM
      1  C1        13.7720   -3.4110   25.0880 C.ar  304  PR1304      0.0113
      2  C2        14.1560   -3.5440   23.7510 C.ar  304  PR1304      0.0420
      3  C3        13.3000   -4.1340   22.8220 C.ar  304  PR1304      0.1933
      4  C4        12.0440   -4.6010   23.2210 C.ar  304  PR1304      0.0369
      5  C5        11.6700   -4.4620   24.5630 C.ar  304  PR1304      0.0086
      6  C6        12.5100   -3.8680   25.5270 C.ar  304  PR1304      0.0974
      7  C10       12.0420   -3.6980   27.0270 C.2   304  PR1304      0.4766
      8  N11       10.7640   -3.9510   27.3770 N.pl3 304  PR1304      0.2047
      9  N12       12.9090   -3.2960   27.9690 N.pl3 304  PR1304      0.2047
     10  C13       11.0480   -5.2790   22.2250 C.3   304  PR1304      0.1233
     11  O44       13.6830   -4.2570   21.5510 O.3   304  PR1304     -0.2869
     12  C16       12.8720  -13.0390   24.1350 C.ar  304  PR1304      0.0484
     13  C17       13.8970  -13.4940   24.9520 C.ar  304  PR1304      0.0096
     14  C18       15.0640  -14.0690   24.4210 C.ar  304  PR1304      0.0212
     15  C19       15.2430  -14.2110   23.0270 C.ar  304  PR1304      0.0989
     16  N20       14.2890  -13.7930   22.1540 N.ar  304  PR1304     -0.2433
     17  C21       13.0650  -13.1940   22.6230 C.ar  304  PR1304      0.0892
     18  C25       11.9690  -12.6880   21.9200 C.ar  304  PR1304      0.0462
     19  C26       10.9670  -12.1590   22.8150 C.ar  304  PR1304      0.1545
     20  S27       11.3720  -12.2880   24.4850 S.2   304  PR1304     -0.0657
     21  N28       11.0900   -6.7510   22.2170 N.am  304  PR1304     -0.2741
     22  C29       10.0010   -7.5520   22.3190 C.2   304  PR1304      0.2437
     23  C30       10.4840   -8.9760   22.3110 C.3   304  PR1304      0.1754
     24  C31       11.7780   -8.8860   21.5170 C.3   304  PR1304      0.0502
     25  C32       12.3140   -7.5010   21.8510 C.3   304  PR1304      0.0958
     26  N37        9.8950  -10.0120   21.5570 N.3   304  PR1304     -0.0694
     27  S38        9.4800  -11.4170   22.2470 S.O2  304  PR1304      0.0830
     28  O39        8.6800  -11.0280   23.3660 O.2   304  PR1304     -0.1511
     29  O40        8.9380  -12.1760   21.1670 O.2   304  PR1304     -0.1511
     30  O41        8.8430   -7.1990   22.3950 O.2   304  PR1304     -0.2733
@<TRIPOS>BOND
     1    29    27    2
     2    24    25    1
     3    24    23    1
     4    11     3    1
     5    26    27    1
     6    26    23    1
     7    25    21    1
     8    18    17   ar
     9    18    19   ar
    10    16    17   ar
    11    16    15   ar
    12    21    10    1
    13    21    22   am
    14    10     4    1
    15    27    19    1
    16    27    28    2
    17    23    22    1
    18    22    30    2
    19    17    12   ar
    20    19    20   ar
    21     3     4   ar
    22     3     2   ar
    23    15    14   ar
    24     4     5   ar
    25     2     1   ar
    26    12    20   ar
    27    12    13   ar
    28    14    13   ar
    29     5     6   ar
    30     1     6   ar
    31     6     7    1
    32     7     8    2
    33     7     9    1
