@<TRIPOS>MOLECULE
1f0u_RPR_A_1.pdb
 34 36 0 0 0
SMALL
GASTEIGER

@<TRIPOS>ATOM
      1  C1        12.5050  -14.8710   23.4830 C.ar  501  RPR501     -0.0028
      2  C2        12.9090  -13.6110   23.8810 C.ar  501  RPR501     -0.0003
      3  C3        14.0530  -13.5150   24.6540 C.ar  501  RPR501     -0.0000
      4  C4        14.7690  -14.6360   25.0460 C.ar  501  RPR501     -0.0003
      5  C5        14.3500  -15.8940   24.6550 C.ar  501  RPR501     -0.0028
      6  C6        13.2170  -16.0130   23.8570 C.ar  501  RPR501     -0.0032
      7  C7        10.0850  -11.2180   22.9830 C.ar  501  RPR501      0.0046
      8  C8        10.7820  -10.0770   22.5860 C.ar  501  RPR501      0.0550
      9  C9        12.1730  -10.1120   22.6430 C.ar  501  RPR501      0.0046
     10  C10       12.8400  -11.2490   23.0750 C.ar  501  RPR501      0.0001
     11  C11       12.1550  -12.3870   23.4590 C.ar  501  RPR501     -0.0000
     12  C12       10.7710  -12.3550   23.4140 C.ar  501  RPR501      0.0001
     13  C13       10.0600   -8.8680   22.1450 C.2   501  RPR501      0.2647
     14  N14       10.7800   -8.0000   21.3880 N.am  501  RPR501     -0.2029
     15  C15       10.2840   -6.6780   21.0060 C.3   501  RPR501      0.1065
     16  C16       10.7870   -6.3510   19.5940 C.3   501  RPR501      0.0240
     17  C17       10.7310   -5.6350   22.0590 C.3   501  RPR501      0.1233
     18  C18       10.0810   -4.2890   21.6970 C.2   501  RPR501      0.3186
     19  O19        8.6550   -4.3630   21.6680 O.3   501  RPR501     -0.4443
     20  C20       12.2730   -5.5160   22.1310 C.3   501  RPR501      0.0392
     21  C21       12.7840  -17.3630   23.3610 C.3   501  RPR501      0.1356
     22  N22       13.2850  -17.6150   22.0060 N.3   501  RPR501     -0.1262
     23  C23       12.2570   -4.5180   24.4810 C.ar  501  RPR501      0.0037
     24  C24       12.8600   -3.7520   25.4860 C.ar  501  RPR501      0.0972
     25  C25       14.0610   -3.0960   25.2170 C.ar  501  RPR501      0.0080
     26  C26       14.6290   -3.1830   23.9560 C.ar  501  RPR501     -0.0001
     27  C27       14.0180   -3.9360   22.9640 C.ar  501  RPR501     -0.0042
     28  C28       12.8390   -4.6300   23.2170 C.ar  501  RPR501     -0.0213
     29  C29       12.2420   -3.6320   26.8170 C.2   501  RPR501      0.4766
     30  N30       12.9490   -3.2590   27.8790 N.pl3 501  RPR501      0.2047
     31  N31       10.9350   -3.9120   26.9630 N.pl3 501  RPR501      0.2047
     32  O32       10.6790   -3.2860   21.4430 O.2   501  RPR501     -0.2500
     33  O33        8.8920   -8.6520   22.4350 O.2   501  RPR501     -0.2684
     34  C34        7.9040   -3.2530   21.1650 C.3   501  RPR501      0.2556
@<TRIPOS>BOND
     1    16    15    1
     2    15    14    1
     3    15    17    1
     4    34    19    1
     5    14    13   am
     6    32    18    2
     7    19    18    1
     8    18    17    1
     9    22    21    1
    10    17    20    1
    11    20    28    1
    12    13    33    2
    13    13     8    1
    14     8     9   ar
    15     8     7   ar
    16     9    10   ar
    17    27    28   ar
    18    27    26   ar
    19     7    12   ar
    20    10    11   ar
    21    28    23   ar
    22    21     6    1
    23    12    11   ar
    24    11     2    1
    25     1     6   ar
    26     1     2   ar
    27     6     5   ar
    28     2     3   ar
    29    26    25   ar
    30    23    24   ar
    31     3     4   ar
    32     5     4   ar
    33    25    24   ar
    34    24    29    1
    35    29    31    2
    36    29    30    1
