@<TRIPOS>MOLECULE
1f0v_NUC_M_1.pdb
 38 42 0 0 0
SMALL
GASTEIGER

@<TRIPOS>ATOM
      1  O5'       47.1360  -11.6250   -5.0490 O.3   751  DC751      -0.2176
      2  C5'       47.6260  -10.9600   -6.2120 C.3   751  DC751       0.2140
      3  C4'       46.6740   -9.8500   -6.5950 C.3   751  DC751       0.1774
      4  O4'       45.3850  -10.4110   -6.9390 O.3   751  DC751      -0.3339
      5  C3'       46.3740   -8.9050   -5.4390 C.3   751  DC751       0.1557
      6  O3'       47.2270   -7.7960   -5.5420 O.3   751  DC751      -0.3139
      7  C2'       44.9240   -8.5020   -5.6770 C.3   751  DC751       0.0845
      8  C1'       44.4380   -9.3810   -6.8190 C.3   751  DC751       0.2089
      9  N1        43.1290   -9.9960   -6.5110 N.am  751  DC751      -0.1802
     10  C2        41.9700   -9.2440   -6.7540 C.1   751  DC751       0.2756
     11  O2        42.1040   -8.1320   -7.2610 O.2   751  DC751      -0.1925
     12  N3        40.7550   -9.7420   -6.4120 N.2   751  DC751      -0.3024
     13  C4        40.6790  -10.9590   -5.8210 C.2   751  DC751       0.2346
     14  N4        39.4720  -11.4070   -5.4280 N.pl3 751  DC751      -0.0921
     15  C5        41.8320  -11.7500   -5.5940 C.2   751  DC751       0.0687
     16  C6        43.0310  -11.2490   -5.9610 C.2   751  DC751       0.0835
     17  P         47.3750   -6.7850   -4.2840 P.3   752  DG752       0.2141
     18  OP1       48.6710   -6.1070   -4.3510 O.2   752  DG752      -0.5172
     19  OP2       47.0160   -7.6140   -3.0720 O.3   752  DG752      -0.4373
     20  O5'       46.2470   -5.7540   -4.6560 O.3   752  DG752      -0.3114
     21  C5'       45.3320   -5.3050   -3.7500 C.3   752  DG752       0.1812
     22  C4'       44.9190   -3.9140   -4.1390 C.3   752  DG752       0.1772
     23  O4'       43.8740   -3.5900   -3.2170 O.3   752  DG752      -0.3347
     24  C3'       46.0190   -2.8750   -3.9490 C.3   752  DG752       0.1857
     25  O3'       45.9010   -1.8570   -4.9370 O.3   752  DG752      -0.2203
     26  C2'       45.7090   -2.2920   -2.5720 C.3   752  DG752       0.0865
     27  C1'       44.2020   -2.4520   -2.4570 C.3   752  DG752       0.1981
     28  N9        43.6900   -2.7070   -1.1150 N.pl3 752  DG752      -0.2374
     29  C8        44.2290   -3.5280   -0.1460 C.3   752  DG752       0.2245
     30  N7        43.5580   -3.4890    0.9780 N.2   752  DG752      -0.2322
     31  C5        42.4860   -2.6400    0.7220 C.2   752  DG752       0.2182
     32  C6        41.4180   -2.2070    1.5640 C.1   752  DG752       0.2372
     33  O6        41.1800   -2.5070    2.7340 O.2   752  DG752      -0.2069
     34  N1        40.5920   -1.3110    0.9110 N.2   752  DG752      -0.2485
     35  C2        40.7590   -0.8760   -0.3720 C.1   752  DG752       0.2531
     36  N2        39.8260   -0.0090   -0.8060 N.pl3 752  DG752      -0.0226
     37  N3        41.7460   -1.2630   -1.1690 N.2   752  DG752      -0.3074
     38  C4        42.5560   -2.1410   -0.5630 C.2   752  DG752       0.2299
@<TRIPOS>BOND
     1    11    10    2
     2     4     8    1
     3     4     3    1
     4     8     9    1
     5     8     7    1
     6    10     9   am
     7    10    12    2
     8     3     2    1
     9     3     5    1
    10     9    16    1
    11    12    13    2
    12     2     1    1
    13    16    15    2
    14    13    15    1
    15    13    14    1
    16     7     5    1
    17     6     5    1
    18     6    17    1
    19    25    24    1
    20    20    17    1
    21    20    21    1
    22    18    17    2
    23    17    19    1
    24    22    24    1
    25    22    21    1
    26    22    23    1
    27    24    26    1
    28    23    27    1
    29    26    27    1
    30    27    28    1
    31    37    38    2
    32    37    35    2
    33    28    38    1
    34    28    29    1
    35    36    35    1
    36    38    31    1
    37    35    34    2
    38    29    30    1
    39    31    30    2
    40    31    32    1
    41    34    32    2
    42    32    33    2
