@<TRIPOS>MOLECULE
1f0y_NAD_A_1.pdb
 44 48 0 0 0
SMALL
GASTEIGER

@<TRIPOS>ATOM
      1  PA         5.8540  -10.3360   -9.8910 P.3   350  NAD350      0.2189
      2  O1A        5.5040  -11.7750   -9.9440 O.3   350  NAD350     -0.4371
      3  O2A        7.2820   -9.9960  -10.0920 O.2   350  NAD350     -0.5170
      4  O5B        5.4200   -9.6550   -8.4980 O.3   350  NAD350     -0.3112
      5  C5B        4.1590   -9.8920   -7.8330 C.3   350  NAD350      0.1813
      6  C4B        4.3090   -9.7910   -6.4230 C.3   350  NAD350      0.1821
      7  O4B        2.9770   -9.9710   -5.8870 O.3   350  NAD350     -0.3135
      8  C3B        5.1420  -10.9050   -5.7700 C.3   350  NAD350      0.2184
      9  O3B        6.2990  -10.3780   -5.0990 O.3   350  NAD350     -0.2174
     10  C2B        4.1270  -11.6550   -4.8880 C.3   350  NAD350      0.2570
     11  O2B        4.7130  -12.1700   -3.6700 O.3   350  NAD350     -0.2130
     12  C1B        3.0960  -10.5720   -4.6370 C.3   350  NAD350      0.3186
     13  N9A        1.7610  -10.9760   -4.1930 N.pl3 350  NAD350     -0.1439
     14  C8A        0.9440  -11.9460   -4.6900 C.3   350  NAD350      0.3377
     15  N7A       -0.2230  -12.0580   -4.0590 N.2   350  NAD350     -0.2095
     16  C5A       -0.1460  -11.0850   -3.0850 C.2   350  NAD350      0.2526
     17  C6A       -1.0340  -10.6590   -2.0730 C.2   350  NAD350      0.4393
     18  N6A       -2.2280  -11.1720   -1.8610 N.pl3 350  NAD350      0.2180
     19  N1A       -0.6690   -9.6410   -1.2300 N.2   350  NAD350      0.0021
     20  C2A        0.5640   -9.0570   -1.3970 C.3   350  NAD350      0.5254
     21  N3A        1.4560   -9.3830   -2.3130 N.2   350  NAD350     -0.0055
     22  C4A        1.0630  -10.3990   -3.1310 C.2   350  NAD350      0.3518
     23  O3         4.9610   -9.6870  -10.9690 O.3   350  NAD350     -0.2703
     24  PN         4.8370   -8.1860  -11.5950 P.3   350  NAD350      0.2189
     25  O1N        5.6540   -8.3030  -12.8150 O.2   350  NAD350     -0.5170
     26  O2N        5.4700   -7.2300  -10.6390 O.3   350  NAD350     -0.4371
     27  O5D        3.3110   -8.0230  -11.9470 O.3   350  NAD350     -0.3112
     28  C5D        2.4950   -7.1270  -11.1980 C.3   350  NAD350      0.1813
     29  C4D        1.1430   -6.9560  -11.8240 C.3   350  NAD350      0.1799
     30  O4D        1.4830   -5.9060  -12.7480 O.3   350  NAD350     -0.3327
     31  C3D        0.4510   -8.0180  -12.6760 C.3   350  NAD350      0.2158
     32  O3D       -0.9510   -7.7560  -12.5730 O.3   350  NAD350     -0.2175
     33  C2D        0.9500   -7.7220  -14.0980 C.3   350  NAD350      0.2309
     34  O2D        0.0220   -8.0820  -15.1280 O.3   350  NAD350     -0.2158
     35  C1D        1.1400   -6.2290  -14.0620 C.3   350  NAD350      0.2263
     36  N1N        2.2270   -5.6840  -14.8430 N.pl3 350  NAD350     -0.2787
     37  C2N        3.4100   -6.3770  -15.1440 C.3   350  NAD350      0.1244
     38  C3N        4.4180   -5.7540  -16.0300 C.2   350  NAD350      0.0544
     39  C7N        5.6560   -6.4890  -16.3150 C.2   350  NAD350      0.2818
     40  O7N        6.4200   -6.0010  -17.1670 O.2   350  NAD350     -0.2670
     41  N7N        5.9830   -7.6360  -15.6990 N.am  350  NAD350     -0.0839
     42  C4N        4.2580   -4.2760  -16.2620 C.2   350  NAD350      0.0033
     43  C5N        2.9750   -3.6490  -15.8460 C.2   350  NAD350      0.0157
     44  C6N        2.0420   -4.3180  -15.1970 C.2   350  NAD350      0.0633
@<TRIPOS>BOND
     1    40    39    2
     2    39    38    1
     3    39    41   am
     4    42    38    2
     5    42    43    1
     6    38    37    1
     7    43    44    2
     8    44    36    1
     9    37    36    1
    10    34    33    1
    11    36    35    1
    12    33    35    1
    13    33    31    1
    14    35    30    1
    15    25    24    2
    16    30    29    1
    17    31    32    1
    18    31    29    1
    19    27    24    1
    20    27    28    1
    21    29    28    1
    22    24    23    1
    23    24    26    1
    24    23     1    1
    25     3     1    2
    26     2     1    1
    27     1     4    1
    28     4     5    1
    29     5     6    1
    30     6     7    1
    31     6     8    1
    32     7    12    1
    33     8     9    1
    34     8    10    1
    35    10    12    1
    36    10    11    1
    37    14    13    1
    38    14    15    1
    39    12    13    1
    40    13    22    1
    41    15    16    2
    42    22    16    1
    43    22    21    2
    44    16    17    1
    45    21    20    1
    46    17    18    1
    47    17    19    2
    48    20    19    1
