@<TRIPOS>MOLECULE
1f17_NAI_A_1.pdb
 44 48 0 0 0
SMALL
GASTEIGER

@<TRIPOS>ATOM
      1  PA        42.6510   36.3870   30.9650 P.3   350  NAI350      0.2189
      2  O1A       43.9490   36.0310   30.3600 O.2   350  NAI350     -0.5170
      3  O2A       42.0590   35.3070   31.7900 O.3   350  NAI350     -0.4371
      4  O5B       41.6450   36.8210   29.7830 O.3   350  NAI350     -0.3112
      5  C5B       42.0580   37.6390   28.6560 C.3   350  NAI350      0.1813
      6  C4B       41.4370   37.1270   27.3670 C.3   350  NAI350      0.1821
      7  O4B       41.8850   38.0730   26.3590 O.3   350  NAI350     -0.3135
      8  C3B       41.9470   35.7670   26.8570 C.3   350  NAI350      0.2184
      9  O3B       40.8490   34.8580   26.6850 O.3   350  NAI350     -0.2174
     10  C2B       42.6950   36.1100   25.5560 C.3   350  NAI350      0.2570
     11  O2B       42.6390   35.0820   24.5410 O.3   350  NAI350     -0.2130
     12  C1B       42.0230   37.4040   25.1480 C.3   350  NAI350      0.3186
     13  N9A       42.7500   38.2600   24.2060 N.pl3 350  NAI350     -0.1439
     14  C8A       44.0670   38.6100   24.1680 C.3   350  NAI350      0.3377
     15  N7A       44.4030   39.3960   23.1390 N.2   350  NAI350     -0.2095
     16  C5A       43.2070   39.5730   22.4620 C.2   350  NAI350      0.2526
     17  C6A       42.8140   40.2730   21.2990 C.2   350  NAI350      0.4393
     18  N6A       43.6010   40.9890   20.5250 N.pl3 350  NAI350      0.2180
     19  N1A       41.5090   40.2470   20.8990 N.2   350  NAI350      0.0021
     20  C2A       40.6180   39.5250   21.6560 C.3   350  NAI350      0.5254
     21  N3A       40.8770   38.8310   22.7430 N.2   350  NAI350     -0.0055
     22  C4A       42.1770   38.8880   23.1060 C.2   350  NAI350      0.3518
     23  O3        42.8520   37.6730   31.8120 O.3   350  NAI350     -0.2703
     24  PN        41.9230   38.5690   32.8160 P.3   350  NAI350      0.2189
     25  O1N       42.4140   38.2090   34.1590 O.3   350  NAI350     -0.4371
     26  O2N       40.5150   38.1760   32.5310 O.2   350  NAI350     -0.5170
     27  O5D       42.3800   40.0550   32.4970 O.3   350  NAI350     -0.3112
     28  C5D       41.4490   40.9520   31.8810 C.3   350  NAI350      0.1813
     29  C4D       41.9580   42.3700   31.8690 C.3   350  NAI350      0.1799
     30  O4D       41.2850   42.8220   33.0680 O.3   350  NAI350     -0.3327
     31  C3D       43.4170   42.7610   32.1030 C.3   350  NAI350      0.2158
     32  O3D       43.6660   44.0410   31.4970 O.3   350  NAI350     -0.2175
     33  C2D       43.5320   42.8700   33.6280 C.3   350  NAI350      0.2309
     34  O2D       44.5830   43.7370   34.0840 O.3   350  NAI350     -0.2158
     35  C1D       42.1470   43.3290   34.0400 C.3   350  NAI350      0.2263
     36  N1N       41.6770   42.8740   35.3550 N.pl3 350  NAI350     -0.2787
     37  C2N       41.9790   41.6060   35.8980 C.3   350  NAI350      0.1244
     38  C3N       41.5490   41.2260   37.2750 C.2   350  NAI350      0.0544
     39  C7N       41.8560   39.8660   37.7710 C.2   350  NAI350      0.2818
     40  O7N       41.5110   39.5840   38.9300 O.2   350  NAI350     -0.2670
     41  N7N       42.4430   38.8930   37.0520 N.am  350  NAI350     -0.0839
     42  C4N       40.6990   42.2340   38.0170 C.2   350  NAI350      0.0033
     43  C5N       40.4060   43.5130   37.3060 C.2   350  NAI350      0.0157
     44  C6N       40.8650   43.7950   36.0930 C.2   350  NAI350      0.0633
@<TRIPOS>BOND
     1    18    17    1
     2    19    17    2
     3    19    20    1
     4    17    16    1
     5    20    21    1
     6    16    22    1
     7    16    15    2
     8    21    22    2
     9    22    13    1
    10    15    14    1
    11    14    13    1
    12    13    12    1
    13    11    10    1
    14    12    10    1
    15    12     7    1
    16    10     8    1
    17     7     6    1
    18     9     8    1
    19     8     6    1
    20     6     5    1
    21     5     4    1
    22     4     1    1
    23     2     1    2
    24     1     3    1
    25     1    23    1
    26    32    31    1
    27    23    24    1
    28    29    28    1
    29    29    31    1
    30    29    30    1
    31    28    27    1
    32    31    33    1
    33    27    24    1
    34    26    24    2
    35    24    25    1
    36    30    35    1
    37    33    35    1
    38    33    34    1
    39    35    36    1
    40    36    37    1
    41    36    44    1
    42    37    38    1
    43    44    43    2
    44    41    39   am
    45    38    39    1
    46    38    42    2
    47    43    42    1
    48    39    40    2
