@<TRIPOS>MOLECULE
1f1b_PAL_A_1.pdb
 16 15 0 0 0
SMALL
GASTEIGER

@<TRIPOS>ATOM
      1  P         46.0030   29.5270   16.0320 P.3   1311  PAL1311     0.1264
      2  O1P       45.5000   30.0500   17.4450 O.3   1311  PAL1311    -0.3568
      3  O2P       46.9990   28.3100   15.9360 O.3   1311  PAL1311    -0.3568
      4  O3P       46.4680   30.6640   15.0260 O.2   1311  PAL1311    -0.4596
      5  C1P       44.3970   28.8530   15.4680 C.3   1311  PAL1311     0.1454
      6  C1        43.1900   29.7170   15.8850 C.2   1311  PAL1311     0.2492
      7  O1        42.7090   30.5750   15.1160 O.2   1311  PAL1311    -0.2728
      8  N2        42.7400   29.5320   17.1240 N.am  1311  PAL1311    -0.1946
      9  C2        41.5610   30.2440   17.6260 C.3   1311  PAL1311     0.2090
     10  C4        41.7750   31.6730   18.1240 C.2   1311  PAL1311     0.3848
     11  O2        40.8250   32.2850   18.6670 O.co2 1311  PAL1311    -0.2437
     12  O3        42.9280   32.1380   18.0540 O.co2 1311  PAL1311    -0.2437
     13  C3        40.8370   29.3880   18.6740 C.3   1311  PAL1311     0.1472
     14  C5        41.6230   29.2470   19.9850 C.2   1311  PAL1311     0.3672
     15  O4        42.7240   29.8270   20.0910 O.co2 1311  PAL1311    -0.2456
     16  O5        41.1370   28.5540   20.9150 O.co2 1311  PAL1311    -0.2456
@<TRIPOS>BOND
     1     4     1    2
     2     7     6    2
     3     5     6    1
     4     5     1    1
     5     6     8   am
     6     3     1    1
     7     1     2    1
     8     8     9    1
     9     9    10    1
    10     9    13    1
    11    12    10   ar
    12    10    11   ar
    13    13    14    1
    14    14    15   ar
    15    14    16   ar
