@<TRIPOS>MOLECULE
1f1c_HEM_A_1.pdb
 43 50 0 0 0
SMALL
GASTEIGER

@<TRIPOS>ATOM
      1 FE          6.6700   10.7060   18.3980 Fe    200  HEM200      0.0000
      2  CHA        4.7740    9.6810   15.7720 C.2   200  HEM200      0.0000
      3  CHB        8.0400   13.2200   16.3800 C.2   200  HEM200      0.0000
      4  CHC        8.4580   11.9640   21.0090 C.2   200  HEM200      0.0000
      5  CHD        5.7290    8.0050   20.2010 C.2   200  HEM200      0.0000
      6  NA         6.4020   11.3500   16.5320 N.ar  200  HEM200      0.0000
      7  C1A        5.5660   10.8160   15.5890 C.ar  200  HEM200      0.0000
      8  C2A        5.7330   11.5150   14.3430 C.ar  200  HEM200      0.0000
      9  C3A        6.6290   12.4880   14.5080 C.ar  200  HEM200      0.0000
     10  C4A        7.0790   12.3610   15.8490 C.ar  200  HEM200      0.0000
     11  CMA        6.9600   13.6410   13.5740 C.3   200  HEM200      0.0000
     12  CAA        5.0030   11.2430   13.0710 C.3   200  HEM200      0.0000
     13  CBA        5.7720   10.1590   12.3610 C.3   200  HEM200      0.0000
     14  CGA        5.2580    9.9350   10.9680 C.2   200  HEM200      0.0000
     15  O1A        4.2580   10.5800   10.5990 O.co2 200  HEM200      0.0000
     16  O2A        5.8500    9.1160   10.2440 O.co2 200  HEM200      0.0000
     17  NB         7.9290   12.2460   18.6520 N.2   200  HEM200      0.0000
     18  C1B        8.4150   13.1730   17.7000 C.2   200  HEM200      0.0000
     19  C2B        9.2410   14.1670   18.3000 C.2   200  HEM200      0.0000
     20  C3B        9.2500   13.8970   19.6210 C.2   200  HEM200      0.0000
     21  C4B        8.5010   12.6780   19.8290 C.2   200  HEM200      0.0000
     22  CMB        9.9900   15.2980   17.6150 C.3   200  HEM200      0.0000
     23  CAB        9.8500   14.6900   20.5990 C.3   200  HEM200      0.0000
     24  CBB        9.4190   16.0060   20.8530 C.3   200  HEM200      0.0000
     25  NC         7.0400   10.0930   20.1870 N.ar  200  HEM200      0.0000
     26  C1C        7.8200   10.7210   21.1440 C.ar  200  HEM200      0.0000
     27  C2C        7.8720    9.9630   22.3480 C.ar  200  HEM200      0.0000
     28  C3C        7.0640    8.8770   22.1730 C.ar  200  HEM200      0.0000
     29  C4C        6.5840    8.9450   20.7900 C.ar  200  HEM200      0.0000
     30  CMC        8.7290   10.2630   23.5760 C.3   200  HEM200      0.0000
     31  CAC        6.8860    7.8320   23.1170 C.3   200  HEM200      0.0000
     32  CBC        6.3530    8.0810   24.4180 C.3   200  HEM200      0.0000
     33  ND         5.4530    9.2010   18.0830 N.2   200  HEM200      0.0000
     34  C1D        5.1330    8.1840   18.9540 C.2   200  HEM200      0.0000
     35  C2D        4.1890    7.2860   18.3820 C.2   200  HEM200      0.0000
     36  C3D        3.9240    7.7570   17.1470 C.2   200  HEM200      0.0000
     37  C4D        4.7300    8.9310   16.9450 C.2   200  HEM200      0.0000
     38  CMD        3.7460    5.9250   18.9660 C.3   200  HEM200      0.0000
     39  CAD        2.8880    7.2110   16.1590 C.3   200  HEM200      0.0000
     40  CBD        1.5010    7.8130   16.3790 C.3   200  HEM200      0.0000
     41  CGD        0.4780    7.3380   15.3510 C.2   200  HEM200      0.0000
     42  O1D        0.5990    7.6850   14.1620 O.co2 200  HEM200      0.0000
     43  O2D       -0.4550    6.6050   15.7340 O.co2 200  HEM200      0.0000
@<TRIPOS>BOND
     1    16    14   ar
     2    15    14   ar
     3    14    13    1
     4    13    12    1
     5    12     8    1
     6    11     9    1
     7    42    41   ar
     8     8     9   ar
     9     8     7   ar
    10     9    10   ar
    11    41    43   ar
    12    41    40    1
    13     7     2    2
    14     7     6   ar
    15     2    37    1
    16    10     3    2
    17    10     6   ar
    18    39    40    1
    19    39    36    1
    20     3    18    1
    21     6     1    1
    22    37    36    1
    23    37    33    2
    24    36    35    2
    25    22    19    1
    26    18    19    1
    27    18    17    2
    28    33     1    1
    29    33    34    1
    30    19    20    2
    31    35    34    1
    32    35    38    1
    33     1    17    1
    34     1    25    1
    35    17    21    1
    36    34     5    2
    37    20    21    1
    38    20    23    1
    39    21     4    2
    40    25    29   ar
    41    25    26   ar
    42     5    29    1
    43    23    24    1
    44    29    28   ar
    45     4    26    1
    46    26    27   ar
    47    28    27   ar
    48    28    31    1
    49    27    30    1
    50    31    32    1
