@<TRIPOS>MOLECULE
1f1f_HEM_A_1.pdb
 43 50 0 0 0
SMALL
GASTEIGER

@<TRIPOS>ATOM
      1 FE         23.1550   -0.8170   13.2700 Fe    200  HEM200      0.0000
      2  CHA       24.8200   -3.6130   14.2790 C.2   200  HEM200      0.0000
      3  CHB       22.8870    0.2740   16.4850 C.2   200  HEM200      0.0000
      4  CHC       21.8390    2.1930   12.1070 C.2   200  HEM200      0.0000
      5  CHD       22.9840   -2.0900   10.0800 C.2   200  HEM200      0.0000
      6  NA        23.6920   -1.5460   15.0230 N.2   200  HEM200      0.0000
      7  C1A       24.3770   -2.7340   15.2770 C.2   200  HEM200      0.0000
      8  C2A       24.7050   -2.8900   16.7250 C.2   200  HEM200      0.0000
      9  C3A       24.2790   -1.7030   17.3200 C.2   200  HEM200      0.0000
     10  C4A       23.5780   -0.9260   16.2640 C.2   200  HEM200      0.0000
     11  CMA       24.4880   -1.2680   18.7930 C.3   200  HEM200      0.0000
     12  CAA       25.2340   -4.1880   17.4060 C.3   200  HEM200      0.0000
     13  CBA       24.2750   -5.3360   17.0980 C.3   200  HEM200      0.0000
     14  CGA       24.6920   -6.6740   17.6940 C.2   200  HEM200      0.0000
     15  O1A       25.7820   -7.1780   17.3570 O.co2 200  HEM200      0.0000
     16  O2A       23.9160   -7.2370   18.4940 O.co2 200  HEM200      0.0000
     17  NB        22.4210    0.8360   14.1140 N.ar  200  HEM200      0.0000
     18  C1B       22.3380    1.0970   15.4900 C.ar  200  HEM200      0.0000
     19  C2B       21.7840    2.4300   15.7300 C.ar  200  HEM200      0.0000
     20  C3B       21.5730    3.0030   14.4970 C.ar  200  HEM200      0.0000
     21  C4B       21.9500    2.0060   13.4910 C.ar  200  HEM200      0.0000
     22  CMB       21.4180    3.0530   17.0810 C.3   200  HEM200      0.0000
     23  CAB       21.1020    4.3040   14.2720 C.3   200  HEM200      0.0000
     24  CBB       21.9770    5.3850   14.3780 C.3   200  HEM200      0.0000
     25  NC        22.5880   -0.0900   11.4730 N.2   200  HEM200      0.0000
     26  C1C       22.1430    1.2090   11.1550 C.2   200  HEM200      0.0000
     27  C2C       21.7400    1.2920    9.7360 C.2   200  HEM200      0.0000
     28  C3C       21.8220   -0.0010    9.2300 C.2   200  HEM200      0.0000
     29  C4C       22.4450   -0.8140   10.2830 C.2   200  HEM200      0.0000
     30  CMC       21.4340    2.5430    8.9060 C.3   200  HEM200      0.0000
     31  CAC       21.4110   -0.4360    7.9440 C.2   200  HEM200      0.0000
     32  CBC       22.1230   -0.0780    6.8280 C.2   200  HEM200      0.0000
     33  ND        23.7730   -2.4790   12.3800 N.ar  200  HEM200      0.0000
     34  C1D       23.6410   -2.8430   11.0340 C.ar  200  HEM200      0.0000
     35  C2D       24.3760   -4.0550   10.7590 C.ar  200  HEM200      0.0000
     36  C3D       24.9140   -4.4560   11.9460 C.ar  200  HEM200      0.0000
     37  C4D       24.5280   -3.4970   12.9360 C.ar  200  HEM200      0.0000
     38  CMD       24.6110   -4.7200    9.4020 C.3   200  HEM200      0.0000
     39  CAD       25.8360   -5.6360   12.2280 C.3   200  HEM200      0.0000
     40  CBD       27.2120   -5.3830   11.6370 C.3   200  HEM200      0.0000
     41  CGD       28.2510   -6.3760   12.1220 C.2   200  HEM200      0.0000
     42  O1D       28.6710   -6.2860   13.3040 O.co2 200  HEM200      0.0000
     43  O2D       28.6410   -7.2540   11.3200 O.co2 200  HEM200      0.0000
@<TRIPOS>BOND
     1    32    31    2
     2    31    28    1
     3    30    27    1
     4    28    27    2
     5    28    29    1
     6    38    35    1
     7    27    26    1
     8     5    29    1
     9     5    34    2
    10    29    25    2
    11    35    34   ar
    12    35    36   ar
    13    34    33   ar
    14    26    25    1
    15    26     4    2
    16    43    41   ar
    17    25     1    1
    18    40    41    1
    19    40    39    1
    20    36    39    1
    21    36    37   ar
    22     4    21    1
    23    41    42   ar
    24    33    37   ar
    25    33     1    1
    26    37     2    2
    27     1    17    1
    28     1     6    1
    29    21    17   ar
    30    21    20   ar
    31    17    18   ar
    32    23    24    1
    33    23    20    1
    34     2     7    1
    35    20    19   ar
    36     6     7    2
    37     6    10    1
    38     7     8    1
    39    18    19   ar
    40    18     3    1
    41    19    22    1
    42    10     3    2
    43    10     9    1
    44     8     9    2
    45     8    12    1
    46    13    12    1
    47    13    14    1
    48     9    11    1
    49    15    14   ar
    50    14    16   ar
