@<TRIPOS>MOLECULE
1f1h_ADP_A_1.pdb
 27 29 0 0 0
SMALL
GASTEIGER

@<TRIPOS>ATOM
      1  PB       -85.2880   14.9440  -78.3160 P.3   1471  ADP1471     0.5373
      2  O1B      -85.9190   14.2650  -77.0710 O.3   1471  ADP1471    -0.1143
      3  O2B      -83.8290   14.8280  -78.4600 O.2   1471  ADP1471    -0.2221
      4  O3B      -85.8100   16.5370  -78.2850 O.3   1471  ADP1471    -0.1143
      5  PA       -86.9850   14.9910  -80.8970 P.3   1471  ADP1471     0.2231
      6  O1A      -87.7860   16.2130  -80.4470 O.3   1471  ADP1471    -0.4370
      7  O2A      -85.9980   15.3760  -82.0470 O.2   1471  ADP1471    -0.5169
      8  O3A      -86.1640   14.3110  -79.5980 O.3   1471  ADP1471    -0.2261
      9  O5'      -88.1530   14.0360  -81.4600 O.3   1471  ADP1471    -0.3111
     10  C5'      -88.3340   13.0940  -82.4960 C.3   1471  ADP1471     0.1813
     11  C4'      -89.3680   12.1280  -82.8900 C.3   1471  ADP1471     0.1821
     12  O4'      -90.7970   12.4870  -83.3200 O.3   1471  ADP1471    -0.3135
     13  C3'      -88.7640   11.5430  -84.0790 C.3   1471  ADP1471     0.2184
     14  O3'      -88.4110   10.2070  -83.7390 O.3   1471  ADP1471    -0.2174
     15  C2'      -89.8590   11.8430  -85.1300 C.3   1471  ADP1471     0.2570
     16  O2'      -89.5130   11.2540  -86.3460 O.3   1471  ADP1471    -0.2130
     17  C1'      -91.0650   11.3810  -84.3170 C.3   1471  ADP1471     0.3186
     18  N9       -92.5740   11.2840  -85.1090 N.pl3 1471  ADP1471    -0.1439
     19  C8       -93.6700   10.4000  -84.6960 C.3   1471  ADP1471     0.3377
     20  N7       -94.8050   10.3920  -85.3940 N.2   1471  ADP1471    -0.2095
     21  C5       -94.5250   11.3300  -86.3620 C.2   1471  ADP1471     0.2526
     22  C6       -95.3330   11.7890  -87.4240 C.2   1471  ADP1471     0.4393
     23  N6       -96.4540   11.3000  -87.5530 N.pl3 1471  ADP1471     0.2180
     24  N1       -94.8820   12.7200  -88.2860 N.2   1471  ADP1471     0.0021
     25  C2       -93.6370   13.2280  -88.1210 C.3   1471  ADP1471     0.5254
     26  N3       -92.7040   12.9160  -87.1480 N.2   1471  ADP1471    -0.0055
     27  C4       -93.1990   11.9170  -86.2580 C.2   1471  ADP1471     0.3518
@<TRIPOS>BOND
     1    24    25    1
     2    24    22    2
     3    25    26    1
     4    23    22    1
     5    22    21    1
     6    26    27    2
     7    21    27    1
     8    21    20    2
     9    16    15    1
    10    27    18    1
    11    20    19    1
    12    15    17    1
    13    15    13    1
    14    18    19    1
    15    18    17    1
    16    17    12    1
    17    13    14    1
    18    13    11    1
    19    12    11    1
    20    11    10    1
    21    10     9    1
    22     7     5    2
    23     9     5    1
    24     5     6    1
    25     5     8    1
    26     8     1    1
    27     3     1    2
    28     1     4    1
    29     1     2    1
