@<TRIPOS>MOLECULE
1f1j_III_C_1.pdb
 35 34 0 0 0
SMALL
GASTEIGER

@<TRIPOS>ATOM
      1  C         29.7510   29.8600   -0.6500 C.2   701  ACE701      0.2423
      2  O         28.5520   30.1000   -0.8120 O.2   701  ACE701     -0.2733
      3  CH3       30.8010   30.1830   -1.6750 C.3   701  ACE701      0.0964
      4  N         30.2520   29.3080    0.4270 N.am  702  ASP702     -0.1972
      5  CA        31.5580   28.6890    0.3630 C.3   702  ASP702      0.1839
      6  C         31.6650   27.5780   -0.6680 C.2   702  ASP702      0.2622
      7  O         30.7600   26.7830   -0.9370 O.2   702  ASP702     -0.2715
      8  CB        32.0620   28.3420    1.7560 C.3   702  ASP702      0.1450
      9  CG        32.1440   29.5950    2.6020 C.2   702  ASP702      0.3671
     10  OD1       32.3050   30.7050    2.0530 O.co2 702  ASP702     -0.2456
     11  OD2       32.0490   29.4840    3.8390 O.co2 702  ASP702     -0.2456
     12  N         32.8300   27.5370   -1.2740 N.am  703  GLU703     -0.1963
     13  CA        33.1430   26.5350   -2.2780 C.3   703  GLU703      0.1733
     14  C         34.2820   25.6360   -1.6960 C.2   703  GLU703      0.2616
     15  O         35.0960   26.0720   -0.8840 O.2   703  GLU703     -0.2715
     16  CB        33.6810   27.3120   -3.4770 C.3   703  GLU703      0.0429
     17  CG        33.0570   27.1020   -4.8490 C.3   703  GLU703      0.1163
     18  CD        32.7410   28.4830   -5.4060 C.2   703  GLU703      0.3649
     19  OE1       33.6530   29.1470   -5.9490 O.co2 703  GLU703     -0.2457
     20  OE2       31.5750   28.9170   -5.2670 O.co2 703  GLU703     -0.2457
     21  N         34.3950   24.3700   -2.0530 N.am  704  VAL704     -0.1963
     22  CA        35.6260   23.6440   -1.6850 C.3   704  VAL704      0.1727
     23  C         36.6550   23.3970   -2.8980 C.2   704  VAL704      0.2613
     24  O         36.2320   23.4330   -4.0490 O.2   704  VAL704     -0.2715
     25  CB        35.1880   22.3330   -1.0180 C.3   704  VAL704      0.0290
     26  CG1       34.0570   22.4640   -0.0080 C.3   704  VAL704      0.0023
     27  CG2       34.8010   21.2730   -2.0310 C.3   704  VAL704      0.0023
     28  N         37.9550   23.1170   -2.6710 N.am  705  ASP705     -0.2025
     29  CA        38.9890   22.9510   -3.7080 C.3   705  ASP705      0.1395
     30  C         39.2120   21.4880   -3.9690 C.3   705  ASP705      0.2041
     31  O         40.2750   21.1000   -4.8400 O.3   705  ASP705     -0.2185
     32  CB        40.3560   23.6120   -3.4290 C.3   705  ASP705      0.1383
     33  CG        40.2260   25.0930   -3.7120 C.2   705  ASP705      0.3667
     34  OD1       41.0410   25.8780   -3.1940 O.co2 705  ASP705     -0.2456
     35  OD2       39.3020   25.4820   -4.4580 O.co2 705  ASP705     -0.2456
@<TRIPOS>BOND
     1    19    18   ar
     2    18    20   ar
     3    18    17    1
     4    17    16    1
     5    31    30    1
     6    35    33   ar
     7    24    23    2
     8    30    29    1
     9    33    32    1
    10    33    34   ar
    11    29    32    1
    12    29    28    1
    13    16    13    1
    14    23    28   am
    15    23    22    1
    16    13    14    1
    17    13    12    1
    18    21    14   am
    19    21    22    1
    20    27    25    1
    21    14    15    2
    22    22    25    1
    23     3     1    1
    24    12     6   am
    25    25    26    1
    26     7     6    2
    27     2     1    2
    28     6     5    1
    29     1     4   am
    30     5     4    1
    31     5     8    1
    32     8     9    1
    33    10     9   ar
    34     9    11   ar
