@<TRIPOS>MOLECULE
1f1v_DHY_A_1.pdb
 12 12 0 0 0
SMALL
GASTEIGER

@<TRIPOS>ATOM
      1  C1        17.5550    0.8830   14.9690 C.ar  999  DHY999     -0.0076
      2  C2        17.7790    2.2920   15.0780 C.ar  999  DHY999      0.0417
      3  C3        16.7220    3.1730   15.3720 C.ar  999  DHY999      0.2340
      4  C4        15.3880    2.6320   15.5930 C.ar  999  DHY999      0.2342
      5  C5        15.1520    1.2120   15.4990 C.ar  999  DHY999      0.0451
      6  C6        16.2430    0.3440   15.2030 C.ar  999  DHY999     -0.0002
      7  C7        18.7650    0.0910   14.6380 C.3   999  DHY999      0.1405
      8  C8        19.3110    0.3700   13.2700 C.2   999  DHY999      0.3692
      9  O1        20.4140    0.9470   13.1820 O.co2 999  DHY999     -0.2453
     10  O2        18.7700    0.1150   12.1720 O.co2 999  DHY999     -0.2453
     11  O3        16.7450    4.5800   15.4830 O.3   999  DHY999     -0.2832
     12  O4        14.4370    3.6550   15.8790 O.3   999  DHY999     -0.2831
@<TRIPOS>BOND
     1    10     8   ar
     2     9     8   ar
     3     8     7    1
     4     7     1    1
     5     1     2   ar
     6     1     6   ar
     7     2     3   ar
     8     6     5   ar
     9     3    11    1
    10     3     4   ar
    11     5     4   ar
    12     4    12    1
