@<TRIPOS>MOLECULE
1f20_NAP_A_1.pdb
 48 52 0 0 0
SMALL
GASTEIGER

@<TRIPOS>ATOM
      1  PA        14.6550   -2.0530   78.6100 P.3   1502  NAP1502     0.2189
      2  O1A       14.5660   -0.6350   78.9880 O.3   1502  NAP1502    -0.4371
      3  O2A       16.0450   -2.3580   78.2800 O.2   1502  NAP1502    -0.5170
      4  O5B       14.2990   -2.8470   79.7730 O.3   1502  NAP1502    -0.3112
      5  C5B       13.0960   -2.6240   80.5960 C.3   1502  NAP1502     0.1813
      6  C4B       12.9870   -3.5720   81.7890 C.3   1502  NAP1502     0.1820
      7  O4B       12.7950   -4.9330   81.2990 O.3   1502  NAP1502    -0.3136
      8  C3B       14.3130   -3.6380   82.5670 C.3   1502  NAP1502     0.2157
      9  O3B       14.0630   -3.5260   84.0040 O.3   1502  NAP1502    -0.2175
     10  C2B       14.9200   -4.9850   82.1590 C.3   1502  NAP1502     0.2314
     11  O2B       15.9340   -5.5380   83.1440 O.3   1502  NAP1502    -0.2630
     12  C1B       13.6570   -5.8440   82.0230 C.3   1502  NAP1502     0.3158
     13  N9A       13.8600   -7.1290   81.3110 N.pl3 1502  NAP1502    -0.1439
     14  C8A       14.8860   -7.5560   80.5140 C.3   1502  NAP1502     0.3377
     15  N7A       14.6920   -8.8040   80.0620 N.2   1502  NAP1502    -0.2095
     16  C5A       13.4920   -9.1810   80.5960 C.2   1502  NAP1502     0.2526
     17  C6A       12.6760  -10.3970   80.5330 C.2   1502  NAP1502     0.4393
     18  N6A       13.0830  -11.4850   79.8170 N.pl3 1502  NAP1502     0.2180
     19  N1A       11.4430  -10.4280   81.2380 N.2   1502  NAP1502     0.0021
     20  C2A       11.0290   -9.3100   81.9700 C.3   1502  NAP1502     0.5254
     21  N3A       11.7270   -8.1220   82.0940 N.2   1502  NAP1502    -0.0055
     22  C4A       12.9570   -8.1380   81.3730 C.2   1502  NAP1502     0.3518
     23  O3        13.7080   -2.3540   77.4890 O.3   1502  NAP1502    -0.2703
     24  PN        13.0410   -1.6030   76.3600 P.3   1502  NAP1502     0.2189
     25  O1N       12.5710   -0.2680   76.7570 O.3   1502  NAP1502    -0.4371
     26  O2N       11.9920   -2.4140   75.7340 O.2   1502  NAP1502    -0.5170
     27  O5D       14.0470   -1.3820   75.3000 O.3   1502  NAP1502    -0.3112
     28  C5D       15.0680   -0.3380   75.3470 C.3   1502  NAP1502     0.1813
     29  C4D       16.1820   -0.4490   74.3110 C.3   1502  NAP1502     0.1799
     30  O4D       17.0090   -1.5940   74.6810 O.3   1502  NAP1502    -0.3327
     31  C3D       15.7560   -0.6780   72.8540 C.3   1502  NAP1502     0.2158
     32  O3D       16.5120    0.1240   72.0370 O.3   1502  NAP1502    -0.2175
     33  C2D       15.8690   -2.1870   72.5930 C.3   1502  NAP1502     0.2309
     34  O2D       16.0010   -2.5740   71.2900 O.3   1502  NAP1502    -0.2158
     35  C1D       16.9770   -2.5500   73.5660 C.3   1502  NAP1502     0.2263
     36  N1N       16.8180   -3.9340   74.0690 N.pl3 1502  NAP1502    -0.2787
     37  C2N       15.8680   -4.1330   75.1940 C.3   1502  NAP1502     0.1244
     38  C3N       15.6910   -5.5830   75.7200 C.2   1502  NAP1502     0.0544
     39  C7N       14.7240   -5.6140   76.8620 C.2   1502  NAP1502     0.2818
     40  O7N       13.7110   -6.3320   76.8800 O.2   1502  NAP1502    -0.2670
     41  N7N       15.0290   -4.8450   77.9250 N.am  1502  NAP1502    -0.0839
     42  C4N       16.4660   -6.7230   75.0780 C.2   1502  NAP1502     0.0033
     43  C5N       17.4510   -6.4980   73.9080 C.2   1502  NAP1502     0.0157
     44  C6N       17.5590   -5.0360   73.4700 C.2   1502  NAP1502     0.0633
     45  P2B       17.3890   -5.7130   83.1340 P.3   1502  NAP1502     0.5328
     46  O1X       17.6630   -7.1280   83.2740 O.3   1502  NAP1502    -0.1145
     47  O2X       18.0140   -5.0120   84.2460 O.3   1502  NAP1502    -0.1145
     48  O3X       17.9290   -5.2250   81.8800 O.2   1502  NAP1502    -0.2224
@<TRIPOS>BOND
     1    34    33    1
     2    32    31    1
     3    33    31    1
     4    33    35    1
     5    31    29    1
     6    44    43    2
     7    44    36    1
     8    35    36    1
     9    35    30    1
    10    43    42    1
    11    36    37    1
    12    29    30    1
    13    29    28    1
    14    42    38    2
    15    37    38    1
    16    27    28    1
    17    27    24    1
    18    38    39    1
    19    26    24    2
    20    24    25    1
    21    24    23    1
    22    39    40    2
    23    39    41   am
    24    23     1    1
    25     3     1    2
    26     1     2    1
    27     1     4    1
    28     4     5    1
    29    18    17    1
    30    15    14    1
    31    15    16    2
    32    14    13    1
    33    17    16    1
    34    17    19    2
    35    16    22    1
    36     5     6    1
    37    19    20    1
    38     7     6    1
    39     7    12    1
    40    13    22    1
    41    13    12    1
    42    22    21    2
    43     6     8    1
    44    48    45    2
    45    20    21    1
    46    12    10    1
    47    10     8    1
    48    10    11    1
    49     8     9    1
    50    45    11    1
    51    45    46    1
    52    45    47    1
