@<TRIPOS>MOLECULE
1f24_HEM_A_1.pdb
 43 50 0 0 0
SMALL
GASTEIGER

@<TRIPOS>ATOM
      1  CHA       49.1390   11.2430   22.9130 C.2   501  HEM501      0.0000
      2  CHB       49.6190    9.9570   18.2380 C.2   501  HEM501      0.0000
      3  CHC       54.1890   11.6140   18.1870 C.2   501  HEM501      0.0000
      4  CHD       53.7630   12.6290   23.0180 C.2   501  HEM501      0.0000
      5  C1A       48.8660   10.8150   21.6470 C.ar  501  HEM501      0.0000
      6  C2A       47.6010   10.1640   21.2140 C.ar  501  HEM501      0.0000
      7  C3A       47.7520    9.7770   19.8180 C.ar  501  HEM501      0.0000
      8  C4A       49.1470   10.1730   19.4920 C.ar  501  HEM501      0.0000
      9  CMA       46.7910    9.0590   19.0610 C.3   501  HEM501      0.0000
     10  CAA       46.3940   10.0430   22.0520 C.3   501  HEM501      0.0000
     11  CBA       45.6960   11.3360   22.1320 C.3   501  HEM501      0.0000
     12  CGA       44.3490   11.2360   22.8440 C.2   501  HEM501      0.0000
     13  O1A       43.2860   11.6050   22.2500 O.co2 501  HEM501      0.0000
     14  O2A       44.3470   10.7900   24.0110 O.co2 501  HEM501      0.0000
     15  C1B       50.9370   10.3080   17.8570 C.2   501  HEM501      0.0000
     16  C2B       51.5240   10.0160   16.5160 C.2   501  HEM501      0.0000
     17  C3B       52.8020   10.5270   16.5590 C.2   501  HEM501      0.0000
     18  C4B       52.9780   11.0470   17.9150 C.2   501  HEM501      0.0000
     19  CMB       50.7530    9.3690   15.4440 C.3   501  HEM501      0.0000
     20  CAB       53.7830   10.5310   15.3810 C.2   501  HEM501      0.0000
     21  CBB       53.5020   10.6370   14.1390 C.2   501  HEM501      0.0000
     22  C1C       54.4160   12.1140   19.4900 C.ar  501  HEM501      0.0000
     23  C2C       55.7920   12.6790   19.9640 C.ar  501  HEM501      0.0000
     24  C3C       55.6540   12.9490   21.3570 C.ar  501  HEM501      0.0000
     25  C4C       54.2760   12.5490   21.7450 C.ar  501  HEM501      0.0000
     26  CMC       56.8930   13.0850   19.0120 C.3   501  HEM501      0.0000
     27  CAC       56.5220   13.5260   22.2830 C.2   501  HEM501      0.0000
     28  CBC       57.1420   14.2130   22.1060 C.2   501  HEM501      0.0000
     29  C1D       52.4810   12.2910   23.3900 C.2   501  HEM501      0.0000
     30  C2D       51.9940   12.4540   24.7490 C.2   501  HEM501      0.0000
     31  C3D       50.6780   12.1290   24.6820 C.2   501  HEM501      0.0000
     32  C4D       50.3000   11.6960   23.3620 C.2   501  HEM501      0.0000
     33  CMD       52.8010   12.9500   25.8680 C.3   501  HEM501      0.0000
     34  CAD       49.6610   12.1720   25.8250 C.3   501  HEM501      0.0000
     35  CBD       48.8410   13.4530   25.7290 C.3   501  HEM501      0.0000
     36  CGD       47.6880   13.5860   26.9600 C.2   501  HEM501      0.0000
     37  O1D       47.5610   14.7160   27.3400 O.co2 501  HEM501      0.0000
     38  O2D       47.1750   12.5260   27.2240 O.co2 501  HEM501      0.0000
     39  NA        49.7310   10.8340   20.5620 N.ar  501  HEM501      0.0000
     40  NB        51.9080   10.8650   18.6560 N.2   501  HEM501      0.0000
     41  NC        53.5410   12.0310   20.6050 N.ar  501  HEM501      0.0000
     42  ND        51.4840   11.8350   22.5370 N.2   501  HEM501      0.0000
     43 FE         51.6600   11.4640   20.5900 Fe    501  HEM501      0.0000
@<TRIPOS>BOND
     1    21    20    2
     2    20    17    1
     3    19    16    1
     4    16    17    2
     5    16    15    1
     6    17    18    1
     7    15     2    1
     8    15    40    2
     9    18     3    2
    10    18    40    1
    11     3    22    1
    12     2     8    2
    13    40    43    1
    14    26    23    1
    15     9     7    1
    16    22    23   ar
    17    22    41   ar
    18     8     7   ar
    19     8    39   ar
    20     7     6   ar
    21    23    24   ar
    22    39    43    1
    23    39     5   ar
    24    43    41    1
    25    43    42    1
    26    41    25   ar
    27     6     5   ar
    28     6    10    1
    29    24    25   ar
    30    24    27    1
    31     5     1    2
    32    25     4    1
    33    10    11    1
    34    28    27    2
    35    11    12    1
    36    13    12   ar
    37    42    32    2
    38    42    29    1
    39    12    14   ar
    40     1    32    1
    41     4    29    2
    42    32    31    1
    43    29    30    1
    44    31    30    2
    45    31    34    1
    46    30    33    1
    47    35    34    1
    48    35    36    1
    49    36    38   ar
    50    36    37   ar
