@<TRIPOS>MOLECULE
1f25_HEM_A_1.pdb
 43 50 0 0 0
SMALL
GASTEIGER

@<TRIPOS>ATOM
      1  CHA       49.2570   11.0790   22.7800 C.2   501  HEM501      0.0000
      2  CHB       49.8700    9.7690   18.2270 C.2   501  HEM501      0.0000
      3  CHC       54.3880   11.4890   18.1770 C.2   501  HEM501      0.0000
      4  CHD       53.9400   12.4560   22.9010 C.2   501  HEM501      0.0000
      5  C1A       49.0090   10.5720   21.4690 C.ar  501  HEM501      0.0000
      6  C2A       47.8090    9.9880   21.1140 C.ar  501  HEM501      0.0000
      7  C3A       47.9200    9.5950   19.7430 C.ar  501  HEM501      0.0000
      8  C4A       49.3410    9.9900   19.4390 C.ar  501  HEM501      0.0000
      9  CMA       46.9760    8.8340   18.9360 C.3   501  HEM501      0.0000
     10  CAA       46.5720    9.8680   21.9350 C.3   501  HEM501      0.0000
     11  CBA       45.8990   11.2250   22.0030 C.3   501  HEM501      0.0000
     12  CGA       44.4730   11.1280   22.6820 C.2   501  HEM501      0.0000
     13  O1A       43.4580   11.4860   22.0550 O.co2 501  HEM501      0.0000
     14  O2A       44.4930   10.6570   23.8430 O.co2 501  HEM501      0.0000
     15  C1B       51.1680   10.0620   17.7730 C.2   501  HEM501      0.0000
     16  C2B       51.7490    9.8230   16.4410 C.2   501  HEM501      0.0000
     17  C3B       52.9920   10.3670   16.5180 C.2   501  HEM501      0.0000
     18  C4B       53.2300   10.8810   17.8210 C.2   501  HEM501      0.0000
     19  CMB       50.9090    9.1500   15.3610 C.3   501  HEM501      0.0000
     20  CAB       53.9870   10.3750   15.3270 C.2   501  HEM501      0.0000
     21  CBB       53.6110   10.5260   14.1070 C.2   501  HEM501      0.0000
     22  C1C       54.6360   11.9820   19.4510 C.ar  501  HEM501      0.0000
     23  C2C       55.9580   12.5670   19.8440 C.ar  501  HEM501      0.0000
     24  C3C       55.8290   12.7570   21.2390 C.ar  501  HEM501      0.0000
     25  C4C       54.4130   12.3700   21.5900 C.ar  501  HEM501      0.0000
     26  CMC       57.0810   12.8490   18.9220 C.3   501  HEM501      0.0000
     27  CAC       56.7280   13.3630   22.1840 C.2   501  HEM501      0.0000
     28  CBC       57.5360   14.0740   21.9420 C.2   501  HEM501      0.0000
     29  C1D       52.6100   12.1430   23.3010 C.2   501  HEM501      0.0000
     30  C2D       52.0870   12.3230   24.6600 C.2   501  HEM501      0.0000
     31  C3D       50.7700   11.9100   24.5780 C.2   501  HEM501      0.0000
     32  C4D       50.4360   11.5310   23.2430 C.2   501  HEM501      0.0000
     33  CMD       52.9000   12.8020   25.8450 C.3   501  HEM501      0.0000
     34  CAD       49.7830   11.9520   25.6900 C.3   501  HEM501      0.0000
     35  CBD       48.9230   13.2750   25.6190 C.3   501  HEM501      0.0000
     36  CGD       47.9500   13.4240   26.7290 C.2   501  HEM501      0.0000
     37  O1D       47.6990   14.5410   27.1860 O.co2 501  HEM501      0.0000
     38  O2D       47.3080   12.4000   27.0900 O.co2 501  HEM501      0.0000
     39  NA        49.9920   10.5970   20.4320 N.ar  501  HEM501      0.0000
     40  NB        52.1120   10.6720   18.5800 N.2   501  HEM501      0.0000
     41  NC        53.7060   11.8830   20.4850 N.ar  501  HEM501      0.0000
     42  ND        51.6290   11.6490   22.4290 N.2   501  HEM501      0.0000
     43 FE         51.8360   11.2910   20.4730 Fe    501  HEM501      0.0000
@<TRIPOS>BOND
     1    21    20    2
     2    20    17    1
     3    19    16    1
     4    16    17    2
     5    16    15    1
     6    17    18    1
     7    15     2    1
     8    15    40    2
     9    18     3    2
    10    18    40    1
    11     3    22    1
    12     2     8    2
    13    40    43    1
    14    26    23    1
    15     9     7    1
    16     8     7   ar
    17     8    39   ar
    18    22    23   ar
    19    22    41   ar
    20     7     6   ar
    21    23    24   ar
    22    39    43    1
    23    39     5   ar
    24    43    41    1
    25    43    42    1
    26    41    25   ar
    27     6     5   ar
    28     6    10    1
    29    24    25   ar
    30    24    27    1
    31     5     1    2
    32    25     4    1
    33    10    11    1
    34    28    27    2
    35    11    12    1
    36    13    12   ar
    37    42    32    2
    38    42    29    1
    39    12    14   ar
    40     1    32    1
    41     4    29    2
    42    32    31    1
    43    29    30    1
    44    31    30    2
    45    31    34    1
    46    30    33    1
    47    35    34    1
    48    35    36    1
    49    36    38   ar
    50    36    37   ar
