@<TRIPOS>MOLECULE
1f26_HEM_A_1.pdb
 43 50 0 0 0
SMALL
GASTEIGER

@<TRIPOS>ATOM
      1  CHA       49.2460   11.1330   22.7770 C.2   501  HEM501      0.0000
      2  CHB       49.7150    9.8760   18.0880 C.2   501  HEM501      0.0000
      3  CHC       54.2870   11.5400   18.0510 C.2   501  HEM501      0.0000
      4  CHD       53.8810   12.3720   22.8180 C.2   501  HEM501      0.0000
      5  C1A       48.9310   10.6230   21.3960 C.ar  501  HEM501      0.0000
      6  C2A       47.7710   10.0130   21.0770 C.ar  501  HEM501      0.0000
      7  C3A       47.8380    9.5930   19.7670 C.ar  501  HEM501      0.0000
      8  C4A       49.2180   10.1180   19.3760 C.ar  501  HEM501      0.0000
      9  CMA       46.8460    8.9180   18.9070 C.3   501  HEM501      0.0000
     10  CAA       46.4940    9.8710   21.9360 C.3   501  HEM501      0.0000
     11  CBA       45.7700   11.2760   22.0220 C.3   501  HEM501      0.0000
     12  CGA       44.4670   11.1250   22.7190 C.2   501  HEM501      0.0000
     13  O1A       43.4310   11.4450   22.0800 O.co2 501  HEM501      0.0000
     14  O2A       44.4500   10.6390   23.8660 O.co2 501  HEM501      0.0000
     15  C1B       51.0570   10.2360   17.6210 C.2   501  HEM501      0.0000
     16  C2B       51.5440   10.0650   16.2320 C.2   501  HEM501      0.0000
     17  C3B       52.8010   10.5920   16.3770 C.2   501  HEM501      0.0000
     18  C4B       53.0130   10.9850   17.7250 C.2   501  HEM501      0.0000
     19  CMB       50.6970    9.4690   15.1950 C.3   501  HEM501      0.0000
     20  CAB       53.7940   10.5950   15.1730 C.2   501  HEM501      0.0000
     21  CBB       53.3810   10.8410   13.9050 C.2   501  HEM501      0.0000
     22  C1C       54.5240   12.0150   19.4260 C.ar  501  HEM501      0.0000
     23  C2C       55.8110   12.5070   19.8530 C.ar  501  HEM501      0.0000
     24  C3C       55.7730   12.7620   21.2140 C.ar  501  HEM501      0.0000
     25  C4C       54.3540   12.3810   21.4920 C.ar  501  HEM501      0.0000
     26  CMC       56.9450   12.8300   18.8290 C.3   501  HEM501      0.0000
     27  CAC       56.7500   13.3670   22.0600 C.2   501  HEM501      0.0000
     28  CBC       57.7070   14.1420   21.7500 C.2   501  HEM501      0.0000
     29  C1D       52.6040   12.1410   23.2370 C.2   501  HEM501      0.0000
     30  C2D       52.1120   12.3390   24.6270 C.2   501  HEM501      0.0000
     31  C3D       50.7680   11.9950   24.6090 C.2   501  HEM501      0.0000
     32  C4D       50.4410   11.5460   23.1760 C.2   501  HEM501      0.0000
     33  CMD       52.8080   12.7600   25.8480 C.3   501  HEM501      0.0000
     34  CAD       49.7880   11.9170   25.6510 C.3   501  HEM501      0.0000
     35  CBD       48.9880   13.3250   25.6140 C.3   501  HEM501      0.0000
     36  CGD       47.9100   13.4150   26.6720 C.2   501  HEM501      0.0000
     37  O1D       47.6860   14.4820   27.2230 O.co2 501  HEM501      0.0000
     38  O2D       47.2950   12.4100   27.1330 O.co2 501  HEM501      0.0000
     39  NA        49.8900   10.6960   20.3590 N.ar  501  HEM501      0.0000
     40  NB        51.9860   10.8020   18.4730 N.2   501  HEM501      0.0000
     41  NC        53.5460   11.9270   20.4640 N.ar  501  HEM501      0.0000
     42  ND        51.6410   11.6890   22.3800 N.2   501  HEM501      0.0000
     43 FE         51.7550   11.3250   20.4220 Fe    501  HEM501      0.0000
@<TRIPOS>BOND
     1    21    20    2
     2    20    17    1
     3    19    16    1
     4    16    17    2
     5    16    15    1
     6    17    18    1
     7    15     2    1
     8    15    40    2
     9    18     3    2
    10    18    40    1
    11     3    22    1
    12     2     8    2
    13    40    43    1
    14    26    23    1
    15     9     7    1
    16     8     7   ar
    17     8    39   ar
    18    22    23   ar
    19    22    41   ar
    20     7     6   ar
    21    23    24   ar
    22    39    43    1
    23    39     5   ar
    24    43    41    1
    25    43    42    1
    26    41    25   ar
    27     6     5   ar
    28     6    10    1
    29    24    25   ar
    30    24    27    1
    31     5     1    2
    32    25     4    1
    33    28    27    2
    34    10    11    1
    35    11    12    1
    36    13    12   ar
    37    42    32    2
    38    42    29    1
    39    12    14   ar
    40     1    32    1
    41     4    29    2
    42    32    31    1
    43    29    30    1
    44    31    30    2
    45    31    34    1
    46    30    33    1
    47    35    34    1
    48    35    36    1
    49    36    38   ar
    50    36    37   ar
