@<TRIPOS>MOLECULE
1f28_F89_A_1.pdb
 37 41 0 0 0
SMALL
GASTEIGER

@<TRIPOS>ATOM
      1  C1         0.3970  -14.1130   24.4100 C.1   401  F89401      0.2000
      2  O1A        1.0510  -14.2760   25.4420 O.2   401  F89401     -0.2127
      3  N2        -0.8650  -13.5540   24.5860 N.2   401  F89401     -0.2741
      4  C3        -1.7460  -13.2970   23.5590 C.1   401  F89401      0.1262
      5  C3M       -3.0930  -12.6900   23.8250 C.3   401  F89401      0.1438
      6  N4        -1.3580  -13.6110   22.2720 N.2   401  F89401     -0.3457
      7  C4A       -0.1270  -14.1720   21.9690 C.2   401  F89401      0.1415
      8  C5         0.1620  -14.4590   20.5660 C.2   401  F89401      0.0300
      9  C6         1.4270  -15.0550   20.1700 C.2   401  F89401      0.0021
     10  C6A        2.4350  -15.3620   21.1760 C.ar  401  F89401     -0.0025
     11  C7         3.6860  -15.9530   20.7380 C.ar  401  F89401     -0.0005
     12  C8         4.7080  -16.2820   21.7100 C.ar  401  F89401     -0.0026
     13  C9         4.5020  -16.0220   23.1450 C.ar  401  F89401     -0.0009
     14  C10        3.2550  -15.4310   23.6040 C.ar  401  F89401     -0.0053
     15  C1B        2.1780  -15.0780   22.6550 C.ar  401  F89401      0.0005
     16  C1A        0.8680  -14.4710   23.0510 C.3   401  F89401      0.1939
     17  C11        5.5550  -16.3760   24.1510 C.3   401  F89401      0.1385
     18  N12        6.1880  -17.7040   23.8980 N.pl3 401  F89401     -0.2328
     19  C13        5.5940  -19.0330   24.1660 C.ar  401  F89401      0.0654
     20  C14        4.2400  -19.2060   24.7600 C.ar  401  F89401      0.0136
     21  C15        3.7290  -20.5470   24.9800 C.ar  401  F89401      0.0033
     22  C16        4.4940  -21.7080   24.6340 C.ar  401  F89401      0.0513
     23  C17        5.8400  -21.5620   24.0430 C.ar  401  F89401      0.0056
     24  C18        6.3840  -20.2160   23.8140 C.ar  401  F89401      0.0162
     25  C19        2.4470  -20.9720   25.5470 C.3   401  F89401      0.1211
     26  C          3.7260  -22.9080   24.9600 C.2   401  F89401      0.2494
     27  O          3.8720  -24.0070   24.4090 O.2   401  F89401     -0.2699
     28  N          2.5380  -22.4470   25.4950 N.am  401  F89401     -0.2636
     29  CA         1.1800  -23.0730   25.8130 C.3   401  F89401      0.1800
     30  CT         1.1650  -23.8410   27.1880 C.2   401  F89401      0.3825
     31  O1         2.0120  -24.7230   27.3980 O.co2 401  F89401     -0.2438
     32  O2         0.3610  -23.5160   28.0800 O.co2 401  F89401     -0.2438
     33  CB         0.5810  -23.9540   24.6510 C.3   401  F89401      0.0433
     34  CG         0.2920  -23.2340   23.3210 C.3   401  F89401      0.1163
     35  CD        -1.1280  -22.6250   23.1820 C.2   401  F89401      0.3649
     36  OE1       -1.4420  -21.6790   23.9250 O.co2 401  F89401     -0.2457
     37  OE2       -1.8140  -22.8880   22.1870 O.co2 401  F89401     -0.2457
@<TRIPOS>BOND
     1     9     8    2
     2     9    10    1
     3     8     7    1
     4    11    10   ar
     5    11    12   ar
     6    10    15   ar
     7    12    13   ar
     8     7     6    2
     9     7    16    1
    10    37    35   ar
    11     6     4    2
    12    15    16    1
    13    15    14   ar
    14    16     1    1
    15    13    14   ar
    16    13    17    1
    17    35    34    1
    18    35    36   ar
    19    34    33    1
    20     4     5    1
    21     4     3    2
    22    24    23   ar
    23    24    19   ar
    24    18    17    1
    25    18    19    1
    26    23    22   ar
    27    19    20   ar
    28    27    26    2
    29     1     3    2
    30     1     2    2
    31    22    26    1
    32    22    21   ar
    33    33    29    1
    34    20    21   ar
    35    26    28   am
    36    21    25    1
    37    28    25    1
    38    28    29    1
    39    29    30    1
    40    30    31   ar
    41    30    32   ar
