@<TRIPOS>MOLECULE
1f28_UMP_A_1.pdb
 20 21 0 0 0
SMALL
GASTEIGER

@<TRIPOS>ATOM
      1  N1         2.5070  -10.9110   23.8790 N.am  301  UMP301     -0.2018
      2  C2         3.4130  -11.3000   24.8940 C.1   301  UMP301      0.2802
      3  N3         4.5520  -11.9430   24.4130 N.2   301  UMP301     -0.2497
      4  C4         4.8260  -12.2140   23.0800 C.1   301  UMP301      0.1941
      5  C5         3.8580  -11.8070   21.9720 C.3   301  UMP301      0.1579
      6  C6         2.8190  -10.7540   22.4170 C.3   301  UMP301      0.1249
      7  O2         3.2450  -11.1010   26.1060 O.2   301  UMP301     -0.1922
      8  O4         5.8660  -12.8170   22.7980 O.2   301  UMP301     -0.2133
      9  C1'        1.0820  -10.5130   24.1410 C.3   301  UMP301      0.2048
     10  C2'        0.8720   -9.0230   24.4230 C.3   301  UMP301      0.0871
     11  C3'       -0.5750   -8.7680   24.0220 C.3   301  UMP301      0.1857
     12  C4'       -0.8240   -9.6220   22.7500 C.3   301  UMP301      0.1774
     13  O3'       -1.4350   -9.2130   25.1050 O.3   301  UMP301     -0.2203
     14  O4'        0.1500  -10.7430   22.9650 O.3   301  UMP301     -0.3342
     15  C5'       -0.4390   -8.8480   21.4860 C.3   301  UMP301      0.1858
     16  O5'       -1.4220   -7.7530   21.3580 O.3   301  UMP301     -0.2675
     17  P         -0.9690   -6.3530   20.7560 P.3   301  UMP301      0.5327
     18  OP1       -0.1640   -5.7410   21.8360 O.3   301  UMP301     -0.1145
     19  OP2       -0.1870   -6.5430   19.5410 O.2   301  UMP301     -0.2224
     20  OP3       -2.0220   -5.4240   20.3960 O.3   301  UMP301     -0.1145
@<TRIPOS>BOND
     1    19    17    2
     2    20    17    1
     3    17    16    1
     4    17    18    1
     5    16    15    1
     6    15    12    1
     7     5     6    1
     8     5     4    1
     9     6     1    1
    10    12    14    1
    11    12    11    1
    12     8     4    2
    13    14     9    1
    14     4     3    2
    15     1     9    1
    16     1     2   am
    17    11    10    1
    18    11    13    1
    19     9    10    1
    20     3     2    2
    21     2     7    2
