@<TRIPOS>MOLECULE
1f29_VS1_A_1.pdb
 40 43 0 0 0
SMALL
GASTEIGER

@<TRIPOS>ATOM
      1  N1         4.6870  -10.9630    3.0800 N.am  300  VS1300     -0.1804
      2  C3         5.5890  -10.4180    4.1060 C.3   300  VS1300      0.1786
      3  C12        5.6250   -8.8760    4.1270 C.3   300  VS1300      0.0575
      4  C14        6.0020   -8.3060    2.7860 C.ar  300  VS1300     -0.0200
      5  C15        6.9310   -8.9370    1.9350 C.ar  300  VS1300     -0.0042
      6  C16        7.1930   -8.4170    0.6610 C.ar  300  VS1300     -0.0003
      7  C17        6.5640   -7.2410    0.2390 C.ar  300  VS1300     -0.0000
      8  C18        5.6760   -6.5790    1.0990 C.ar  300  VS1300     -0.0003
      9  C19        5.3910   -7.1080    2.3690 C.ar  300  VS1300     -0.0042
     10  C11        5.0710  -10.8990    5.4060 C.2   300  VS1300      0.2616
     11  N20        6.0050  -11.3090    6.3010 N.am  300  VS1300     -0.2057
     12  C21        5.5380  -11.7460    7.6120 C.3   300  VS1300      0.0975
     13  C23        5.7840  -13.2850    7.7960 C.3   300  VS1300      0.0264
     14  C24        4.9540  -14.1640    6.8560 C.3   300  VS1300      0.0281
     15  C29        5.2300  -15.6270    7.0870 C.ar  300  VS1300     -0.0221
     16  C30        6.2740  -16.2650    6.3880 C.ar  300  VS1300     -0.0043
     17  C31        6.6050  -17.6040    6.6750 C.ar  300  VS1300     -0.0003
     18  C32        5.8890  -18.3030    7.6610 C.ar  300  VS1300     -0.0000
     19  C33        4.8370  -17.6770    8.3570 C.ar  300  VS1300     -0.0003
     20  C34        4.5150  -16.3410    8.0670 C.ar  300  VS1300     -0.0043
     21  C25        7.4680  -11.4080    8.9000 C.3   300  VS1300      0.1577
     22  S26        8.1900  -11.7410   10.4140 S.O2  300  VS1300      0.0087
     23  C35        9.8070  -12.2110    9.9880 C.ar  300  VS1300      0.1057
     24  C36       10.1970  -13.5600   10.1280 C.ar  300  VS1300      0.0183
     25  C37       11.5410  -13.9390    9.9350 C.ar  300  VS1300      0.0013
     26  C38       12.5080  -12.9780    9.5900 C.ar  300  VS1300      0.0001
     27  C39       12.1180  -11.6460    9.4150 C.ar  300  VS1300      0.0013
     28  C40       10.7760  -11.2680    9.6030 C.ar  300  VS1300      0.0183
     29  O36        7.4980  -12.9260   10.9290 O.2   300  VS1300     -0.1686
     30  O35        8.1910  -10.5840   11.2850 O.2   300  VS1300     -0.1686
     31  O13        3.8650  -10.9220    5.6750 O.2   300  VS1300     -0.2715
     32  C2         4.7260  -12.3060    2.7540 C.2   300  VS1300      0.3238
     33  O10        5.3360  -13.1020    3.4690 O.2   300  VS1300     -0.2508
     34  N4         3.7220  -12.7700    1.9310 N.am  300  VS1300     -0.2577
     35  C5         3.6440  -14.2330    1.6540 C.3   300  VS1300      0.1271
     36  C6         2.1860  -14.5750    1.4040 C.3   300  VS1300      0.1637
     37  O7         1.7500  -13.7980    0.2940 O.3   300  VS1300     -0.3501
     38  C8         1.7420  -12.3810    0.5670 C.3   300  VS1300      0.1637
     39  C9         3.1610  -11.9010    0.8770 C.3   300  VS1300      0.1271
     40  C22        6.2040  -11.0060    8.7440 C.3   300  VS1300      0.0474
@<TRIPOS>BOND
     1     7     6   ar
     2     7     8   ar
     3    37    38    1
     4    37    36    1
     5    38    39    1
     6     6     5   ar
     7    39    34    1
     8     8     9   ar
     9    36    35    1
    10    35    34    1
    11    34    32   am
    12     5     4   ar
    13     9     4   ar
    14    32     1   am
    15    32    33    2
    16     4     3    1
    17     1     2    1
    18     2     3    1
    19     2    10    1
    20    10    31    2
    21    10    11   am
    22    11    12    1
    23    16    17   ar
    24    16    15   ar
    25    17    18   ar
    26    14    15    1
    27    14    13    1
    28    15    20   ar
    29    12    13    1
    30    12    40    1
    31    18    19   ar
    32    20    19   ar
    33    40    21    1
    34    21    22    1
    35    27    26   ar
    36    27    28   ar
    37    26    25   ar
    38    28    23   ar
    39    25    24   ar
    40    23    24   ar
    41    23    22    1
    42    22    29    2
    43    22    30    2
