@<TRIPOS>MOLECULE
1f2a_VS2_A_1.pdb
 43 46 0 0 0
SMALL
GASTEIGER

@<TRIPOS>ATOM
      1  C1         1.1420  -12.9730    1.1910 C.ar  300  VS2300      0.0213
      2  C2         0.9470  -12.2720   -0.0190 C.ar  300  VS2300     -0.0007
      3  C3        -0.3550  -11.9460   -0.4540 C.ar  300  VS2300     -0.0002
      4  C4        -1.4670  -12.3170    0.3150 C.ar  300  VS2300     -0.0000
      5  C5        -1.2840  -13.0210    1.5130 C.ar  300  VS2300     -0.0002
      6  C6         0.0150  -13.3510    1.9540 C.ar  300  VS2300     -0.0007
      7  C7         2.5350  -13.1130    1.7610 C.3   300  VS2300      0.2368
      8  O1         2.9520  -11.9060    2.4020 O.3   300  VS2300     -0.4285
      9  C8         4.0610  -11.9060    3.1600 C.2   300  VS2300      0.4219
     10  O2         4.6330  -12.9370    3.5160 O.2   300  VS2300     -0.2245
     11  N1         4.3710  -10.6690    3.6420 N.am  300  VS2300     -0.1607
     12  C9         5.3750  -10.4560    4.6980 C.3   300  VS2300      0.1804
     13  C10        5.7220   -8.9680    4.8390 C.3   300  VS2300      0.0575
     14  C11        5.9910   -8.3400    3.5000 C.ar  300  VS2300     -0.0200
     15  C12        5.2170   -7.2270    3.1410 C.ar  300  VS2300     -0.0042
     16  C13        5.3680   -6.6430    1.8760 C.ar  300  VS2300     -0.0003
     17  C14        6.2890   -7.1620    0.9550 C.ar  300  VS2300     -0.0000
     18  C15        7.0600   -8.2780    1.3040 C.ar  300  VS2300     -0.0003
     19  C16        6.9150   -8.8670    2.5760 C.ar  300  VS2300     -0.0042
     20  C17        4.8580  -10.9620    5.9980 C.2   300  VS2300      0.2616
     21  O3         3.6510  -10.9540    6.2650 O.2   300  VS2300     -0.2715
     22  N2         5.7720  -11.3590    6.9160 N.am  300  VS2300     -0.2057
     23  C18        5.3060  -11.7840    8.2370 C.3   300  VS2300      0.0974
     24  C19        5.6130  -13.3080    8.4060 C.3   300  VS2300      0.0264
     25  C20        4.8200  -14.1800    7.4270 C.3   300  VS2300      0.0281
     26  C21        5.1240  -15.6400    7.6260 C.ar  300  VS2300     -0.0221
     27  C22        4.6380  -16.3370    8.7450 C.ar  300  VS2300     -0.0043
     28  C23        4.9880  -17.6850    8.9530 C.ar  300  VS2300     -0.0003
     29  C24        5.8250  -18.3370    8.0300 C.ar  300  VS2300     -0.0000
     30  C25        6.2990  -17.6540    6.8990 C.ar  300  VS2300     -0.0003
     31  C26        5.9500  -16.3080    6.7010 C.ar  300  VS2300     -0.0043
     32  C28        7.2210  -11.3570    9.6300 C.3   300  VS2300      0.1530
     33  S1         7.8060  -11.7480   11.2140 S.O2  300  VS2300     -0.0058
     34  O4         6.9630  -12.8220   11.7160 O.2   300  VS2300     -0.1727
     35  O5         7.9470  -10.5990   12.0820 O.2   300  VS2300     -0.1727
     36  C29        9.4650  -12.4370   10.8860 C.3   300  VS2300      0.1771
     37  C30        9.5150  -13.7090   10.0200 C.ar  300  VS2300      0.0013
     38  C31        8.9680  -14.9030   10.5220 C.ar  300  VS2300     -0.0026
     39  C32        8.8510  -16.0480    9.7110 C.ar  300  VS2300     -0.0003
     40  C33        9.2930  -16.0210    8.3780 C.ar  300  VS2300     -0.0000
     41  C34        9.8820  -14.8570    7.8680 C.ar  300  VS2300     -0.0003
     42  C35        9.9950  -13.7100    8.6890 C.ar  300  VS2300     -0.0026
     43  C27        5.9410  -11.0130    9.3920 C.3   300  VS2300      0.0470
@<TRIPOS>BOND
     1     3     2   ar
     2     3     4   ar
     3     2     1   ar
     4     4     5   ar
     5    17    18   ar
     6    17    16   ar
     7     1     7    1
     8     1     6   ar
     9    18    19   ar
    10     5     6   ar
    11     7     8    1
    12    16    15   ar
    13     8     9    1
    14    19    14   ar
    15    15    14   ar
    16     9    10    2
    17     9    11   am
    18    14    13    1
    19    11    12    1
    20    12    13    1
    21    12    20    1
    22    20    21    2
    23    20    22   am
    24    31    30   ar
    25    31    26   ar
    26    30    29   ar
    27    22    23    1
    28    25    26    1
    29    25    24    1
    30    26    27   ar
    31    41    40   ar
    32    41    42   ar
    33    29    28   ar
    34    23    24    1
    35    23    43    1
    36    40    39   ar
    37    42    37   ar
    38    27    28   ar
    39    43    32    1
    40    32    33    1
    41    39    38   ar
    42    37    38   ar
    43    37    36    1
    44    36    33    1
    45    33    34    2
    46    33    35    2
