@<TRIPOS>MOLECULE
1f2b_VS3_A_1.pdb
 46 49 0 0 0
SMALL
GASTEIGER

@<TRIPOS>ATOM
      1  C1         1.2210  -13.0160    1.2010 C.ar  300  VS3300      0.0213
      2  C2         1.0380  -12.3490   -0.0220 C.ar  300  VS3300     -0.0007
      3  C3        -0.2600  -12.0360   -0.4680 C.ar  300  VS3300     -0.0002
      4  C4        -1.3710  -12.3920    0.3150 C.ar  300  VS3300     -0.0000
      5  C5        -1.1900  -13.0470    1.5430 C.ar  300  VS3300     -0.0002
      6  C6         0.1080  -13.3580    1.9880 C.ar  300  VS3300     -0.0007
      7  C7         2.6030  -13.2680    1.7050 C.3   300  VS3300      0.2368
      8  O1         3.0570  -12.1070    2.4060 O.3   300  VS3300     -0.4285
      9  C8         4.1080  -12.1580    3.2310 C.2   300  VS3300      0.4219
     10  O2         4.7040  -13.2070    3.5260 O.2   300  VS3300     -0.2245
     11  N1         4.3570  -10.8980    3.7140 N.am  300  VS3300     -0.1607
     12  C9         5.4000  -10.5980    4.7060 C.3   300  VS3300      0.1804
     13  C10        5.7020   -9.0800    4.8030 C.3   300  VS3300      0.0575
     14  C11        6.0360   -8.4650    3.4650 C.ar  300  VS3300     -0.0200
     15  C12        5.3340   -7.3150    3.0870 C.ar  300  VS3300     -0.0042
     16  C13        5.5730   -6.7330    1.8380 C.ar  300  VS3300     -0.0003
     17  C14        6.5190   -7.2950    0.9650 C.ar  300  VS3300     -0.0000
     18  C15        7.2280   -8.4360    1.3440 C.ar  300  VS3300     -0.0003
     19  C16        6.9890   -9.0200    2.5930 C.ar  300  VS3300     -0.0042
     20  C17        4.9400  -11.0610    6.0280 C.2   300  VS3300      0.2616
     21  O3         3.7550  -11.0390    6.3890 O.2   300  VS3300     -0.2715
     22  N2         5.9350  -11.4270    6.8530 N.am  300  VS3300     -0.2057
     23  C18        5.5490  -11.7540    8.2180 C.3   300  VS3300      0.0975
     24  C19        5.7000  -13.3200    8.4490 C.3   300  VS3300      0.0264
     25  C20        4.6530  -14.1640    7.7340 C.3   300  VS3300      0.0281
     26  C21        5.0090  -15.6090    7.9030 C.ar  300  VS3300     -0.0221
     27  C22        4.4590  -16.4300    8.9030 C.ar  300  VS3300     -0.0043
     28  C23        4.8600  -17.7770    9.0230 C.ar  300  VS3300     -0.0003
     29  C24        5.8150  -18.2950    8.1320 C.ar  300  VS3300     -0.0000
     30  C25        6.3640  -17.4770    7.1240 C.ar  300  VS3300     -0.0003
     31  C26        5.9630  -16.1370    7.0160 C.ar  300  VS3300     -0.0043
     32  C28        7.1010  -11.7180    9.8970 C.3   300  VS3300      0.1687
     33  S1         8.1200  -11.7970   11.1500 S.3   300  VS3300      0.0304
     34  O4         8.1460  -13.2470   11.3900 O.3   300  VS3300     -0.0616
     35  O5         7.5610  -10.9800   12.2170 O.3   300  VS3300     -0.0616
     36  O29        9.5200  -11.2750   10.7750 O.3   300  VS3300     -0.3605
     37  C30       10.7040  -11.9560   10.9940 C.ar  300  VS3300      0.1715
     38  C31       11.4980  -11.6910    9.8710 C.ar  300  VS3300      0.0415
     39  C32       12.5330  -12.5350    9.5510 C.ar  300  VS3300      0.0273
     40  C33       12.7920  -13.6460   10.3760 C.ar  300  VS3300      0.1431
     41  N3        13.9680  -14.4570   10.0470 N.pl3 300  VS3300      0.0577
     42  O8        14.2790  -15.4110   10.7930 O.2   300  VS3300     -0.1261
     43  O9        14.7460  -14.1670    8.9740 O.2   300  VS3300     -0.1261
     44  C34       12.0190  -13.9120   11.5680 C.ar  300  VS3300      0.0273
     45  C35       10.9700  -13.0470   11.8770 C.ar  300  VS3300      0.0415
     46  C27        6.3690  -10.8950    9.1800 C.3   300  VS3300      0.0485
@<TRIPOS>BOND
     1     3     2   ar
     2     3     4   ar
     3     2     1   ar
     4     4     5   ar
     5    17    18   ar
     6    17    16   ar
     7     1     7    1
     8     1     6   ar
     9    18    19   ar
    10     5     6   ar
    11     7     8    1
    12    16    15   ar
    13     8     9    1
    14    19    14   ar
    15    15    14   ar
    16     9    10    2
    17     9    11   am
    18    14    13    1
    19    11    12    1
    20    12    13    1
    21    12    20    1
    22    20    21    2
    23    20    22   am
    24    22    23    1
    25    31    30   ar
    26    31    26   ar
    27    30    29   ar
    28    25    26    1
    29    25    24    1
    30    26    27   ar
    31    29    28   ar
    32    23    24    1
    33    23    46    1
    34    27    28   ar
    35    43    41    2
    36    46    32    1
    37    39    38   ar
    38    39    40   ar
    39    38    37   ar
    40    32    33    1
    41    41    40    1
    42    41    42    2
    43    40    44   ar
    44    36    37    1
    45    36    33    1
    46    37    45   ar
    47    33    34    1
    48    33    35    1
    49    44    45   ar
