@<TRIPOS>MOLECULE
1f2c_VS4_A_1.pdb
 44 47 0 0 0
SMALL
GASTEIGER

@<TRIPOS>ATOM
      1  C8        -5.4870   -6.3250   10.4620 C.2   300  VS4300      0.3237
      2  N3        -6.0300   -5.0670   10.2170 N.am  300  VS4300     -0.2600
      3  C39       -5.2100   -3.9150    9.7400 C.3   300  VS4300      0.1123
      4  C40       -6.0450   -2.9810    8.8470 C.3   300  VS4300      0.0940
      5  N4        -7.2790   -2.5540    9.5550 N.3   300  VS4300     -0.2686
      6  C33       -8.0360   -1.7070    8.6160 C.3   300  VS4300      0.0897
      7  C49       -8.1210   -3.7350    9.9220 C.3   300  VS4300      0.0940
      8  C48       -7.3380   -4.6940   10.8340 C.3   300  VS4300      0.1123
      9  O2        -6.1760   -7.2210   10.9870 O.2   300  VS4300     -0.2508
     10  N1        -4.1390   -6.5390   10.1540 N.am  300  VS4300     -0.1804
     11  C9        -3.4310   -7.7880   10.5680 C.3   300  VS4300      0.1786
     12  C10       -1.9180   -7.8210   10.2200 C.3   300  VS4300      0.0575
     13  C11       -1.6250   -7.3980    8.8170 C.ar  300  VS4300     -0.0200
     14  C12       -0.4640   -6.6500    8.6040 C.ar  300  VS4300     -0.0042
     15  C13       -0.1970   -6.1200    7.3360 C.ar  300  VS4300     -0.0003
     16  C14       -1.0970   -6.3370    6.2800 C.ar  300  VS4300     -0.0000
     17  C15       -2.2530   -7.0940    6.4940 C.ar  300  VS4300     -0.0003
     18  C16       -2.5170   -7.6310    7.7610 C.ar  300  VS4300     -0.0042
     19  C17       -3.5130   -7.9910   12.0520 C.2   300  VS4300      0.2616
     20  O3        -3.3160   -7.0830   12.8650 O.2   300  VS4300     -0.2715
     21  N2        -3.7360   -9.2560   12.4820 N.am  300  VS4300     -0.2057
     22  C18       -3.7920   -9.4660   13.9200 C.3   300  VS4300      0.0975
     23  C19       -5.2770   -9.7210   14.3280 C.3   300  VS4300      0.0264
     24  C20       -6.2440   -8.5840   14.0570 C.3   300  VS4300      0.0281
     25  C21       -7.6590   -8.9620   14.3880 C.ar  300  VS4300     -0.0221
     26  C22       -8.0190   -9.6190   15.5770 C.ar  300  VS4300     -0.0043
     27  C23       -9.3670   -9.8640   15.8630 C.ar  300  VS4300     -0.0003
     28  C24      -10.3660   -9.4580   14.9640 C.ar  300  VS4300     -0.0000
     29  C25      -10.0190   -8.8000   13.7800 C.ar  300  VS4300     -0.0003
     30  C26       -8.6670   -8.5540   13.4970 C.ar  300  VS4300     -0.0043
     31  C28       -3.6660  -11.7520   14.2770 C.3   300  VS4300      0.1747
     32  S1        -3.5670  -13.2270   15.0550 S.O2  300  VS4300      0.0815
     33  N5        -3.8290  -14.4440   13.9840 N.4   300  VS4300      0.0645
     34  O6        -5.0140  -14.4420   13.1650 O.3   300  VS4300     -0.2417
     35  C34       -4.8870  -15.5070   12.2490 C.3   300  VS4300      0.1966
     36  C41       -6.1700  -15.6860   11.5180 C.ar  300  VS4300      0.0095
     37  C42       -6.9050  -16.8740   11.6800 C.ar  300  VS4300     -0.0018
     38  C43       -8.1420  -17.0250   11.0320 C.ar  300  VS4300     -0.0002
     39  C44       -8.6310  -15.9810   10.2150 C.ar  300  VS4300     -0.0000
     40  C45       -7.8820  -14.7970   10.0420 C.ar  300  VS4300     -0.0002
     41  C46       -6.6570  -14.6530   10.7090 C.ar  300  VS4300     -0.0018
     42  O4        -4.6990  -13.1140   15.9050 O.2   300  VS4300     -0.1541
     43  O5        -2.2980  -13.3900   15.7390 O.2   300  VS4300     -0.1541
     44  C27       -2.9660  -10.6250   14.4350 C.3   300  VS4300      0.0488
@<TRIPOS>BOND
     1    16    17   ar
     2    16    15   ar
     3    17    18   ar
     4    15    14   ar
     5    18    13   ar
     6    14    13   ar
     7     6     5    1
     8    13    12    1
     9     4     5    1
    10     4     3    1
    11     5     7    1
    12     3     2    1
    13     7     8    1
    14    40    39   ar
    15    40    41   ar
    16    10     1   am
    17    10    11    1
    18    39    38   ar
    19     2     1   am
    20     2     8    1
    21    12    11    1
    22     1     9    2
    23    11    19    1
    24    41    36   ar
    25    38    37   ar
    26    36    37   ar
    27    36    35    1
    28    19    21   am
    29    19    20    2
    30    35    34    1
    31    21    22    1
    32    34    33    1
    33    30    29   ar
    34    30    25   ar
    35    29    28   ar
    36    22    23    1
    37    22    44    1
    38    33    32    1
    39    24    23    1
    40    24    25    1
    41    31    44    1
    42    31    32    1
    43    25    26   ar
    44    28    27   ar
    45    32    43    2
    46    32    42    2
    47    26    27   ar
