@<TRIPOS>MOLECULE
1f2d_PLP_A_1.pdb
 15 15 0 0 0
SMALL
GASTEIGER

@<TRIPOS>ATOM
      1  N1        30.5740  127.9860   16.1720 N.ar  342  PLP342     -0.2452
      2  C2        29.9220  128.0110   17.3970 C.ar  342  PLP342      0.0978
      3  C2A       28.6870  127.1220   17.6020 C.3   342  PLP342      0.0555
      4  C3        30.3940  128.8440   18.4040 C.ar  342  PLP342      0.2049
      5  O3        29.7750  128.8970   19.6230 O.3   342  PLP342     -0.2857
      6  C4        31.5240  129.6390   18.1600 C.ar  342  PLP342      0.0182
      7  C4A       32.0090  130.5450   19.3080 C.3   342  PLP342      0.0342
      8  C5        32.1730  129.5910   16.8720 C.ar  342  PLP342      0.0261
      9  C6        31.6790  128.7540   15.9020 C.ar  342  PLP342      0.0965
     10  C5A       33.3880  130.4190   16.5160 C.3   342  PLP342      0.1815
     11  O4P       34.6390  130.1680   17.0880 O.3   342  PLP342     -0.2653
     12  P         35.8620  131.0900   16.7540 P.3   342  PLP342      0.5329
     13  O1P       36.0600  131.0390   15.2960 O.2   342  PLP342     -0.2224
     14  O2P       37.0240  130.4360   17.6010 O.3   342  PLP342     -0.1145
     15  O3P       35.5690  132.4000   17.3430 O.3   342  PLP342     -0.1145
@<TRIPOS>BOND
     1    13    12    2
     2     9     1   ar
     3     9     8   ar
     4     1     2   ar
     5    10     8    1
     6    10    11    1
     7    12    11    1
     8    12    15    1
     9    12    14    1
    10     8     6   ar
    11     2     3    1
    12     2     4   ar
    13     6     4   ar
    14     6     7    1
    15     4     5    1
