@<TRIPOS>MOLECULE
1f2e_GSH_A_1.pdb
 20 19 0 0 0
SMALL
GASTEIGER

@<TRIPOS>ATOM
      1  N1        24.2050    1.2430    6.9680 N.3   210  GSH210     -0.1208
      2  CA1       25.1090    2.1260    7.7040 C.3   210  GSH210      0.1948
      3  C1        26.3430    2.5530    6.8410 C.2   210  GSH210      0.3819
      4  O11       26.4480    2.1020    5.6650 O.co2 210  GSH210     -0.2441
      5  O12       27.1830    3.3460    7.3660 O.co2 210  GSH210     -0.2441
      6  CB1       25.5150    1.3410    8.9720 C.3   210  GSH210      0.0402
      7  CG1       26.3780    2.0400   10.0430 C.3   210  GSH210      0.0889
      8  CD1       26.6550    1.1180   11.2290 C.2   210  GSH210      0.2418
      9  OE1       26.2760   -0.0560   11.2320 O.2   210  GSH210     -0.2733
     10  N2        27.3180    1.6750   12.2560 N.am  210  GSH210     -0.1968
     11  CA2       27.6740    0.9720   13.5000 C.3   210  GSH210      0.1843
     12  C2        27.3020    1.8220   14.6900 C.2   210  GSH210      0.2627
     13  O2        27.6880    2.9960   14.7510 O.2   210  GSH210     -0.2714
     14  CB2       29.1780    0.6920   13.5890 C.3   210  GSH210      0.0997
     15  SG2       29.8660   -0.3930   12.3410 S.3   210  GSH210     -0.0797
     16  N3        26.5500    1.2480   15.6320 N.am  210  GSH210     -0.1917
     17  CA3       26.1220    1.9910   16.8210 C.3   210  GSH210      0.2285
     18  C3        26.4390    1.2480   18.0800 C.2   210  GSH210      0.3865
     19  O31       27.1750    0.2240   17.9950 O.co2 210  GSH210     -0.2437
     20  O32       25.9480    1.7030   19.1500 O.co2 210  GSH210     -0.2437
@<TRIPOS>BOND
     1     4     3   ar
     2     3     5   ar
     3     3     2    1
     4     1     2    1
     5     2     6    1
     6     6     7    1
     7     7     8    1
     8     8     9    2
     9     8    10   am
    10    10    11    1
    11    15    14    1
    12    11    14    1
    13    11    12    1
    14    12    13    2
    15    12    16   am
    16    16    17    1
    17    17    18    1
    18    19    18   ar
    19    18    20   ar
