@<TRIPOS>MOLECULE
1f2p_PHE_A_1.pdb
 12 12 0 0 0
SMALL
GASTEIGER

@<TRIPOS>ATOM
      1  N         16.1820   15.9410   52.1520 N.3   903  PHE903     -0.1205
      2  CA        15.0890   16.9300   51.8910 C.3   903  PHE903      0.1986
      3  C         13.7800   16.2360   51.6750 C.2   903  PHE903      0.3822
      4  O         13.7260   14.9820   51.6430 O.co2 903  PHE903     -0.2440
      5  CB        15.3790   17.7650   50.6390 C.3   903  PHE903      0.0569
      6  CG        16.7610   18.2720   50.5890 C.ar  903  PHE903     -0.0202
      7  CD1       17.1930   19.2250   51.5010 C.ar  903  PHE903     -0.0042
      8  CD2       17.6780   17.7290   49.6830 C.ar  903  PHE903     -0.0042
      9  CE1       18.5420   19.6340   51.5150 C.ar  903  PHE903     -0.0003
     10  CE2       19.0110   18.1270   49.6930 C.ar  903  PHE903     -0.0003
     11  CZ        19.4480   19.0670   50.5950 C.ar  903  PHE903     -0.0000
     12  OXT       12.8170   17.0050   51.5210 O.co2 903  PHE903     -0.2440
@<TRIPOS>BOND
     1     8    10   ar
     2     8     6   ar
     3    10    11   ar
     4     6     5    1
     5     6     7   ar
     6    11     9   ar
     7     5     2    1
     8     7     9   ar
     9    12     3   ar
    10     4     3   ar
    11     3     2    1
    12     2     1    1
