@<TRIPOS>MOLECULE
1f2u_ATP_A_1.pdb
 31 33 0 0 0
SMALL
GASTEIGER

@<TRIPOS>ATOM
      1  PG         8.2520   -2.0900   -5.8770 P.3   901  ATP901      0.5373
      2  O1G        7.3610   -3.1140   -6.4270 O.2   901  ATP901     -0.2221
      3  O2G        7.7390   -1.3110   -4.7410 O.3   901  ATP901     -0.1143
      4  O3G        9.6020   -2.6870   -5.6090 O.3   901  ATP901     -0.1143
      5  PB         7.9620   -0.8540   -8.6580 P.3   901  ATP901      0.2277
      6  O1B        7.1850   -2.0760   -9.0120 O.3   901  ATP901     -0.4368
      7  O2B        9.1880   -0.5930   -9.4490 O.2   901  ATP901     -0.5168
      8  O3B        8.3450   -0.9130   -7.0170 O.3   901  ATP901     -0.2258
      9  PA         5.6080    0.5090   -9.7020 P.3   901  ATP901      0.2189
     10  O1A        5.9650    0.3040  -11.0900 O.2   901  ATP901     -0.5170
     11  O2A        4.5160   -0.2990   -9.1200 O.3   901  ATP901     -0.4371
     12  O3A        6.9780    0.3480   -8.8820 O.3   901  ATP901     -0.2700
     13  O5'        5.2480    1.9980   -9.5950 O.3   901  ATP901     -0.3112
     14  C5'        4.8340    2.6340   -8.4560 C.3   901  ATP901      0.1813
     15  C4'        5.3140    4.0320   -8.4740 C.3   901  ATP901      0.1821
     16  O4'        4.7220    4.7190   -9.6250 O.3   901  ATP901     -0.3135
     17  C3'        4.8750    4.6940   -7.2400 C.3   901  ATP901      0.2184
     18  O3'        6.0600    4.8970   -6.4760 O.3   901  ATP901     -0.2174
     19  C2'        4.1510    5.9390   -7.7040 C.3   901  ATP901      0.2570
     20  O2'        4.6350    7.1280   -7.1200 O.3   901  ATP901     -0.2130
     21  C1'        4.2650    6.0290   -9.2530 C.3   901  ATP901      0.3186
     22  N9         2.9250    6.3070   -9.8930 N.pl3 901  ATP901     -0.1439
     23  C8         1.7620    5.5790   -9.7820 C.3   901  ATP901      0.3377
     24  N7         0.7340    6.0470  -10.4250 N.2   901  ATP901     -0.2095
     25  C5         1.2470    7.1700  -11.0390 C.2   901  ATP901      0.2526
     26  C6         0.6410    8.1670  -11.8620 C.2   901  ATP901      0.4393
     27  N6        -0.6340    8.0740  -12.2260 N.pl3 901  ATP901      0.2180
     28  N1         1.4050    9.1950  -12.3160 N.2   901  ATP901      0.0021
     29  C2         2.6940    9.2740  -11.9410 C.3   901  ATP901      0.5254
     30  N3         3.3900    8.4120  -11.1560 N.2   901  ATP901     -0.0055
     31  C4         2.5780    7.3730  -10.7060 C.2   901  ATP901      0.3518
@<TRIPOS>BOND
     1    28    29    1
     2    28    26    2
     3    27    26    1
     4    29    30    1
     5    26    25    1
     6    30    31    2
     7    10     9    2
     8    25    31    1
     9    25    24    2
    10    31    22    1
    11    24    23    1
    12    22    23    1
    13    22    21    1
    14     9    13    1
    15     9    11    1
    16     9    12    1
    17    16    21    1
    18    16    15    1
    19    13    14    1
    20     7     5    2
    21    21    19    1
    22     6     5    1
    23    12     5    1
    24     5     8    1
    25    15    14    1
    26    15    17    1
    27    19    17    1
    28    19    20    1
    29    17    18    1
    30     8     1    1
    31     2     1    2
    32     1     4    1
    33     1     3    1
