@<TRIPOS>MOLECULE
1f31_SIA_A_1.pdb
 20 20 0 0 0
SMALL
GASTEIGER

@<TRIPOS>ATOM
      1  C1        14.2260   55.8080    4.2200 C.2   2000  SIA2000     0.3914
      2  C2        13.4520   55.9090    5.5570 C.3   2000  SIA2000     0.2203
      3  C3        14.1740   56.8800    6.4780 C.3   2000  SIA2000     0.0760
      4  C4        14.1050   58.2700    5.8140 C.3   2000  SIA2000     0.1773
      5  C5        12.6740   58.6990    5.3910 C.3   2000  SIA2000     0.1552
      6  C6        11.8230   57.5390    4.7910 C.3   2000  SIA2000     0.1710
      7  C7        10.3140   57.9140    4.8260 C.3   2000  SIA2000     0.2134
      8  C8         9.3680   56.6930    4.7830 C.3   2000  SIA2000     0.2173
      9  C9         7.9170   57.1040    4.4790 C.3   2000  SIA2000     0.2175
     10  C10       12.0640   59.8430    3.3020 C.2   2000  SIA2000     0.2420
     11  C11       10.7540   60.6200    3.3630 C.3   2000  SIA2000     0.0964
     12  N5        12.7950   59.7890    4.4230 N.am  2000  SIA2000    -0.2020
     13  O1A       13.6280   55.3780    3.1980 O.co2 2000  SIA2000    -0.2430
     14  O1B       15.4570   56.0880    4.2080 O.co2 2000  SIA2000    -0.2430
     15  O4        14.6420   59.2510    6.6890 O.3   2000  SIA2000    -0.2211
     16  O6        12.0570   56.2850    5.5050 O.3   2000  SIA2000    -0.3429
     17  O7        10.0430   58.6780    5.9930 O.3   2000  SIA2000    -0.2176
     18  O8         9.8060   55.7740    3.7890 O.3   2000  SIA2000    -0.2175
     19  O9         7.3290   57.7470    5.6000 O.3   2000  SIA2000    -0.2175
     20  O10       12.4120   59.3170    2.2320 O.2   2000  SIA2000    -0.2733
@<TRIPOS>BOND
     1    20    10    2
     2    13     1   ar
     3    10    11    1
     4    10    12   am
     5    18     8    1
     6    14     1   ar
     7     1     2    1
     8    12     5    1
     9     9     8    1
    10     9    19    1
    11     8     7    1
    12     6     7    1
    13     6     5    1
    14     6    16    1
    15     7    17    1
    16     5     4    1
    17    16     2    1
    18     2     3    1
    19     4     3    1
    20     4    15    1
