@<TRIPOS>MOLECULE
1f31_GLA_A_1.pdb
 11 11 0 0 0
SMALL
GASTEIGER

@<TRIPOS>ATOM
      1  C1        13.7670   51.6090    6.5370 C.3   2001  GLA2001     0.1777
      2  C2        13.5920   52.7570    7.5930 C.3   2001  GLA2001     0.2141
      3  C3        12.7950   53.9420    7.0100 C.3   2001  GLA2001     0.2173
      4  C4        11.4570   53.3640    6.4600 C.3   2001  GLA2001     0.2142
      5  C5        11.6680   52.2070    5.4490 C.3   2001  GLA2001     0.1810
      6  C6        12.2860   52.5920    4.1000 C.3   2001  GLA2001     0.2141
      7  O2        12.9270   52.2710    8.7550 O.3   2001  GLA2001    -0.2176
      8  O3        13.5930   54.5700    5.9710 O.3   2001  GLA2001    -0.2175
      9  O4        10.6210   54.3730    5.9030 O.3   2001  GLA2001    -0.2176
     10  O5        12.4790   51.1460    6.0440 O.3   2001  GLA2001    -0.3481
     11  O6        11.5080   52.0970    3.0110 O.3   2001  GLA2001    -0.2176
@<TRIPOS>BOND
     1    11     6    1
     2     6     5    1
     3     5    10    1
     4     5     4    1
     5     9     4    1
     6     8     3    1
     7    10     1    1
     8     4     3    1
     9     1     2    1
    10     3     2    1
    11     2     7    1
