@<TRIPOS>MOLECULE
1f3a_GSH_A_1.pdb
 20 19 0 0 0
SMALL
GASTEIGER

@<TRIPOS>ATOM
      1  N1        24.7050   -6.2660   11.2000 N.3   224  GSH224     -0.1208
      2  CA1       25.6850   -7.4490   10.8970 C.3   224  GSH224      0.1948
      3  C1        27.0970   -7.1200   11.2660 C.2   224  GSH224      0.3819
      4  O11       28.0610   -7.9060   11.5280 O.co2 224  GSH224     -0.2441
      5  O12       27.5330   -5.8430   11.3570 O.co2 224  GSH224     -0.2441
      6  CB1       25.5090   -7.5620    9.3940 C.3   224  GSH224      0.0402
      7  CG1       26.1520   -8.8930    8.9850 C.3   224  GSH224      0.0889
      8  CD1       25.9440   -9.1620    7.5590 C.2   224  GSH224      0.2418
      9  OE1       25.0850   -8.5690    6.8140 O.2   224  GSH224     -0.2733
     10  N2        26.7840  -10.1730    7.0220 N.am  224  GSH224     -0.1968
     11  CA2       26.6000  -10.5370    5.5720 C.3   224  GSH224      0.1843
     12  C2        26.3140  -12.1290    5.5770 C.2   224  GSH224      0.2627
     13  O2        27.1650  -12.7220    6.2550 O.2   224  GSH224     -0.2714
     14  CB2       27.9230  -10.2780    4.7340 C.3   224  GSH224      0.0997
     15  SG2       28.5450   -8.6190    5.1520 S.3   224  GSH224     -0.0797
     16  N3        25.3080  -12.5180    4.8210 N.am  224  GSH224     -0.1917
     17  CA3       25.0550  -14.0030    4.6410 C.3   224  GSH224      0.2285
     18  C3        23.6110  -14.3640    4.8320 C.2   224  GSH224      0.3865
     19  O31       23.2190  -15.5670    4.6150 O.co2 224  GSH224     -0.2437
     20  O32       22.8250  -13.3710    5.2110 O.co2 224  GSH224     -0.2437
@<TRIPOS>BOND
     1    19    18   ar
     2    17    16    1
     3    17    18    1
     4    14    15    1
     5    14    11    1
     6    16    12   am
     7    18    20   ar
     8    11    12    1
     9    11    10    1
    10    12    13    2
    11     9     8    2
    12    10     8   am
    13     8     7    1
    14     7     6    1
    15     6     2    1
    16     2     1    1
    17     2     3    1
    18     3     5   ar
    19     3     4   ar
