@<TRIPOS>MOLECULE
1f3b_GBX_A_1.pdb
 43 47 0 0 0
SMALL
GASTEIGER

@<TRIPOS>ATOM
      1  O2        26.6540  -12.3620    6.4900 O.2   223  GBX223     -0.2714
      2  C1        26.9090   -6.6180   11.4850 C.2   223  GBX223      0.3819
      3  C2        26.0820  -11.5730    5.7370 C.2   223  GBX223      0.2626
      4  C3        23.1630  -13.5350    4.9780 C.2   223  GBX223      0.3865
      5  N1        24.5470   -5.8220   11.5970 N.3   223  GBX223     -0.1208
      6  C7        24.8780   -8.7680    2.4790 C.3   223  GBX223      0.2067
      7  N2        26.4790   -9.6600    7.1660 N.am  223  GBX223     -0.1969
      8  N3        25.1280  -11.9420    4.8780 N.am  223  GBX223     -0.1917
      9  CA1       25.4470   -6.9220   11.1330 C.3   223  GBX223      0.1948
     10  O11       27.7000   -7.5340   11.7390 O.co2 223  GBX223     -0.2441
     11  O12       27.2330   -5.4130   11.4860 O.co2 223  GBX223     -0.2441
     12  CB1       25.3210   -7.1230    9.6330 C.3   223  GBX223      0.0402
     13  CG1       25.9230   -8.4320    9.1480 C.3   223  GBX223      0.0889
     14  CD1       25.7280   -8.6810    7.6600 C.2   223  GBX223      0.2418
     15  OE1       24.9450   -8.0140    6.9820 O.2   223  GBX223     -0.2733
     16  CA2       26.4390  -10.0830    5.7710 C.3   223  GBX223      0.1834
     17  CB2       27.7940   -9.8160    5.0910 C.3   223  GBX223      0.0890
     18  SG2       28.2810   -8.0500    4.9840 S.3   223  GBX223     -0.1316
     19  CA3       24.6530  -13.3160    4.6970 C.3   223  GBX223      0.2285
     20  O31       22.6690  -14.6760    4.9240 O.co2 223  GBX223     -0.2437
     21  O32       22.4690  -12.5330    5.2520 O.co2 223  GBX223     -0.2437
     22  O7        24.5120   -9.5400    3.3900 O.3   223  GBX223     -0.2155
     23  C8        24.8110   -7.5160    2.8080 C.3   223  GBX223      0.2176
     24  O8        24.8610   -6.7890    1.7990 O.3   223  GBX223     -0.2173
     25  C9        25.8940   -7.0450    3.8710 C.3   223  GBX223      0.1989
     26  O9        25.8310   -5.6170    4.0070 O.3   223  GBX223     -0.2190
     27  C10       27.3900   -7.4360    3.5120 C.3   223  GBX223      0.1026
     28  C1'       26.3200  -10.1340    0.8380 C.ar  223  GBX223     -0.0020
     29  C2'       26.2410   -9.1310    1.8760 C.ar  223  GBX223      0.0072
     30  C3'       27.4510   -8.4750    2.3560 C.ar  223  GBX223     -0.0114
     31  C4'       29.9190   -8.0110    2.0700 C.ar  223  GBX223     -0.0003
     32  C5'       31.1500   -8.2680    1.4150 C.ar  223  GBX223     -0.0000
     33  C6'       32.4790   -9.5500   -0.2470 C.ar  223  GBX223     -0.0000
     34  C7'       32.5610  -10.5570   -1.2460 C.ar  223  GBX223      0.0000
     35  C8'       31.3860  -11.2960   -1.6200 C.ar  223  GBX223     -0.0000
     36  C9'       28.9340  -11.7510   -1.3900 C.ar  223  GBX223     -0.0000
     37  C9A       27.6750  -11.4580   -0.7750 C.ar  223  GBX223     -0.0000
     38  C11       27.5800  -10.4560    0.2470 C.ar  223  GBX223     -0.0003
     39  C12       28.7800   -9.7490    0.6790 C.ar  223  GBX223     -0.0003
     40  C13       28.7180   -8.7680    1.7280 C.ar  223  GBX223     -0.0033
     41  C16       31.2310   -9.2720    0.4000 C.ar  223  GBX223     -0.0000
     42  C17       30.0480  -10.0120    0.0230 C.ar  223  GBX223     -0.0000
     43  C18       30.1270  -11.0230   -1.0020 C.ar  223  GBX223     -0.0000
@<TRIPOS>BOND
     1    35    34   ar
     2    35    43   ar
     3    36    43   ar
     4    36    37   ar
     5    34    33   ar
     6    43    42   ar
     7    37    38   ar
     8    33    41   ar
     9    42    41   ar
    10    42    39   ar
    11    38    39   ar
    12    38    28   ar
    13    41    32   ar
    14    39    40   ar
    15    28    29   ar
    16    32    31   ar
    17    40    31   ar
    18    40    30   ar
    19    24    23    1
    20    29    30   ar
    21    29     6    1
    22    30    27    1
    23     6    23    1
    24     6    22    1
    25    23    25    1
    26    27    25    1
    27    27    18    1
    28    25    26    1
    29    19     8    1
    30    19     4    1
    31     8     3   am
    32    20     4   ar
    33     4    21   ar
    34    18    17    1
    35    17    16    1
    36     3    16    1
    37     3     1    2
    38    16     7    1
    39    15    14    2
    40     7    14   am
    41    14    13    1
    42    13    12    1
    43    12     9    1
    44     9     2    1
    45     9     5    1
    46     2    11   ar
    47     2    10   ar
