@<TRIPOS>MOLECULE
1f3d_TPM_J_1.pdb
 15 16 0 0 0
SMALL
GASTEIGER

@<TRIPOS>ATOM
      1  C1        17.4800    8.6140   29.5560 C.ar  401  TPM401      0.0891
      2  C2        18.7810    8.7490   29.0880 C.ar  401  TPM401      0.0179
      3  C3        19.7300    9.4270   29.8650 C.ar  401  TPM401      0.0012
      4  C5        18.0800    9.8190   31.5490 C.ar  401  TPM401      0.0012
      5  C6        17.1300    9.1480   30.7820 C.ar  401  TPM401      0.0179
      6  C4        19.3930    9.9630   31.1070 C.ar  401  TPM401      0.0286
      7  C7        20.4350   10.6250   31.9790 C.3   401  TPM401      0.2774
      8  N1        16.5430    7.9310   28.8180 N.pl3 401  TPM401     -0.1281
      9  N2        20.6400    9.9760   33.2690 N.pl3 401  TPM401     -0.0305
     10  C8        20.7860   10.7620   34.3890 C.2   401  TPM401      0.3320
     11  N3        21.2410   10.1360   35.5180 N.2   401  TPM401     -0.0662
     12  C9        20.4860   12.2380   34.3870 C.3   401  TPM401      0.1207
     13  C10       20.8620   12.8620   35.7330 C.3   401  TPM401      0.0174
     14  C11       20.2830   12.0640   36.8530 C.3   401  TPM401      0.0585
     15  C12       20.7760   10.6110   36.8290 C.3   401  TPM401      0.2629
@<TRIPOS>BOND
     1     8     1    1
     2     2     1   ar
     3     2     3   ar
     4     1     5   ar
     5     3     6   ar
     6     5     4   ar
     7     6     4   ar
     8     6     7    1
     9     7     9    1
    10     9    10    1
    11    12    10    1
    12    12    13    1
    13    10    11    2
    14    11    15    1
    15    13    14    1
    16    15    14    1
