@<TRIPOS>MOLECULE
1f3e_DPZ_A_1.pdb
 14 15 0 0 0
SMALL
GASTEIGER

@<TRIPOS>ATOM
      1  N1        15.8130   17.0340   24.3330 N.2   400  DPZ400     -0.0623
      2  C2        15.4100   16.8310   23.0590 C.1   400  DPZ400      0.1753
      3  O3        14.2620   16.4840   22.8180 O.2   400  DPZ400     -0.2204
      4  C4        16.3980   17.0440   21.9070 C.ar  400  DPZ400      0.1123
      5  C5        16.0490   16.8630   20.5380 C.ar  400  DPZ400      0.1021
      6  C6        17.0210   17.0850   19.5410 C.ar  400  DPZ400      0.0369
      7  C7        18.3310   17.4810   19.8690 C.ar  400  DPZ400      0.0912
      8  C8        18.6610   17.6670   21.2200 C.ar  400  DPZ400      0.0305
      9  C9        17.7070   17.4550   22.2340 C.ar  400  DPZ400      0.0982
     10  C10       18.0910   17.6500   23.6870 C.1   400  DPZ400      0.1741
     11  O11       19.2290   18.0040   23.9540 O.2   400  DPZ400     -0.2204
     12  N12       17.1690   17.4470   24.6490 N.2   400  DPZ400     -0.0623
     13  N13       19.2570   17.7000   18.8950 N.pl3 400  DPZ400     -0.1280
     14  N14       14.8030   16.4740   20.1640 N.pl3 400  DPZ400     -0.1272
@<TRIPOS>BOND
     1    13     7    1
     2     6     7   ar
     3     6     5   ar
     4     7     8   ar
     5    14     5    1
     6     5     4   ar
     7     8     9   ar
     8     4     9   ar
     9     4     2    1
    10     9    10    1
    11     3     2    2
    12     2     1    2
    13    10    11    2
    14    10    12    2
    15     1    12    1
