@<TRIPOS>MOLECULE
1f3f_D4T_A_1.pdb
 28 29 0 0 0
SMALL
GASTEIGER

@<TRIPOS>ATOM
      1  PC         8.7120   73.3250   27.7220 P.3   160  D4T160      0.5373
      2  O1C        9.5870   73.7940   26.5990 O.2   160  D4T160     -0.2221
      3  O2C        7.9180   74.3640   28.4310 O.3   160  D4T160     -0.1143
      4  O3C        9.5020   72.3610   28.5490 O.3   160  D4T160     -0.1143
      5  O7'        7.6420   72.3150   27.0710 O.3   160  D4T160     -0.2258
      6  PB         7.6340   71.2410   25.8760 P.3   160  D4T160      0.2277
      7  O1B        9.0120   71.1820   25.3530 O.2   160  D4T160     -0.5168
      8  O2B        6.9540   70.0040   26.3190 O.3   160  D4T160     -0.4368
      9  O6'        6.6570   71.9480   24.8350 O.3   160  D4T160     -0.2700
     10  PA         6.9280   73.0000   23.6720 P.3   160  D4T160      0.2189
     11  O1A        8.3570   73.3840   23.7730 O.3   160  D4T160     -0.4371
     12  O2A        6.4270   72.3990   22.4100 O.2   160  D4T160     -0.5170
     13  O5'        6.0050   74.2190   24.0990 O.3   160  D4T160     -0.3113
     14  C5'        6.4670   75.1990   25.0180 C.3   160  D4T160      0.1785
     15  C4'        5.4310   75.4410   26.0960 C.3   160  D4T160      0.1472
     16  O4'        4.2560   76.0660   25.5290 O.3   160  D4T160     -0.3366
     17  C1'        3.0900   75.5170   26.1210 C.3   160  D4T160      0.2063
     18  N1         2.1520   75.1910   25.0330 N.am  160  D4T160     -0.1795
     19  C6         2.5330   74.2640   24.0930 C.2   160  D4T160      0.0877
     20  C2         0.9100   75.8170   24.9710 C.1   160  D4T160      0.2844
     21  O2         0.5200   76.6370   25.7780 O.2   160  D4T160     -0.1918
     22  N3         0.1410   75.4400   23.9110 N.2   160  D4T160     -0.2455
     23  C4         0.4620   74.5320   22.9300 C.1   160  D4T160      0.2134
     24  O4        -0.3480   74.3000   22.0410 O.2   160  D4T160     -0.2088
     25  C5         1.7720   73.9110   23.0560 C.2   160  D4T160      0.0891
     26  C5A        2.2180   72.9080   22.0400 C.3   160  D4T160      0.0462
     27  C2'        3.5610   74.2560   26.8260 C.3   160  D4T160      0.0545
     28  C3'        4.9100   74.2080   26.8000 C.3   160  D4T160      0.0366
@<TRIPOS>BOND
     1    26    25    1
     2    24    23    2
     3    12    10    2
     4    23    25    1
     5    23    22    2
     6    25    19    2
     7    10    11    1
     8    10    13    1
     9    10     9    1
    10    22    20    2
    11    19    18    1
    12    13    14    1
    13     9     6    1
    14    20    18   am
    15    20    21    2
    16    14    15    1
    17    18    17    1
    18     7     6    2
    19    16    15    1
    20    16    17    1
    21     6     8    1
    22     6     5    1
    23    15    28    1
    24    17    27    1
    25     2     1    2
    26    28    27    1
    27     5     1    1
    28     1     3    1
    29     1     4    1
