@<TRIPOS>MOLECULE
1f3f_D4D_B_1.pdb
 24 25 0 0 0
SMALL
GASTEIGER

@<TRIPOS>ATOM
      1  PA       -13.1130   45.3060   33.3530 P.3   163  D4D163      0.2231
      2  O1A      -14.2470   46.2120   33.0530 O.3   163  D4D163     -0.4370
      3  O2A      -12.5040   44.5040   32.2600 O.2   163  D4D163     -0.5169
      4  O3A      -11.9720   46.1480   34.0840 O.3   163  D4D163     -0.2261
      5  PB       -11.4300   47.6350   33.8770 P.3   163  D4D163      0.5373
      6  O1B      -12.5920   48.4000   33.3540 O.3   163  D4D163     -0.1143
      7  O2B      -10.2360   47.4920   33.0020 O.2   163  D4D163     -0.2221
      8  O3B      -11.2290   48.1280   35.2670 O.3   163  D4D163     -0.1143
      9  O5'      -13.5820   44.3140   34.5100 O.3   163  D4D163     -0.3112
     10  C5'      -14.4330   44.7680   35.5620 C.3   163  D4D163      0.1785
     11  C4'      -13.9360   44.2550   36.8940 C.3   163  D4D163      0.1472
     12  O4'      -14.0120   42.8070   36.9020 O.3   163  D4D163     -0.3366
     13  C3'      -12.4930   44.5680   37.2170 C.3   163  D4D163      0.0366
     14  C2'      -11.8750   43.4350   37.5920 C.3   163  D4D163      0.0545
     15  C1'      -12.8630   42.2900   37.5370 C.3   163  D4D163      0.2063
     16  N1       -12.3610   41.1660   36.7260 N.am  163  D4D163     -0.1795
     17  C2       -12.0110   39.9930   37.3630 C.1   163  D4D163      0.2844
     18  O2       -12.1120   39.8290   38.5700 O.2   163  D4D163     -0.1918
     19  N3       -11.5350   39.0110   36.5270 N.2   163  D4D163     -0.2455
     20  C4       -11.3770   39.0860   35.1550 C.1   163  D4D163      0.2134
     21  O4       -10.9230   38.1250   34.5390 O.2   163  D4D163     -0.2088
     22  C5       -11.7740   40.3410   34.5550 C.2   163  D4D163      0.0891
     23  C5M      -11.6480   40.5130   33.0730 C.3   163  D4D163      0.0462
     24  C6       -12.2390   41.3030   35.3600 C.2   163  D4D163      0.0877
@<TRIPOS>BOND
     1     3     1    2
     2     7     5    2
     3     2     1    1
     4    23    22    1
     5     1     4    1
     6     1     9    1
     7     6     5    1
     8     5     4    1
     9     5     8    1
    10     9    10    1
    11    21    20    2
    12    22    20    1
    13    22    24    2
    14    20    19    2
    15    24    16    1
    16    10    11    1
    17    19    17    2
    18    16    17   am
    19    16    15    1
    20    11    12    1
    21    11    13    1
    22    12    15    1
    23    13    14    1
    24    17    18    2
    25    15    14    1
