@<TRIPOS>MOLECULE
1f3l_SAH_A_1.pdb
 26 28 0 0 0
SMALL
GASTEIGER

@<TRIPOS>ATOM
      1  N         62.9170   49.3240  220.5570 N.3   529  SAH529     -0.1208
      2  CA        63.3820   50.4310  221.3750 C.3   529  SAH529      0.1952
      3  CB        64.8320   50.7690  221.0100 C.3   529  SAH529      0.0422
      4  CG        65.0760   51.0450  219.5210 C.3   529  SAH529      0.0597
      5  SD        66.7290   51.8050  219.3570 S.3   529  SAH529     -0.1375
      6  C         62.4930   51.6540  221.1820 C.2   529  SAH529      0.3819
      7  O         61.5850   51.6300  220.2430 O.co2 529  SAH529     -0.2441
      8  OXT       62.3590   52.4840  222.1760 O.co2 529  SAH529     -0.2441
      9  C5'       67.7880   50.6410  218.4550 C.3   529  SAH529      0.0899
     10  C4'       68.1270   49.5530  219.4400 C.3   529  SAH529      0.1630
     11  O4'       68.4620   48.3410  218.7090 O.3   529  SAH529     -0.3153
     12  C3'       69.2920   49.8210  220.3960 C.3   529  SAH529      0.2168
     13  O3'       68.9830   49.3310  221.7040 O.3   529  SAH529     -0.2175
     14  C2'       70.4380   49.0230  219.7690 C.3   529  SAH529      0.2569
     15  O2'       71.4120   48.5920  220.7150 O.3   529  SAH529     -0.2130
     16  C1'       69.6900   47.8330  219.1730 C.3   529  SAH529      0.3185
     17  N9        70.3660   47.1730  218.0600 N.pl3 529  SAH529     -0.1439
     18  C8        70.9620   47.7380  216.9550 C.3   529  SAH529      0.3377
     19  N7        71.5280   46.8640  216.1560 N.2   529  SAH529     -0.2095
     20  C5        71.2820   45.6420  216.7700 C.2   529  SAH529      0.2526
     21  C6        71.6440   44.3220  216.4330 C.2   529  SAH529      0.4393
     22  N6        72.3710   44.0030  215.3650 N.pl3 529  SAH529      0.2180
     23  N1        71.2310   43.3280  217.2510 N.2   529  SAH529      0.0021
     24  C2        70.5210   43.6510  218.3390 C.3   529  SAH529      0.5254
     25  N3        70.1350   44.8520  218.7710 N.2   529  SAH529     -0.0055
     26  C4        70.5550   45.8160  217.9330 C.2   529  SAH529      0.3518
@<TRIPOS>BOND
     1    22    21    1
     2    19    20    2
     3    19    18    1
     4    21    20    1
     5    21    23    2
     6    20    26    1
     7    18    17    1
     8    23    24    1
     9    26    17    1
    10    26    25    2
    11    17    16    1
    12    24    25    1
    13     9     5    1
    14     9    10    1
    15    11    16    1
    16    11    10    1
    17    16    14    1
    18     5     4    1
    19    10    12    1
    20     4     3    1
    21    14    12    1
    22    14    15    1
    23     7     6   ar
    24    12    13    1
    25     1     2    1
    26     3     2    1
    27     6     2    1
    28     6     8   ar
