@<TRIPOS>MOLECULE
1f3o_ADP_A_1.pdb
 27 29 0 0 0
SMALL
GASTEIGER

@<TRIPOS>ATOM
      1  PB        32.0740   23.8080   12.3770 P.3   300  ADP300      0.5373
      2  O1B       33.5240   24.0160   12.3930 O.3   300  ADP300     -0.1143
      3  O2B       31.6230   22.4810   11.5950 O.2   300  ADP300     -0.2221
      4  O3B       31.5590   23.7790   13.7580 O.3   300  ADP300     -0.1143
      5  PA        31.2410   25.1460   10.0210 P.3   300  ADP300      0.2231
      6  O1A       31.7980   24.0300    9.2630 O.2   300  ADP300     -0.5169
      7  O2A       31.8830   26.3880    9.6440 O.3   300  ADP300     -0.4370
      8  O3A       31.4250   24.9070   11.5440 O.3   300  ADP300     -0.2261
      9  O5'       29.6630   25.2240    9.8620 O.3   300  ADP300     -0.3111
     10  C5'       28.8760   24.0780   10.1840 C.3   300  ADP300      0.1813
     11  C4'       27.6800   24.0020    9.2330 C.3   300  ADP300      0.1821
     12  O4'       27.7140   25.0060    8.2030 O.3   300  ADP300     -0.3135
     13  C3'       27.5820   22.6670    8.5320 C.3   300  ADP300      0.2184
     14  O3'       26.2900   22.0640    8.7010 O.3   300  ADP300     -0.2174
     15  C2'       27.8940   22.9300    7.0580 C.3   300  ADP300      0.2570
     16  O2'       27.1570   22.0840    6.1670 O.3   300  ADP300     -0.2130
     17  C1'       27.6160   24.4050    6.8900 C.3   300  ADP300      0.3186
     18  N9        28.5960   25.0710    5.9120 N.pl3 300  ADP300     -0.1439
     19  C8        29.7100   25.7460    6.2720 C.3   300  ADP300      0.3377
     20  N7        30.3150   26.2380    5.1760 N.2   300  ADP300     -0.2095
     21  C5        29.6260   25.8800    4.1120 C.2   300  ADP300      0.2526
     22  C6        29.7290   26.1320    2.7380 C.2   300  ADP300      0.4393
     23  N6        30.7810   26.8350    2.2380 N.pl3 300  ADP300      0.2180
     24  N1        28.7910   25.6060    1.8960 N.2   300  ADP300      0.0021
     25  C2        27.7300   24.9030    2.3550 C.3   300  ADP300      0.5254
     26  N3        27.6120   24.6710    3.6660 N.2   300  ADP300     -0.0055
     27  C4        28.4820   25.1760    4.5750 C.2   300  ADP300      0.3518
@<TRIPOS>BOND
     1    24    25    1
     2    24    22    2
     3    23    22    1
     4    25    26    1
     5    22    21    1
     6    26    27    2
     7    21    27    1
     8    21    20    2
     9    27    18    1
    10    20    19    1
    11    18    19    1
    12    18    17    1
    13    16    15    1
    14    17    15    1
    15    17    12    1
    16    15    13    1
    17    12    11    1
    18    13    14    1
    19    13    11    1
    20    11    10    1
    21     6     5    2
    22     7     5    1
    23     9     5    1
    24     9    10    1
    25     5     8    1
    26     8     1    1
    27     3     1    2
    28     1     2    1
    29     1     4    1
