@<TRIPOS>MOLECULE
1f3p_NAD_A_1.pdb
 44 48 0 0 0
SMALL
GASTEIGER

@<TRIPOS>ATOM
      1  PA        72.2190   23.2820   11.4600 P.3   500  NAD500      0.2189
      2  O1A       71.1670   24.3000   11.3430 O.2   500  NAD500     -0.5170
      3  O2A       72.4190   22.5220   12.7780 O.3   500  NAD500     -0.4371
      4  O5B       73.6900   23.8930   11.1860 O.3   500  NAD500     -0.3112
      5  C5B       74.0470   24.5080    9.9060 C.3   500  NAD500      0.1813
      6  C4B       75.2950   25.3470   10.1430 C.3   500  NAD500      0.1821
      7  O4B       75.4960   25.8900    8.7780 O.3   500  NAD500     -0.3135
      8  C3B       75.0850   26.6440   11.0170 C.3   500  NAD500      0.2184
      9  O3B       76.2470   26.7090   11.9970 O.3   500  NAD500     -0.2174
     10  C2B       75.0960   27.8440   10.1290 C.3   500  NAD500      0.2570
     11  O2B       75.4950   29.0560   10.5730 O.3   500  NAD500     -0.2130
     12  C1B       75.8840   27.2430    8.9060 C.3   500  NAD500      0.3186
     13  N9A       75.5020   27.8040    7.6420 N.pl3 500  NAD500     -0.1439
     14  C8A       74.3620   28.3280    7.0940 C.3   500  NAD500      0.3377
     15  N7A       74.4520   28.7340    5.8390 N.2   500  NAD500     -0.2095
     16  C5A       75.7260   28.4840    5.4760 C.2   500  NAD500      0.2526
     17  C6A       76.4550   28.7060    4.1810 C.2   500  NAD500      0.4393
     18  N6A       75.9030   29.2250    3.1220 N.pl3 500  NAD500      0.2180
     19  N1A       77.7600   28.2980    4.2550 N.2   500  NAD500      0.0021
     20  C2A       78.4370   27.7540    5.2800 C.3   500  NAD500      0.5254
     21  N3A       77.7850   27.5220    6.5270 N.2   500  NAD500     -0.0055
     22  C4A       76.4300   27.9080    6.5590 C.2   500  NAD500      0.3518
     23  O3        72.0740   22.1820   10.3460 O.3   500  NAD500     -0.2703
     24  PN        72.4800   20.7150    9.9330 P.3   500  NAD500      0.2189
     25  O1N       73.6680   20.2760   10.6900 O.3   500  NAD500     -0.4371
     26  O2N       72.6220   20.6720    8.4350 O.2   500  NAD500     -0.5170
     27  O5D       71.3260   19.6820   10.4080 O.3   500  NAD500     -0.3112
     28  C5D       69.9970   19.9200    9.7620 C.3   500  NAD500      0.1813
     29  C4D       68.9900   18.9890   10.4030 C.3   500  NAD500      0.1799
     30  O4D       69.7040   17.7640   10.9120 O.3   500  NAD500     -0.3327
     31  C3D       68.2870   19.5010   11.6960 C.3   500  NAD500      0.2158
     32  O3D       66.9420   18.9600   11.7550 O.3   500  NAD500     -0.2175
     33  C2D       69.1350   19.0050   12.8620 C.3   500  NAD500      0.2309
     34  O2D       68.5730   19.0390   14.1470 O.3   500  NAD500     -0.2158
     35  C1D       69.4960   17.5640   12.3710 C.3   500  NAD500      0.2263
     36  N1N       70.7520   16.9570   12.9420 N.pl3 500  NAD500     -0.2787
     37  C2N       70.9520   16.9300   14.3130 C.3   500  NAD500      0.1244
     38  C3N       72.0980   16.3890   14.8030 C.2   500  NAD500      0.0544
     39  C7N       72.3020   16.3690   16.3270 C.2   500  NAD500      0.2818
     40  O7N       71.5120   16.7910   17.1750 O.2   500  NAD500     -0.2670
     41  N7N       73.5410   15.7720   16.7080 N.am  500  NAD500     -0.0839
     42  C4N       73.1610   15.8170   13.9360 C.2   500  NAD500      0.0033
     43  C5N       72.8570   15.8970   12.5520 C.2   500  NAD500      0.0157
     44  C6N       71.7380   16.4250   12.0190 C.2   500  NAD500      0.0633
@<TRIPOS>BOND
     1    18    17    1
     2    17    19    2
     3    17    16    1
     4    19    20    1
     5    20    21    1
     6    16    15    2
     7    16    22    1
     8    15    14    1
     9    21    22    2
    10    22    13    1
    11    14    13    1
    12    13    12    1
    13    26    24    2
    14     7    12    1
    15     7     6    1
    16    12    10    1
    17    28    29    1
    18    28    27    1
    19     5     6    1
    20     5     4    1
    21    24    23    1
    22    24    27    1
    23    24    25    1
    24    10    11    1
    25    10     8    1
    26     6     8    1
    27    23     1    1
    28    29    30    1
    29    29    31    1
    30    30    35    1
    31     8     9    1
    32     4     1    1
    33     2     1    2
    34     1     3    1
    35    31    32    1
    36    31    33    1
    37    44    43    2
    38    44    36    1
    39    35    33    1
    40    35    36    1
    41    43    42    1
    42    33    34    1
    43    36    37    1
    44    42    38    2
    45    37    38    1
    46    38    39    1
    47    39    41   am
    48    39    40    2
