@<TRIPOS>MOLECULE
1f3t_PLP_A_1.pdb
 15 15 0 0 0
SMALL
GASTEIGER

@<TRIPOS>ATOM
      1  N1        11.6480   18.9600    4.5040 N.ar  1001  PLP1001    -0.2452
      2  C2        12.7420   18.4900    5.1100 C.ar  1001  PLP1001     0.0978
      3  C2A       13.9380   19.4380    5.3420 C.3   1001  PLP1001     0.0555
      4  C3        12.8290   17.1200    5.5180 C.ar  1001  PLP1001     0.2049
      5  O3        13.9660   16.6510    6.1270 O.3   1001  PLP1001    -0.2857
      6  C4        11.7240   16.2770    5.3260 C.ar  1001  PLP1001     0.0182
      7  C4A       11.8150   14.7920    5.7970 C.3   1001  PLP1001     0.0342
      8  C5        10.5180   16.8220    4.6660 C.ar  1001  PLP1001     0.0261
      9  C6        10.5460   18.2050    4.2740 C.ar  1001  PLP1001     0.0965
     10  C5A        9.2150   16.0650    4.3720 C.3   1001  PLP1001     0.1815
     11  O4P        8.6790   15.6090    5.6220 O.3   1001  PLP1001    -0.2653
     12  P          7.2060   15.0120    5.7050 P.3   1001  PLP1001     0.5329
     13  O1P        6.9050   14.4170    7.0170 O.3   1001  PLP1001    -0.1145
     14  O2P        7.0040   14.0070    4.5420 O.2   1001  PLP1001    -0.2224
     15  O3P        6.1810   16.1020    5.5070 O.3   1001  PLP1001    -0.1145
@<TRIPOS>BOND
     1     9     1   ar
     2     9     8   ar
     3    10     8    1
     4    10    11    1
     5     1     2   ar
     6    14    12    2
     7     8     6   ar
     8     2     3    1
     9     2     4   ar
    10     6     4   ar
    11     6     7    1
    12    15    12    1
    13     4     5    1
    14    11    12    1
    15    12    13    1
