@<TRIPOS>MOLECULE
1f42_MNB_A_1.pdb
 13 13 0 0 0
SMALL
GASTEIGER

@<TRIPOS>ATOM
      1  C6        32.7870   34.5420  -48.3820 C.ar  505  MNB505      0.0152
      2  C1        33.2300   34.3600  -47.0280 C.ar  505  MNB505      0.1027
      3  C2        32.7750   35.2500  -46.0450 C.ar  505  MNB505      0.1492
      4  C3        31.9270   36.3030  -46.3850 C.ar  505  MNB505      0.0248
      5  C4        31.4880   36.4810  -47.7360 C.ar  505  MNB505      0.0087
      6  C5        31.9110   35.5960  -48.7290 C.ar  505  MNB505      0.0360
      7  S5        31.2360   35.7140  -50.4490 S.3   505  MNB505     -0.0507
      8  C10       34.1350   33.3320  -46.6870 C.2   505  MNB505      0.3894
      9  O12       35.3510   33.6160  -46.4960 O.co2 505  MNB505     -0.2405
     10  O11       33.7390   32.1340  -46.5570 O.co2 505  MNB505     -0.2405
     11  N7        33.1020   35.0140  -44.6350 N.pl3 505  MNB505      0.0579
     12  O9        32.4020   34.1220  -43.8620 O.2   505  MNB505     -0.1261
     13  O8        34.1220   35.6500  -43.9770 O.2   505  MNB505     -0.1261
@<TRIPOS>BOND
     1     7     6    1
     2     6     1   ar
     3     6     5   ar
     4     1     2   ar
     5     5     4   ar
     6     2     8    1
     7     2     3   ar
     8     8    10   ar
     9     8     9   ar
    10     4     3   ar
    11     3    11    1
    12    11    13    2
    13    11    12    2
