@<TRIPOS>MOLECULE
1f48_ADP_A_1.pdb
 27 29 0 0 0
SMALL
GASTEIGER

@<TRIPOS>ATOM
      1  PB        23.4290   18.2660   81.1430 P.3   590  ADP590      0.5373
      2  O1B       23.1200   16.7390   81.2250 O.3   590  ADP590     -0.1143
      3  O2B       22.3660   19.1830   81.5730 O.3   590  ADP590     -0.1143
      4  O3B       24.1360   18.6200   79.8220 O.2   590  ADP590     -0.2221
      5  PA        25.7040   19.4450   82.5250 P.3   590  ADP590      0.2231
      6  O1A       26.8740   18.6810   82.7850 O.3   590  ADP590     -0.4370
      7  O2A       25.5430   20.7650   81.8700 O.2   590  ADP590     -0.5169
      8  O3A       24.5460   18.3230   82.2640 O.3   590  ADP590     -0.2261
      9  O5'       25.2890   19.7870   84.0250 O.3   590  ADP590     -0.3111
     10  C5'       24.9940   19.7850   85.4360 C.3   590  ADP590      0.1813
     11  C4'       25.8180   20.7920   86.1680 C.3   590  ADP590      0.1821
     12  O4'       26.6540   19.8620   86.9690 O.3   590  ADP590     -0.3135
     13  C3'       26.8780   21.8060   85.8110 C.3   590  ADP590      0.2184
     14  O3'       26.6760   22.9870   86.6490 O.3   590  ADP590     -0.2174
     15  C2'       28.2060   20.9610   86.0470 C.3   590  ADP590      0.2570
     16  O2'       29.4530   21.6620   85.7630 O.3   590  ADP590     -0.2130
     17  C1'       28.0710   19.9010   87.1630 C.3   590  ADP590      0.3186
     18  N9        28.4200   18.4200   87.0560 N.pl3 590  ADP590     -0.1439
     19  C8        28.2800   17.5530   86.0780 C.3   590  ADP590      0.3377
     20  N7        28.7610   16.4110   86.3780 N.2   590  ADP590     -0.2095
     21  C5        29.3410   16.5100   87.6370 C.2   590  ADP590      0.2526
     22  C6        30.0740   15.7180   88.6280 C.2   590  ADP590      0.4393
     23  N6        30.4720   14.4090   88.4400 N.pl3 590  ADP590      0.2180
     24  N1        30.4080   16.2500   89.8340 N.2   590  ADP590      0.0021
     25  C2        30.1390   17.5210   90.1420 C.3   590  ADP590      0.5254
     26  N3        29.5230   18.3060   89.2190 N.2   590  ADP590     -0.0055
     27  C4        29.1410   17.7910   88.0250 C.2   590  ADP590      0.3518
@<TRIPOS>BOND
     1     4     1    2
     2     1     2    1
     3     1     3    1
     4     1     8    1
     5     7     5    2
     6     8     5    1
     7     5     6    1
     8     5     9    1
     9     9    10    1
    10    10    11    1
    11    16    15    1
    12    13    15    1
    13    13    11    1
    14    13    14    1
    15    15    17    1
    16    19    20    1
    17    19    18    1
    18    11    12    1
    19    20    21    2
    20    12    17    1
    21    18    17    1
    22    18    27    1
    23    21    27    1
    24    21    22    1
    25    27    26    2
    26    23    22    1
    27    22    24    2
    28    26    25    1
    29    24    25    1
