@<TRIPOS>MOLECULE
1f4c_TP2_A_1.pdb
 21 22 0 0 0
SMALL
GASTEIGER

@<TRIPOS>ATOM
      1  S1        17.1600   21.5600   29.8250 S.3   801  TP2801     -0.0802
      2  C2        16.4370   20.0030   30.5200 C.3   801  TP2801      0.0920
      3  C3        15.8110   19.2510   29.3240 C.3   801  TP2801      0.1277
      4  N4        15.4330   17.8640   29.6660 N.am  801  TP2801     -0.2033
      5  C5        16.3400   16.8690   29.6570 C.2   801  TP2801      0.2575
      6  C6        16.1100   15.5480   30.4500 C.3   801  TP2801      0.1571
      7  N7        17.3320   15.0980   31.1770 N.3   801  TP2801     -0.1481
      8  S8        17.5440   15.7660   32.7650 S.O2  801  TP2801      0.0637
      9  C9        16.4500   15.0790   33.9730 C.ar  801  TP2801      0.1222
     10  C10       15.1620   15.6120   34.0720 C.ar  801  TP2801      0.0196
     11  C11       14.2850   15.0860   35.0230 C.ar  801  TP2801     -0.0029
     12  C12       14.6850   14.0290   35.8500 C.ar  801  TP2801     -0.0218
     13  C13       15.9870   13.5020   35.7240 C.ar  801  TP2801     -0.0029
     14  C14       16.8750   14.0330   34.7820 C.ar  801  TP2801      0.0196
     15  C15       13.7210   13.4400   36.8880 C.3   801  TP2801      0.0310
     16  O16       19.0420   15.4970   33.2400 O.2   801  TP2801     -0.1528
     17  O17       17.2880   17.3280   32.6780 O.2   801  TP2801     -0.1528
     18  C18       17.5410   13.6340   31.0300 C.3   801  TP2801      0.0964
     19  C19       16.2230   13.1490   30.4250 C.3   801  TP2801      0.0211
     20  C20       15.7450   14.3380   29.5780 C.3   801  TP2801      0.0286
     21  O21       17.4090   16.9240   29.0200 O.2   801  TP2801     -0.2718
@<TRIPOS>BOND
     1    21     5    2
     2     3     4    1
     3     3     2    1
     4    20    19    1
     5    20     6    1
     6     5     4   am
     7     5     6    1
     8     1     2    1
     9    19    18    1
    10     6     7    1
    11    18     7    1
    12     7     8    1
    13    17     8    2
    14     8    16    2
    15     8     9    1
    16     9    10   ar
    17     9    14   ar
    18    10    11   ar
    19    14    13   ar
    20    11    12   ar
    21    13    12   ar
    22    12    15    1
