@<TRIPOS>MOLECULE
1f4d_TP2_A_1.pdb
 21 22 0 0 0
SMALL
GASTEIGER

@<TRIPOS>ATOM
      1  S1        14.6670   16.4040   26.1440 S.3   401  TP2401     -0.0802
      2  C2        14.2590   17.9060   27.1060 C.3   401  TP2401      0.0920
      3  C3        15.1880   18.1100   28.3060 C.3   401  TP2401      0.1277
      4  N4        15.1280   16.9440   29.2130 N.am  401  TP2401     -0.2033
      5  C5        16.2590   16.2570   29.4420 C.2   401  TP2401      0.2575
      6  C6        16.1560   15.1500   30.5070 C.3   401  TP2401      0.1571
      7  N7        17.4310   15.0600   31.2700 N.3   401  TP2401     -0.1481
      8  S8        17.3700   15.9830   32.7850 S.O2  401  TP2401      0.0637
      9  C9        16.1910   15.3700   33.9320 C.ar  401  TP2401      0.1222
     10  C10       14.8660   15.7710   33.9460 C.ar  401  TP2401      0.0196
     11  C11       13.9740   15.2260   34.8570 C.ar  401  TP2401     -0.0029
     12  C12       14.3450   14.2530   35.7980 C.ar  401  TP2401     -0.0218
     13  C13       15.6800   13.8400   35.7760 C.ar  401  TP2401     -0.0029
     14  C14       16.5890   14.3890   34.8570 C.ar  401  TP2401      0.0196
     15  C15       13.4060   13.6270   36.8270 C.3   401  TP2401      0.0310
     16  O16       18.8690   15.7590   33.3110 O.2   401  TP2401     -0.1528
     17  O17       17.2420   17.4950   32.3560 O.2   401  TP2401     -0.1528
     18  C18       17.8370   13.6550   31.4420 C.3   401  TP2401      0.0964
     19  C19       16.5540   12.8760   31.2000 C.3   401  TP2401      0.0211
     20  C20       15.8640   13.6910   30.1110 C.3   401  TP2401      0.0286
     21  O21       17.3000   16.5550   28.8510 O.2   401  TP2401     -0.2718
@<TRIPOS>BOND
     1     1     2    1
     2     2     3    1
     3     3     4    1
     4    21     5    2
     5     4     5   am
     6     5     6    1
     7    20     6    1
     8    20    19    1
     9     6     7    1
    10    19    18    1
    11     7    18    1
    12     7     8    1
    13    17     8    2
    14     8    16    2
    15     8     9    1
    16     9    10   ar
    17     9    14   ar
    18    10    11   ar
    19    11    12   ar
    20    14    13   ar
    21    13    12   ar
    22    12    15    1
