@<TRIPOS>MOLECULE
1f4e_TPR_A_1.pdb
 18 19 0 0 0
SMALL
GASTEIGER

@<TRIPOS>ATOM
      1  C1        38.0050   61.0350   78.5880 C.ar  301  TPR301     -0.0029
      2  C2        38.3900   59.9010   77.8630 C.ar  301  TPR301     -0.0218
      3  C3        38.3030   58.6360   78.4640 C.ar  301  TPR301     -0.0029
      4  C4        37.8390   58.4910   79.7770 C.ar  301  TPR301      0.0196
      5  C5        37.4760   59.6340   80.4790 C.ar  301  TPR301      0.1222
      6  C6        37.5440   60.8970   79.8990 C.ar  301  TPR301      0.0196
      7  C7        38.9080   60.0060   76.4330 C.3   301  TPR301      0.0310
      8  S8        36.8630   59.5010   82.1190 S.O2  301  TPR301      0.0637
      9  O9        37.4950   60.6150   83.0490 O.2   301  TPR301     -0.1528
     10  O10       37.2030   58.0690   82.7100 O.2   301  TPR301     -0.1528
     11  N         35.1210   59.7520   82.1440 N.3   301  TPR301     -0.1460
     12  CD        34.5120   60.0170   80.8280 C.3   301  TPR301      0.0964
     13  CG        33.4720   58.9200   80.6770 C.3   301  TPR301      0.0212
     14  CB        33.0440   58.6100   82.1100 C.3   301  TPR301      0.0308
     15  CA        34.2970   58.8680   82.9760 C.3   301  TPR301      0.1822
     16  C         34.0590   59.4180   84.3980 C.2   301  TPR301      0.3806
     17  O         33.8350   58.6810   85.3640 O.co2 301  TPR301     -0.2441
     18  OXT       34.1160   60.7720   84.5760 O.co2 301  TPR301     -0.2441
@<TRIPOS>BOND
     1     7     2    1
     2     2     3   ar
     3     2     1   ar
     4     3     4   ar
     5     1     6   ar
     6     4     5   ar
     7     6     5   ar
     8     5     8    1
     9    13    12    1
    10    13    14    1
    11    12    11    1
    12    14    15    1
    13     8    11    1
    14     8    10    2
    15     8     9    2
    16    11    15    1
    17    15    16    1
    18    16    18   ar
    19    16    17   ar
