@<TRIPOS>MOLECULE
1f4f_TP3_A_1.pdb
 29 30 0 0 0
SMALL
GASTEIGER

@<TRIPOS>ATOM
      1  C1        16.0830   13.5170   30.2510 C.3   701  TP3701      0.0212
      2  C2        17.4530   13.8730   30.8970 C.3   701  TP3701      0.0964
      3  N3        17.2220   15.2930   31.1590 N.3   701  TP3701     -0.1460
      4  C4        16.2910   15.9270   30.2340 C.3   701  TP3701      0.1822
      5  C5        15.8950   14.7310   29.3170 C.3   701  TP3701      0.0308
      6  C6        16.6250   17.1980   29.4520 C.2   701  TP3701      0.3806
      7  O7        17.6970   17.4750   28.8890 O.co2 701  TP3701     -0.2441
      8  O8        15.6600   18.0300   29.3840 O.co2 701  TP3701     -0.2441
      9  S9        17.7180   15.9660   32.6620 S.O2  701  TP3701      0.0637
     10  C10       16.5540   15.4030   33.8730 C.ar  701  TP3701      0.1222
     11  O11       19.1170   15.4630   33.1360 O.2   701  TP3701     -0.1528
     12  O12       17.6380   17.5550   32.6130 O.2   701  TP3701     -0.1528
     13  C13       15.2840   15.9350   33.8350 C.ar  701  TP3701      0.0201
     14  C14       14.3640   15.5090   34.7770 C.ar  701  TP3701      0.0059
     15  C15       14.7610   14.5440   35.7220 C.ar  701  TP3701      0.0551
     16  C16       16.0700   14.0180   35.7260 C.ar  701  TP3701      0.0059
     17  C17       16.9890   14.4540   34.7790 C.ar  701  TP3701      0.0201
     18  C18       13.6990   14.1060   36.7070 C.2   701  TP3701      0.2652
     19  N19       14.0410   13.3750   37.7830 N.am  701  TP3701     -0.1918
     20  C20       12.9540   12.8270   38.6390 C.3   701  TP3701      0.1986
     21  C21       12.6190   11.3410   38.4960 C.3   701  TP3701      0.0451
     22  C22       13.4520   10.5780   37.4660 C.3   701  TP3701      0.1164
     23  C23       13.4310    9.0670   37.6610 C.2   701  TP3701      0.3649
     24  O24       12.4990   14.1670   36.4090 O.2   701  TP3701     -0.2684
     25  C25       13.4980   13.2360   40.0520 C.2   701  TP3701      0.3842
     26  O26       12.6340   13.4320   40.9230 O.co2 701  TP3701     -0.2437
     27  O27       14.7340   13.3430   40.1930 O.co2 701  TP3701     -0.2437
     28  O28       14.0100    8.6230   38.6770 O.co2 701  TP3701     -0.2457
     29  O29       12.8710    8.3290   36.8300 O.co2 701  TP3701     -0.2457
@<TRIPOS>BOND
     1     7     6   ar
     2     5     4    1
     3     5     1    1
     4     8     6   ar
     5     6     4    1
     6     4     3    1
     7     1     2    1
     8     2     3    1
     9     3     9    1
    10    12     9    2
    11     9    11    2
    12     9    10    1
    13    13    10   ar
    14    13    14   ar
    15    10    17   ar
    16    14    15   ar
    17    17    16   ar
    18    15    16   ar
    19    15    18    1
    20    24    18    2
    21    18    19   am
    22    29    23   ar
    23    22    23    1
    24    22    21    1
    25    23    28   ar
    26    19    20    1
    27    21    20    1
    28    20    25    1
    29    25    27   ar
    30    25    26   ar
