@<TRIPOS>MOLECULE
1f4g_TP4_A_1.pdb
 34 35 0 0 0
SMALL
GASTEIGER

@<TRIPOS>ATOM
      1  C1        15.8620   13.7790   30.1580 C.3   601  TP4601      0.0211
      2  C2        16.9920   13.9700   31.1850 C.3   601  TP4601      0.0964
      3  N3        16.8370   15.3840   31.5640 N.3   601  TP4601     -0.1481
      4  C4        15.8290   16.0880   30.7340 C.3   601  TP4601      0.1571
      5  C5        15.7590   15.1630   29.4930 C.3   601  TP4601      0.0286
      6  C6        16.1610   17.5860   30.4220 C.2   601  TP4601      0.2575
      7  O7        17.3600   17.8920   30.3700 O.2   601  TP4601     -0.2718
      8  N8        15.2010   18.4940   30.1840 N.am  601  TP4601     -0.2037
      9  S9        17.0960   15.8630   33.1930 S.O2  601  TP4601      0.0637
     10  C10       16.0530   15.0270   34.3300 C.ar  601  TP4601      0.1222
     11  O11       18.6050   15.6420   33.5640 O.2   601  TP4601     -0.1528
     12  O12       16.6690   17.3750   33.2680 O.2   601  TP4601     -0.1528
     13  C13       14.6990   15.1390   34.0750 C.ar  601  TP4601      0.0201
     14  C14       13.8230   14.5480   34.9700 C.ar  601  TP4601      0.0059
     15  C15       14.3380   13.8840   36.1040 C.ar  601  TP4601      0.0551
     16  C16       15.7170   13.7990   36.3290 C.ar  601  TP4601      0.0059
     17  C17       16.6050   14.3860   35.4310 C.ar  601  TP4601      0.0201
     18  C18       13.3490   13.2270   37.0480 C.2   601  TP4601      0.2652
     19  N19       13.8210   12.7210   38.2010 N.am  601  TP4601     -0.1918
     20  C20       12.8470   12.0330   39.1310 C.3   601  TP4601      0.1986
     21  C21       13.1060   10.5130   39.2510 C.3   601  TP4601      0.0451
     22  C22       14.0190    9.8950   38.1720 C.3   601  TP4601      0.1164
     23  C23       14.6720    8.6310   38.7460 C.2   601  TP4601      0.3649
     24  O24       12.1810   13.0390   36.6770 O.2   601  TP4601     -0.2684
     25  C25       13.0430   12.7980   40.4880 C.2   601  TP4601      0.3842
     26  O26       12.1320   12.7460   41.3150 O.co2 601  TP4601     -0.2437
     27  O27       14.1400   13.3790   40.6250 O.co2 601  TP4601     -0.2437
     28  O28       15.1840    8.6400   39.8870 O.co2 601  TP4601     -0.2457
     29  O29       14.6830    7.5930   38.0580 O.co2 601  TP4601     -0.2457
     30  C30       15.2700   19.9480   30.0370 C.3   601  TP4601      0.1270
     31  C31       15.0900   20.6270   31.4120 C.3   601  TP4601      0.1374
     32  C32       15.4300   22.1250   31.2540 C.2   601  TP4601      0.3667
     33  O33       14.5320   22.9560   31.5020 O.co2 601  TP4601     -0.2456
     34  O34       16.5810   22.4080   30.8770 O.co2 601  TP4601     -0.2456
@<TRIPOS>BOND
     1     5     1    1
     2     5     4    1
     3    30     8    1
     4    30    31    1
     5     1     2    1
     6     8     6   am
     7     7     6    2
     8     6     4    1
     9     4     3    1
    10    34    32   ar
    11     2     3    1
    12    32    31    1
    13    32    33   ar
    14     3     9    1
    15     9    12    2
    16     9    11    2
    17     9    10    1
    18    13    10   ar
    19    13    14   ar
    20    10    17   ar
    21    14    15   ar
    22    17    16   ar
    23    15    16   ar
    24    15    18    1
    25    24    18    2
    26    18    19   am
    27    29    23   ar
    28    22    23    1
    29    22    21    1
    30    19    20    1
    31    23    28   ar
    32    20    21    1
    33    20    25    1
    34    25    27   ar
    35    25    26   ar
