@<TRIPOS>MOLECULE
1f4j_HEM_A_1.pdb
 43 50 0 0 0
SMALL
GASTEIGER

@<TRIPOS>ATOM
      1 FE         57.3160   89.7760   20.6600 Fe    600  HEM600      0.0000
      2  CHA       54.3190   91.1720   21.4950 C.2   600  HEM600      0.0000
      3  CHB       58.8680   91.4370   23.1740 C.2   600  HEM600      0.0000
      4  CHC       60.3640   88.9410   19.3150 C.2   600  HEM600      0.0000
      5  CHD       55.7300   87.9160   18.1870 C.2   600  HEM600      0.0000
      6  NA        56.7350   91.0240   22.0480 N.2   600  HEM600      0.0000
      7  C1A       55.4360   91.4780   22.2880 C.2   600  HEM600      0.0000
      8  C2A       55.3820   92.3100   23.4900 C.2   600  HEM600      0.0000
      9  C3A       56.6540   92.3940   23.9520 C.2   600  HEM600      0.0000
     10  C4A       57.4950   91.6260   23.0180 C.2   600  HEM600      0.0000
     11  CMA       57.0660   93.0630   25.2620 C.3   600  HEM600      0.0000
     12  CAA       54.1600   92.9290   24.1670 C.3   600  HEM600      0.0000
     13  CBA       53.1100   91.8900   24.4830 C.3   600  HEM600      0.0000
     14  CGA       51.8990   92.4630   25.1630 C.2   600  HEM600      0.0000
     15  O1A       50.9090   91.7230   25.3170 O.co2 600  HEM600      0.0000
     16  O2A       51.9310   93.6470   25.5480 O.co2 600  HEM600      0.0000
     17  NB        59.1950   90.0430   21.1970 N.ar  600  HEM600      0.0000
     18  C1B       59.6530   90.6220   22.3570 C.ar  600  HEM600      0.0000
     19  C2B       61.0800   90.4220   22.5070 C.ar  600  HEM600      0.0000
     20  C3B       61.5300   89.8720   21.3570 C.ar  600  HEM600      0.0000
     21  C4B       60.3580   89.6170   20.5490 C.ar  600  HEM600      0.0000
     22  CMB       61.8650   90.7110   23.7680 C.3   600  HEM600      0.0000
     23  CAB       62.8320   89.7110   20.9510 C.3   600  HEM600      0.0000
     24  CBB       63.8290   88.9920   21.6660 C.3   600  HEM600      0.0000
     25  NC        57.8800   88.7460   19.0680 N.2   600  HEM600      0.0000
     26  C1C       59.2100   88.4880   18.6420 C.2   600  HEM600      0.0000
     27  C2C       59.2320   87.3190   17.7170 C.2   600  HEM600      0.0000
     28  C3C       57.9320   86.8980   17.5600 C.2   600  HEM600      0.0000
     29  C4C       57.1040   87.8570   18.2890 C.2   600  HEM600      0.0000
     30  CMC       60.4690   86.6630   17.0920 C.3   600  HEM600      0.0000
     31  CAC       57.4670   85.7120   16.9830 C.3   600  HEM600      0.0000
     32  CBC       58.2110   84.7700   16.0990 C.3   600  HEM600      0.0000
     33  ND        55.4440   89.6260   19.9450 N.ar  600  HEM600      0.0000
     34  C1D       54.9440   88.7740   18.9420 C.ar  600  HEM600      0.0000
     35  C2D       53.5100   88.8030   18.8860 C.ar  600  HEM600      0.0000
     36  C3D       53.1030   89.6910   19.7880 C.ar  600  HEM600      0.0000
     37  C4D       54.2980   90.2530   20.4330 C.ar  600  HEM600      0.0000
     38  CMD       52.5900   87.8960   18.0860 C.3   600  HEM600      0.0000
     39  CAD       51.6380   89.9090   20.1390 C.3   600  HEM600      0.0000
     40  CBD       51.4750   89.1920   21.4640 C.3   600  HEM600      0.0000
     41  CGD       50.0750   89.3080   22.0300 C.2   600  HEM600      0.0000
     42  O1D       49.9420   89.1160   23.2760 O.co2 600  HEM600      0.0000
     43  O2D       49.1310   89.5750   21.2280 O.co2 600  HEM600      0.0000
@<TRIPOS>BOND
     1    32    31    1
     2    31    28    1
     3    30    27    1
     4    28    27    2
     5    28    29    1
     6    27    26    1
     7    38    35    1
     8     5    29    1
     9     5    34    2
    10    29    25    2
    11    26    25    1
    12    26     4    2
    13    35    34   ar
    14    35    36   ar
    15    34    33   ar
    16    25     1    1
    17     4    21    1
    18    36    39    1
    19    36    37   ar
    20    33    37   ar
    21    33     1    1
    22    39    40    1
    23    37     2    2
    24    21    17   ar
    25    21    20   ar
    26     1    17    1
    27     1     6    1
    28    23    20    1
    29    23    24    1
    30    17    18   ar
    31    43    41   ar
    32    20    19   ar
    33    40    41    1
    34     2     7    1
    35    41    42   ar
    36     6     7    2
    37     6    10    1
    38     7     8    1
    39    18    19   ar
    40    18     3    1
    41    19    22    1
    42    10     3    2
    43    10     9    1
    44     8     9    2
    45     8    12    1
    46     9    11    1
    47    12    13    1
    48    13    14    1
    49    14    15   ar
    50    14    16   ar
