@<TRIPOS>MOLECULE
1f4p_FMN_A_1.pdb
 31 33 0 0 0
SMALL
GASTEIGER

@<TRIPOS>ATOM
      1  N1        22.3980   15.3100   21.2920 N.2   149  FMN149     -0.2887
      2  C2        22.5780   16.2070   20.3170 C.1   149  FMN149      0.3669
      3  O2        23.5870   16.8760   20.0640 O.2   149  FMN149     -0.1744
      4  N3        21.4830   16.4320   19.3700 N.2   149  FMN149     -0.2300
      5  C4        20.2850   15.6850   19.4180 C.1   149  FMN149      0.2513
      6  O4        19.4750   15.9430   18.5170 O.2   149  FMN149     -0.2057
      7  C4A       20.1560   14.8370   20.4780 C.2   149  FMN149      0.2703
      8  N5        19.0730   14.1810   20.5610 N.2   149  FMN149     -0.3882
      9  C5A       18.9460   13.2040   21.5470 C.2   149  FMN149      0.1277
     10  C6        17.8090   12.3990   21.6690 C.3   149  FMN149      0.0820
     11  C7        17.7960   11.3180   22.6020 C.2   149  FMN149     -0.0408
     12  C7M       16.5170   10.5200   22.4230 C.3   149  FMN149      0.0265
     13  C8        18.8760   11.1430   23.5210 C.2   149  FMN149     -0.0280
     14  C8M       18.8450    9.9760   24.4100 C.3   149  FMN149      0.0304
     15  C9        19.9770   11.9460   23.4350 C.2   149  FMN149      0.0123
     16  C9A       20.0610   13.0290   22.4580 C.2   149  FMN149      0.0793
     17  N10       21.1730   13.7850   22.4760 N.pl3 149  FMN149     -0.2545
     18  C10       21.2810   14.6300   21.4620 C.2   149  FMN149      0.2449
     19  C1'       22.3070   13.6850   23.3610 C.3   149  FMN149      0.1336
     20  C2'       22.1090   14.3770   24.6750 C.3   149  FMN149      0.2048
     21  O2'       21.9340   15.7420   24.4360 O.3   149  FMN149     -0.2185
     22  C3'       23.3950   14.1520   25.4010 C.3   149  FMN149      0.2165
     23  O3'       23.3230   12.8610   26.0660 O.3   149  FMN149     -0.2175
     24  C4'       23.7480   15.1070   26.5510 C.3   149  FMN149      0.2147
     25  O4'       25.0370   14.8530   27.0490 O.3   149  FMN149     -0.2176
     26  C5'       22.7220   15.3280   27.6760 C.3   149  FMN149      0.1892
     27  O5'       23.1870   16.4910   28.3980 O.3   149  FMN149     -0.2674
     28  P         22.6010   16.6980   29.8340 P.3   149  FMN149      0.5327
     29  O1P       23.0970   18.1150   30.2390 O.3   149  FMN149     -0.1145
     30  O2P       21.1160   16.6610   29.7420 O.2   149  FMN149     -0.2224
     31  O3P       23.1890   15.6360   30.7780 O.3   149  FMN149     -0.1145
@<TRIPOS>BOND
     1     6     5    2
     2     4     5    2
     3     4     2    2
     4     5     7    1
     5     3     2    2
     6     2     1    2
     7     7     8    2
     8     7    18    1
     9     8     9    2
    10     1    18    2
    11    18    17    1
    12     9    10    1
    13     9    16    1
    14    10    11    1
    15    12    11    1
    16    16    17    1
    17    16    15    2
    18    17    19    1
    19    11    13    2
    20    19    20    1
    21    15    13    1
    22    13    14    1
    23    21    20    1
    24    20    22    1
    25    22    23    1
    26    22    24    1
    27    24    25    1
    28    24    26    1
    29    26    27    1
    30    27    28    1
    31    30    28    2
    32    28    29    1
    33    28    31    1
