@<TRIPOS>MOLECULE
1f4t_PIM_A_1.pdb
 11 12 0 0 0
SMALL
GASTEIGER

@<TRIPOS>ATOM
      1  N1        53.7300   20.6550   12.7120 N.2   411  PIM411     -0.2267
      2  C2        54.8820   21.1880   13.2950 C.2   411  PIM411      0.1943
      3  N3        55.3440   20.3610   14.0900 N.2   411  PIM411     -0.2436
      4  C4        54.5920   19.2690   14.1110 C.3   411  PIM411      0.1726
      5  C5        53.5620   19.4310   13.2460 C.2   411  PIM411      0.0853
      6  C6        52.4090   18.5110   12.8760 C.ar  411  PIM411      0.0156
      7  C7        51.3410   19.0360   12.0710 C.ar  411  PIM411      0.0012
      8  C8        50.2380   18.1620   11.7220 C.ar  411  PIM411      0.0000
      9  C9        50.2530   16.8220   12.1830 C.ar  411  PIM411      0.0000
     10  C10       51.3110   16.3060   12.9770 C.ar  411  PIM411      0.0000
     11  C11       52.3850   17.1970   13.3080 C.ar  411  PIM411      0.0012
@<TRIPOS>BOND
     1     8     7   ar
     2     8     9   ar
     3     7     6   ar
     4     9    10   ar
     5     1     5    2
     6     1     2    1
     7     6     5    1
     8     6    11   ar
     9    10    11   ar
    10     5     4    1
    11     2     3    2
    12     3     4    1
