@<TRIPOS>MOLECULE
1f4t_HEM_A_1.pdb
 43 50 0 0 0
SMALL
GASTEIGER

@<TRIPOS>ATOM
      1  CHA       58.4350   17.8060   15.0410 C.2   410  HEM410      0.0000
      2  CHB       54.8890   19.4610   17.9300 C.2   410  HEM410      0.0000
      3  CHC       55.6610   23.9710   16.2830 C.2   410  HEM410      0.0000
      4  CHD       58.7920   22.2130   13.0830 C.2   410  HEM410      0.0000
      5  C1A       57.4630   17.8840   16.0470 C.2   410  HEM410      0.0000
      6  C2A       57.0050   16.7480   16.8090 C.2   410  HEM410      0.0000
      7  C3A       55.9820   17.2100   17.6030 C.2   410  HEM410      0.0000
      8  C4A       55.8310   18.6100   17.3150 C.2   410  HEM410      0.0000
      9  CMA       55.1830   16.4020   18.6330 C.3   410  HEM410      0.0000
     10  CAA       57.5580   15.3240   16.6990 C.3   410  HEM410      0.0000
     11  CBA       56.5450   14.3550   16.0530 C.3   410  HEM410      0.0000
     12  CGA       57.0700   12.9320   15.9230 C.2   410  HEM410      0.0000
     13  O1A       57.9800   12.5550   16.6920 O.co2 410  HEM410      0.0000
     14  O2A       56.5500   12.1760   15.0650 O.co2 410  HEM410      0.0000
     15  C1B       54.7680   20.8330   17.6940 C.ar  410  HEM410      0.0000
     16  C2B       53.9640   21.7140   18.5040 C.ar  410  HEM410      0.0000
     17  C3B       54.1570   22.9770   18.0320 C.ar  410  HEM410      0.0000
     18  C4B       55.1410   22.8620   16.9750 C.ar  410  HEM410      0.0000
     19  CMB       53.1520   21.3170   19.7340 C.3   410  HEM410      0.0000
     20  CAB       53.4910   24.1500   18.3740 C.3   410  HEM410      0.0000
     21  CBB       53.2460   24.5960   19.7420 C.3   410  HEM410      0.0000
     22  C1C       56.6080   23.8870   15.2730 C.2   410  HEM410      0.0000
     23  C2C       57.1620   25.0260   14.5380 C.2   410  HEM410      0.0000
     24  C3C       57.9770   24.5020   13.5590 C.2   410  HEM410      0.0000
     25  C4C       57.9840   23.0850   13.7830 C.2   410  HEM410      0.0000
     26  CMC       56.9470   26.5040   14.8970 C.3   410  HEM410      0.0000
     27  CAC       58.6780   25.1230   12.5120 C.3   410  HEM410      0.0000
     28  CBC       58.5020   26.4630   12.0490 C.3   410  HEM410      0.0000
     29  C1D       58.9350   20.8610   13.3430 C.ar  410  HEM410      0.0000
     30  C2D       59.7860   20.0070   12.5500 C.ar  410  HEM410      0.0000
     31  C3D       59.7640   18.8020   13.1490 C.ar  410  HEM410      0.0000
     32  C4D       58.8320   18.8900   14.2520 C.ar  410  HEM410      0.0000
     33  CMD       60.5720   20.3780   11.2860 C.3   410  HEM410      0.0000
     34  CAD       60.5940   17.6250   12.6990 C.3   410  HEM410      0.0000
     35  CBD       61.7240   17.2540   13.6430 C.3   410  HEM410      0.0000
     36  CGD       62.4120   15.9760   13.2330 C.2   410  HEM410      0.0000
     37  O1D       61.7450   15.1090   12.6150 O.co2 410  HEM410      0.0000
     38  O2D       63.6150   15.8260   13.5360 O.co2 410  HEM410      0.0000
     39  NA        56.7370   19.0240   16.3500 N.2   410  HEM410      0.0000
     40  NB        55.5050   21.5430   16.7610 N.ar  410  HEM410      0.0000
     41  NC        57.1290   22.6910   14.8080 N.2   410  HEM410      0.0000
     42  ND        58.2980   20.1770   14.3490 N.ar  410  HEM410      0.0000
     43 FE         56.8530   20.8170   15.5180 Fe    410  HEM410      0.0000
@<TRIPOS>BOND
     1    33    30    1
     2    28    27    1
     3    27    24    1
     4    30    31   ar
     5    30    29   ar
     6    37    36   ar
     7    34    31    1
     8    34    35    1
     9     4    29    2
    10     4    25    1
    11    31    32   ar
    12    36    38   ar
    13    36    35    1
    14    29    42   ar
    15    24    25    1
    16    24    23    2
    17    25    41    2
    18    32    42   ar
    19    32     1    2
    20    42    43    1
    21    23    26    1
    22    23    22    1
    23    41    22    1
    24    41    43    1
    25     1     5    1
    26    14    12   ar
    27    22     3    2
    28    43    39    1
    29    43    40    1
    30    12    11    1
    31    12    13   ar
    32     5    39    2
    33     5     6    1
    34    11    10    1
    35     3    18    1
    36    39     8    1
    37    10     6    1
    38    40    18   ar
    39    40    15   ar
    40     6     7    2
    41    18    17   ar
    42     8     7    1
    43     8     2    2
    44     7     9    1
    45    15     2    1
    46    15    16   ar
    47    17    20    1
    48    17    16   ar
    49    20    21    1
    50    16    19    1
