@<TRIPOS>MOLECULE
1f4u_HEM_A_1.pdb
 43 50 0 0 0
SMALL
GASTEIGER

@<TRIPOS>ATOM
      1 FE         10.0200    0.0810   45.8500 Fe    410  HEM410      0.0000
      2  CHA       12.1610   -1.0970   43.4270 C.2   410  HEM410      0.0000
      3  CHB       10.8400    3.3030   45.1560 C.2   410  HEM410      0.0000
      4  CHC        7.5060    1.2500   47.9710 C.2   410  HEM410      0.0000
      5  CHD        9.2840   -3.1090   46.8370 C.2   410  HEM410      0.0000
      6  NA        11.2540    0.9250   44.5920 N.ar  410  HEM410      0.0000
      7  C1A       12.0330    0.3220   43.5850 C.ar  410  HEM410      0.0000
      8  C2A       12.7930    1.3440   42.8390 C.ar  410  HEM410      0.0000
      9  C3A       12.4260    2.5580   43.3880 C.ar  410  HEM410      0.0000
     10  C4A       11.5100    2.2850   44.4800 C.ar  410  HEM410      0.0000
     11  CMA       12.8000    3.9720   42.9370 C.3   410  HEM410      0.0000
     12  CAA       13.7910    1.1630   41.7010 C.3   410  HEM410      0.0000
     13  CBA       15.2200    0.6560   41.9160 C.3   410  HEM410      0.0000
     14  CGA       16.0630    0.7120   40.6360 C.2   410  HEM410      0.0000
     15  O1A       15.4790    0.8020   39.5250 O.co2 410  HEM410      0.0000
     16  O2A       17.3080    0.6600   40.7280 O.co2 410  HEM410      0.0000
     17  NB         9.3650    1.8720   46.4590 N.2   410  HEM410      0.0000
     18  C1B        9.8260    3.1150   46.0800 C.2   410  HEM410      0.0000
     19  C2B        9.0800    4.1830   46.7570 C.2   410  HEM410      0.0000
     20  C3B        8.1780    3.6030   47.5560 C.2   410  HEM410      0.0000
     21  C4B        8.3220    2.1810   47.3480 C.2   410  HEM410      0.0000
     22  CMB        9.2630    5.6720   46.6010 C.3   410  HEM410      0.0000
     23  CAB        7.3330    4.1890   48.4760 C.3   410  HEM410      0.0000
     24  CBB        6.5500    5.3970   48.2820 C.3   410  HEM410      0.0000
     25  NC         8.6650   -0.7290   47.0930 N.ar  410  HEM410      0.0000
     26  C1C        7.6720   -0.1130   47.8490 C.ar  410  HEM410      0.0000
     27  C2C        6.8420   -1.0720   48.5960 C.ar  410  HEM410      0.0000
     28  C3C        7.3260   -2.2970   48.2900 C.ar  410  HEM410      0.0000
     29  C4C        8.4950   -2.0870   47.4050 C.ar  410  HEM410      0.0000
     30  CMC        5.5760   -0.7610   49.4280 C.3   410  HEM410      0.0000
     31  CAC        6.5760   -3.4400   48.4990 C.3   410  HEM410      0.0000
     32  CBC        7.1070   -4.7470   48.8050 C.3   410  HEM410      0.0000
     33  ND        10.6570   -1.7100   45.3040 N.2   410  HEM410      0.0000
     34  C1D       10.2700   -2.9410   45.8540 C.2   410  HEM410      0.0000
     35  C2D       10.8610   -4.0640   45.1500 C.2   410  HEM410      0.0000
     36  C3D       11.6230   -3.5510   44.1590 C.2   410  HEM410      0.0000
     37  C4D       11.5140   -2.0610   44.2530 C.2   410  HEM410      0.0000
     38  CMD       10.7160   -5.5360   45.4940 C.3   410  HEM410      0.0000
     39  CAD       12.3960   -4.4190   43.1660 C.3   410  HEM410      0.0000
     40  CBD       11.9210   -4.2150   41.7400 C.3   410  HEM410      0.0000
     41  CGD       12.7170   -5.0100   40.7310 C.2   410  HEM410      0.0000
     42  O1D       13.9570   -5.0910   40.8670 O.co2 410  HEM410      0.0000
     43  O2D       12.0990   -5.5350   39.7840 O.co2 410  HEM410      0.0000
@<TRIPOS>BOND
     1    15    14   ar
     2    43    41   ar
     3    14    16   ar
     4    14    13    1
     5    41    42   ar
     6    41    40    1
     7    12    13    1
     8    12     8    1
     9    40    39    1
    10     8     9   ar
    11     8     7   ar
    12    11     9    1
    13    39    36    1
    14     9    10   ar
    15     2     7    2
    16     2    37    1
    17     7     6   ar
    18    36    37    1
    19    36    35    2
    20    37    33    2
    21    10     6   ar
    22    10     3    2
    23     6     1    1
    24    35    38    1
    25    35    34    1
    26     3    18    1
    27    33     1    1
    28    33    34    1
    29     1    17    1
    30     1    25    1
    31    34     5    2
    32    18    17    2
    33    18    19    1
    34    17    21    1
    35    22    19    1
    36    19    20    2
    37     5    29    1
    38    25    29   ar
    39    25    26   ar
    40    21    20    1
    41    21     4    2
    42    29    28   ar
    43    20    23    1
    44    26     4    1
    45    26    27   ar
    46    24    23    1
    47    28    31    1
    48    28    27   ar
    49    31    32    1
    50    27    30    1
