@<TRIPOS>MOLECULE
1f4x_MGS_H_1.pdb
 20 20 0 0 0
SMALL
GASTEIGER

@<TRIPOS>ATOM
      1  C1        -7.8070  -21.7350   18.3110 C.3   301  MGS301      0.2661
      2  O1        -8.3470  -21.8120   19.6040 O.3   301  MGS301     -0.3259
      3  C7        -8.2540  -23.1530   20.1440 C.3   301  MGS301      0.1769
      4  C2        -8.2330  -20.4470   17.6300 C.3   301  MGS301      0.2033
      5  O2        -7.5690  -20.2700   16.3690 O.3   301  MGS301     -0.3458
      6  C8        -6.1850  -19.9980   16.6490 C.3   301  MGS301      0.1743
      7  C3        -9.7530  -20.4310   17.3620 C.3   301  MGS301      0.2061
      8  O3       -10.0820  -19.3010   16.5180 O.3   301  MGS301     -0.2184
      9  C4       -10.1110  -21.7190   16.6250 C.3   301  MGS301      0.1553
     10  N4       -11.5860  -21.9050   16.4020 N.am  301  MGS301     -0.1998
     11  C9       -11.8900  -21.6680   15.1410 C.2   301  MGS301      0.2720
     12  O9       -10.9450  -21.3860   14.4220 O.2   301  MGS301     -0.2706
     13  C5        -9.5410  -22.9810   17.2830 C.3   301  MGS301      0.1404
     14  O5        -8.0930  -22.8950   17.5250 O.3   301  MGS301     -0.3293
     15  C6        -9.8510  -24.2360   16.4340 C.3   301  MGS301      0.0341
     16  C12      -15.1280  -23.0140   13.6980 C.3   301  MGS301      0.1852
     17  O12      -16.0240  -22.9060   14.8070 O.3   301  MGS301     -0.2203
     18  C11      -13.8460  -23.0380   14.4390 C.3   301  MGS301      0.0780
     19  C10      -13.1310  -21.6910   14.2410 C.3   301  MGS301      0.2316
     20  O10      -13.8570  -20.4940   14.2140 O.3   301  MGS301     -0.2131
@<TRIPOS>BOND
     1    16    18    1
     2    16    17    1
     3    20    19    1
     4    19    18    1
     5    19    11    1
     6    12    11    2
     7    11    10   am
     8     5     6    1
     9     5     4    1
    10    10     9    1
    11    15    13    1
    12     8     7    1
    13     9    13    1
    14     9     7    1
    15    13    14    1
    16     7     4    1
    17    14     1    1
    18     4     1    1
    19     1     2    1
    20     2     3    1
