@<TRIPOS>MOLECULE
1f4y_MGU_H_1.pdb
 37 38 0 0 0
SMALL
GASTEIGER

@<TRIPOS>ATOM
      1  C1        39.3180   34.9420   -6.4200 C.3   301  MGU301      0.2661
      2  C2        38.7270   33.5480   -6.6370 C.3   301  MGU301      0.2033
      3  O2        37.5110   33.3580   -5.9690 O.3   301  MGU301     -0.3458
      4  C8        36.4450   32.7640   -6.6590 C.3   301  MGU301      0.1743
      5  C3        38.7160   33.3610   -8.1610 C.3   301  MGU301      0.2061
      6  O3        38.4540   31.9860   -8.5400 O.3   301  MGU301     -0.2184
      7  C4        37.7670   34.3810   -8.7660 C.3   301  MGU301      0.1553
      8  N4        37.6350   34.2850  -10.2700 N.am  301  MGU301     -0.1998
      9  C9        36.3310   34.4370  -10.6040 C.2   301  MGU301      0.2720
     10  O9        35.7300   34.5970   -9.5450 O.2   301  MGU301     -0.2706
     11  C5        38.1820   35.8250   -8.4210 C.3   301  MGU301      0.1404
     12  O5        38.7900   36.0420   -7.1270 O.3   301  MGU301     -0.3293
     13  C6        36.9910   36.8020   -8.5370 C.3   301  MGU301      0.0341
     14  C12       36.0800   35.4420  -14.1210 C.3   301  MGU301      0.1852
     15  O12       37.4410   35.8630  -14.2980 O.3   301  MGU301     -0.2203
     16  C11       35.7620   35.6930  -12.7050 C.3   301  MGU301      0.0780
     17  C10       35.4340   34.4700  -11.8440 C.3   301  MGU301      0.2316
     18  O10       35.2150   33.2860  -12.5640 O.3   301  MGU301     -0.2131
     19  C21       41.8150   36.6270   -7.7930 C.3   301  MGU301      0.2661
     20  O1        40.6950   34.7540   -6.7710 O.3   301  MGU301     -0.3232
     21  C27       43.9480   36.9350   -6.9700 C.3   301  MGU301      0.1769
     22  C22       41.6340   35.7800   -6.5380 C.3   301  MGU301      0.2058
     23  O21       42.7460   37.6040   -7.3840 O.3   301  MGU301     -0.3259
     24  C23       42.9590   35.1650   -6.0840 C.3   301  MGU301      0.2062
     25  O23       42.9170   34.0200   -5.2110 O.3   301  MGU301     -0.2184
     26  C24       43.6390   34.5750   -7.3000 C.3   301  MGU301      0.1553
     27  N24       45.0090   34.0580   -6.9980 N.am  301  MGU301     -0.1998
     28  C29       45.1350   32.7780   -7.4070 C.2   301  MGU301      0.2720
     29  O29       44.2870   32.3790   -8.2050 O.2   301  MGU301     -0.2706
     30  C25       43.7620   35.5740   -8.4530 C.3   301  MGU301      0.1404
     31  O25       42.4200   35.9330   -8.9150 O.3   301  MGU301     -0.3293
     32  C26       44.7110   34.9710   -9.4950 C.3   301  MGU301      0.0341
     33  C32       48.4520   31.6250   -5.9460 C.3   301  MGU301      0.1852
     34  O32       48.1920   30.2260   -6.1160 O.3   301  MGU301     -0.2203
     35  C31       47.6360   32.4130   -6.9320 C.3   301  MGU301      0.0780
     36  C30       46.2190   31.8340   -6.8830 C.3   301  MGU301      0.2316
     37  O30       45.9550   31.3740   -5.5880 O.3   301  MGU301     -0.2131
@<TRIPOS>BOND
     1    15    14    1
     2    14    16    1
     3    16    17    1
     4    18    17    1
     5    17     9    1
     6     9     8   am
     7     9    10    2
     8     8     7    1
     9    32    30    1
    10    31    30    1
    11    31    19    1
    12     7    11    1
    13     7     5    1
    14     6     5    1
    15    13    11    1
    16    30    26    1
    17    11    12    1
    18    29    28    2
    19     5     2    1
    20    19    23    1
    21    19    22    1
    22    28    27   am
    23    28    36    1
    24    23    21    1
    25    26    27    1
    26    26    24    1
    27    12     1    1
    28    35    36    1
    29    35    33    1
    30    36    37    1
    31    20    22    1
    32    20     1    1
    33     4     3    1
    34     2     1    1
    35     2     3    1
    36    22    24    1
    37    34    33    1
    38    24    25    1
