@<TRIPOS>MOLECULE
1f4z_RET_A_1.pdb
 20 20 0 0 0
SMALL
GASTEIGER

@<TRIPOS>ATOM
      1  C1        14.7100   44.9560    0.3650 C.3   301  RET301      0.0183
      2  C2        14.2220   45.7730   -0.8320 C.3   301  RET301      0.0044
      3  C3        14.9130   47.0710   -0.9310 C.3   301  RET301      0.0047
      4  C4        14.6430   47.9180    0.2960 C.3   301  RET301      0.0217
      5  C5        14.8580   47.1390    1.5950 C.2   301  RET301     -0.0479
      6  C6        15.0140   45.8130    1.6100 C.2   301  RET301     -0.0307
      7  C7        15.3830   45.1330    2.8590 C.2   301  RET301     -0.0052
      8  C8        15.6110   43.8300    3.1210 C.2   301  RET301     -0.0049
      9  C9        16.0760   43.2570    4.3880 C.2   301  RET301     -0.0261
     10  C10       16.1810   41.9140    4.4320 C.2   301  RET301     -0.0304
     11  C11       16.9350   41.2010    5.4740 C.3   301  RET301      0.0260
     12  C12       17.1270   39.8630    5.2350 C.3   301  RET301      0.0090
     13  C13       17.3180   38.9610    6.3970 C.3   301  RET301      0.0224
     14  C14       17.2690   37.6110    6.3320 C.2   301  RET301     -0.0265
     15  C15       17.2790   36.9230    5.4050 C.2   301  RET301     -0.0049
     16  C16       13.5010   44.0150    0.6100 C.3   301  RET301      0.0043
     17  C17       15.9770   44.1940   -0.1270 C.3   301  RET301      0.0043
     18  C18       15.1110   48.1170    2.7070 C.3   301  RET301      0.0260
     19  C19       16.4980   44.1410    5.5200 C.3   301  RET301      0.0307
     20  C20       17.9510   39.6610    7.6010 C.3   301  RET301      0.0047
@<TRIPOS>BOND
     1     3     2    1
     2     3     4    1
     3     2     1    1
     4    17     1    1
     5     4     5    1
     6     1    16    1
     7     1     6    1
     8     5     6    2
     9     5    18    1
    10     6     7    1
    11     7     8    2
    12     8     9    1
    13     9    10    2
    14     9    19    1
    15    10    11    1
    16    12    11    1
    17    12    13    1
    18    15    14    2
    19    14    13    1
    20    13    20    1
