@<TRIPOS>MOLECULE
1f50_RET_A_1.pdb
 20 20 0 0 0
SMALL
GASTEIGER

@<TRIPOS>ATOM
      1  C1        14.7190   45.1650    0.4160 C.3   301  RET301      0.0183
      2  C2        14.1280   46.0190   -0.6970 C.3   301  RET301      0.0044
      3  C3        14.6390   47.3790   -0.7800 C.3   301  RET301      0.0047
      4  C4        14.5390   48.1410    0.5200 C.3   301  RET301      0.0217
      5  C5        14.9150   47.3060    1.7310 C.2   301  RET301     -0.0479
      6  C6        15.1180   45.9880    1.6560 C.2   301  RET301     -0.0307
      7  C7        15.4610   45.2780    2.8960 C.2   301  RET301     -0.0052
      8  C8        15.7460   43.9760    3.0530 C.2   301  RET301     -0.0049
      9  C9        16.1530   43.2690    4.2540 C.2   301  RET301     -0.0258
     10  C10       16.3940   41.9560    4.0380 C.2   301  RET301     -0.0257
     11  C11       16.8440   41.0650    5.1150 C.3   301  RET301      0.0513
     12  C12       16.9960   39.7510    4.7970 C.2   301  RET301     -0.0257
     13  C13       17.3780   38.7110    5.7470 C.2   301  RET301     -0.0258
     14  C14       17.3800   37.4580    5.2440 C.2   301  RET301     -0.0046
     15  C15       17.1430   36.4450    5.9800 C.2   301  RET301     -0.0003
     16  C16       13.4950   44.2220    0.6810 C.3   301  RET301      0.0043
     17  C17       15.9490   44.4170   -0.1860 C.3   301  RET301      0.0043
     18  C18       15.0680   48.2030    2.9370 C.3   301  RET301      0.0260
     19  C19       16.5230   44.0510    5.4700 C.3   301  RET301      0.0307
     20  C20       17.7060   39.0970    7.1590 C.3   301  RET301      0.0307
@<TRIPOS>BOND
     1     3     2    1
     2     3     4    1
     3     2     1    1
     4    17     1    1
     5     1    16    1
     6     1     6    1
     7     4     5    1
     8     6     5    2
     9     6     7    1
    10     5    18    1
    11     7     8    2
    12     8     9    1
    13    10     9    2
    14    10    11    1
    15     9    19    1
    16    12    11    1
    17    12    13    2
    18    14    13    1
    19    14    15    2
    20    13    20    1
