@<TRIPOS>MOLECULE
1f52_ADP_A_1.pdb
 27 29 0 0 0
SMALL
GASTEIGER

@<TRIPOS>ATOM
      1  PB       -88.5100   16.5600  -78.5240 P.3   4471  ADP4471     0.5373
      2  O1B      -87.8650   17.9530  -78.4360 O.2   4471  ADP4471    -0.2221
      3  O2B      -89.9330   16.4690  -78.0890 O.3   4471  ADP4471    -0.1143
      4  O3B      -87.5330   15.5030  -77.6730 O.3   4471  ADP4471    -0.1143
      5  PA       -87.1240   15.4960  -81.1370 P.3   4471  ADP4471     0.2231
      6  O1A      -86.1240   16.5510  -81.6210 O.2   4471  ADP4471    -0.5169
      7  O2A      -86.3440   14.3510  -80.4000 O.3   4471  ADP4471    -0.4370
      8  O3A      -88.3080   16.1370  -80.1220 O.3   4471  ADP4471    -0.2261
      9  O5'      -87.7580   14.8710  -82.5340 O.3   4471  ADP4471    -0.3111
     10  C5'      -88.1910   13.6420  -83.0190 C.3   4471  ADP4471     0.1813
     11  C4'      -89.3540   12.7150  -82.8140 C.3   4471  ADP4471     0.1821
     12  O4'      -90.7850   13.0920  -83.3490 O.3   4471  ADP4471    -0.3135
     13  C3'      -88.9410   11.6060  -83.6730 C.3   4471  ADP4471     0.2184
     14  O3'      -89.0700   10.4350  -82.9010 O.3   4471  ADP4471    -0.2174
     15  C2'      -89.9030   11.8320  -84.8760 C.3   4471  ADP4471     0.2570
     16  O2'      -89.6610   10.8630  -85.8660 O.3   4471  ADP4471    -0.2130
     17  C1'      -91.1320   11.7740  -84.0420 C.3   4471  ADP4471     0.3186
     18  N9       -92.5780   11.5730  -84.8410 N.pl3 4471  ADP4471    -0.1439
     19  C8       -93.6460   10.6960  -84.4050 C.3   4471  ADP4471     0.3377
     20  N7       -94.7700   10.5940  -85.1310 N.2   4471  ADP4471    -0.2095
     21  C5       -94.4790   11.4760  -86.1360 C.2   4471  ADP4471     0.2526
     22  C6       -95.2620   11.8640  -87.2260 C.2   4471  ADP4471     0.4393
     23  N6       -96.3530   11.3350  -87.3480 N.pl3 4471  ADP4471     0.2180
     24  N1       -94.7970   12.7530  -88.1350 N.2   4471  ADP4471     0.0021
     25  C2       -93.5730   13.2970  -87.9580 C.3   4471  ADP4471     0.5254
     26  N3       -92.6640   13.0570  -86.9490 N.2   4471  ADP4471    -0.0055
     27  C4       -93.1760   12.1150  -86.0170 C.2   4471  ADP4471     0.3518
@<TRIPOS>BOND
     1    24    25    1
     2    24    22    2
     3    25    26    1
     4    23    22    1
     5    22    21    1
     6    26    27    2
     7    21    27    1
     8    21    20    2
     9    27    18    1
    10    16    15    1
    11    20    19    1
    12    15    17    1
    13    15    13    1
    14    18    19    1
    15    18    17    1
    16    17    12    1
    17    13    14    1
    18    13    11    1
    19    12    11    1
    20    10    11    1
    21    10     9    1
    22     9     5    1
    23     6     5    2
    24     5     7    1
    25     5     8    1
    26     8     1    1
    27     1     2    2
    28     1     3    1
    29     1     4    1
