@<TRIPOS>MOLECULE
1f59_III_D_2.pdb
 47 48 0 0 0
SMALL
GASTEIGER

@<TRIPOS>ATOM
      1  N        -18.7360  100.5490  143.7950 N.3    43  UNK43      -0.1231
      2  CA       -19.8630   99.8580  143.1790 C.3    43  UNK43       0.1694
      3  C        -19.3640   98.6310  142.4210 C.2    43  UNK43       0.2592
      4  O        -19.1630   98.6860  141.2080 O.2    43  UNK43      -0.2718
      5  CB       -20.6030  100.8070  142.2250 C.3    43  UNK43       0.0304
      6  N        -19.1630   97.5240  143.1350 N.am   44  UNK44      -0.1966
      7  CA       -18.6800   96.2980  142.5020 C.3    44  UNK44       0.1728
      8  C        -18.7700   95.0190  143.3530 C.2    44  UNK44       0.2616
      9  O        -18.2800   94.9640  144.4810 O.2    44  UNK44      -0.2715
     10  CB       -17.2360   96.5030  142.0260 C.3    44  UNK44       0.0334
     11  N        -19.4050   93.9950  142.7850 N.am   45  ALA45      -0.1963
     12  CA       -19.5650   92.6820  143.4140 C.3    45  ALA45       0.1728
     13  C        -19.5830   91.6680  142.2670 C.2    45  ALA45       0.2616
     14  O        -19.6540   92.0640  141.1020 O.2    45  ALA45      -0.2715
     15  CB       -20.8600   92.6170  144.2170 C.3    45  ALA45       0.0334
     16  N        -19.5390   90.3770  142.5810 N.am   46  PHE46      -0.1960
     17  CA       -19.4990   89.3400  141.5430 C.3    46  PHE46       0.1771
     18  C        -18.2000   89.5050  140.7800 C.2    46  PHE46       0.2620
     19  O        -18.2070   90.0360  139.6710 O.2    46  PHE46      -0.2715
     20  CB       -20.6080   89.4820  140.4900 C.3    46  PHE46       0.0574
     21  CG       -21.9670   89.7030  141.0460 C.ar   46  PHE46      -0.0200
     22  CD1      -22.5570   88.7600  141.8810 C.ar   46  PHE46      -0.0042
     23  CD2      -22.6880   90.8410  140.6920 C.ar   46  PHE46      -0.0042
     24  CE1      -23.8500   88.9460  142.3580 C.ar   46  PHE46      -0.0003
     25  CE2      -23.9830   91.0370  141.1630 C.ar   46  PHE46      -0.0003
     26  CZ       -24.5650   90.0850  141.9970 C.ar   46  PHE46      -0.0000
     27  N        -17.0820   89.0900  141.3520 N.am   47  SER47      -0.1936
     28  CA       -15.8420   89.2260  140.6110 C.3    47  SER47       0.2055
     29  C        -15.5060   87.8690  140.0310 C.2    47  SER47       0.2643
     30  O        -16.1030   87.4350  139.0460 O.2    47  SER47      -0.2714
     31  CB       -14.7120   89.7090  141.5150 C.3    47  SER47       0.2130
     32  OG       -13.5260   89.8890  140.7610 O.3    47  SER47      -0.2179
     33  N        -14.5550   87.1920  140.6570 N.am   48  PHE48      -0.1959
     34  CA       -14.1590   85.8770  140.2030 C.3    48  PHE48       0.1771
     35  C        -14.1990   84.9290  141.3940 C.2    48  PHE48       0.2620
     36  O        -15.2670   84.6390  141.9350 O.2    48  PHE48      -0.2715
     37  CB       -12.7510   85.9320  139.6130 C.3    48  PHE48       0.0574
     38  CG       -12.5260   84.9470  138.5140 C.ar   48  PHE48      -0.0200
     39  CD1      -12.2950   85.3820  137.2140 C.ar   48  PHE48      -0.0042
     40  CD2      -12.5700   83.5770  138.7710 C.ar   48  PHE48      -0.0042
     41  CE1      -12.1110   84.4670  136.1820 C.ar   48  PHE48      -0.0003
     42  CE2      -12.3870   82.6520  137.7470 C.ar   48  PHE48      -0.0003
     43  CZ       -12.1580   83.0970  136.4500 C.ar   48  PHE48      -0.0000
     44  N        -13.0260   84.4620  141.7990 N.am   49  GLY49      -0.1954
     45  CA       -12.8920   83.5580  142.9300 C.3    49  GLY49       0.1869
     46  C        -11.4020   83.4280  143.2180 C.2    49  GLY49       0.2309
     47  O        -10.6200   84.0440  142.4570 O.2    49  GLY49      -0.2863
@<TRIPOS>BOND
     1    41    43   ar
     2    41    39   ar
     3    43    42   ar
     4    39    38   ar
     5    42    40   ar
     6    38    40   ar
     7    38    37    1
     8    30    29    2
     9    37    34    1
    10    19    18    2
    11    29    28    1
    12    29    33   am
    13    34    33    1
    14    34    35    1
    15    20    21    1
    16    20    17    1
    17    28    27    1
    18    28    31    1
    19    23    21   ar
    20    23    25   ar
    21    32    31    1
    22    18    27   am
    23    18    17    1
    24    21    22   ar
    25    14    13    2
    26    25    26   ar
    27     4     3    2
    28    35    44   am
    29    35    36    2
    30    17    16    1
    31    44    45    1
    32    22    24   ar
    33    26    24   ar
    34    10     7    1
    35     5     2    1
    36    13    16   am
    37    13    12    1
    38     3     6   am
    39     3     2    1
    40    47    46    2
    41     7     6    1
    42     7     8    1
    43    11     8   am
    44    11    12    1
    45    45    46    1
    46     2     1    1
    47     8     9    2
    48    12    15    1
