@<TRIPOS>MOLECULE
1f5a_3AT_A_1.pdb
 30 32 0 0 0
SMALL
GASTEIGER

@<TRIPOS>ATOM
      1  PG        31.2330   39.8350  -18.5200 P.3   1000  3AT1000     0.5373
      2  O1G       32.6220   39.4180  -18.3540 O.3   1000  3AT1000    -0.1143
      3  O2G       30.4880   39.1300  -19.5510 O.2   1000  3AT1000    -0.2221
      4  O3G       30.5350   39.8780  -17.1950 O.3   1000  3AT1000    -0.1143
      5  PB        30.7860   41.8380  -20.5800 P.3   1000  3AT1000     0.2277
      6  O1B       31.7030   41.4090  -21.6880 O.2   1000  3AT1000    -0.5168
      7  O2B       29.8540   42.9410  -20.5060 O.3   1000  3AT1000    -0.4368
      8  O3B       31.2900   41.3320  -19.1070 O.3   1000  3AT1000    -0.2258
      9  PA        33.2780   43.3230  -19.5500 P.3   1000  3AT1000     0.2189
     10  O1A       32.8290   43.7750  -18.2340 O.3   1000  3AT1000    -0.4371
     11  O2A       34.3460   42.2790  -19.6140 O.2   1000  3AT1000    -0.5170
     12  O3A       31.9640   42.9070  -20.4330 O.3   1000  3AT1000    -0.2700
     13  O5'       33.6830   44.5880  -20.3940 O.3   1000  3AT1000    -0.3113
     14  C5'       32.7690   45.6780  -20.6800 C.3   1000  3AT1000     0.1787
     15  C4'       32.7820   46.0650  -22.1500 C.3   1000  3AT1000     0.1520
     16  O4'       34.1620   46.2660  -22.5430 O.3   1000  3AT1000    -0.3163
     17  C3'       32.1890   45.0280  -23.1010 C.3   1000  3AT1000     0.0722
     18  C2'       33.4110   44.5040  -23.7910 C.3   1000  3AT1000     0.2270
     19  O2'       33.1740   44.0820  -25.1210 O.3   1000  3AT1000    -0.2158
     20  C1'       34.4190   45.6500  -23.7910 C.3   1000  3AT1000     0.3159
     21  N9        35.8260   45.1710  -23.8120 N.pl3 1000  3AT1000    -0.1439
     22  C8        36.5000   44.3850  -22.8970 C.3   1000  3AT1000     0.3377
     23  N7        37.7380   44.1260  -23.1990 N.2   1000  3AT1000    -0.2095
     24  C5        37.9000   44.7880  -24.4010 C.2   1000  3AT1000     0.2526
     25  C6        39.0070   44.9220  -25.2930 C.2   1000  3AT1000     0.4393
     26  N6        40.1720   44.3480  -25.0390 N.pl3 1000  3AT1000     0.2180
     27  N1        38.8490   45.6580  -26.4220 N.2   1000  3AT1000     0.0021
     28  C2        37.6640   46.2350  -26.6740 C.3   1000  3AT1000     0.5254
     29  N3        36.5410   46.1890  -25.9280 N.2   1000  3AT1000    -0.0055
     30  C4        36.7370   45.4340  -24.7850 C.2   1000  3AT1000     0.3518
@<TRIPOS>BOND
     1    28    27    1
     2    28    29    1
     3    27    25    2
     4    29    30    2
     5    25    26    1
     6    25    24    1
     7    19    18    1
     8    30    24    1
     9    30    21    1
    10    24    23    2
    11    21    20    1
    12    21    22    1
    13    20    18    1
    14    20    16    1
    15    18    17    1
    16    23    22    1
    17    17    15    1
    18    16    15    1
    19    15    14    1
    20     6     5    2
    21    14    13    1
    22     5     7    1
    23     5    12    1
    24     5     8    1
    25    12     9    1
    26    13     9    1
    27    11     9    2
    28     3     1    2
    29     9    10    1
    30     8     1    1
    31     1     2    1
    32     1     4    1
