@<TRIPOS>MOLECULE
1f5a_3PO_A_1.pdb
 13 12 0 0 0
SMALL
GASTEIGER

@<TRIPOS>ATOM
      1  PG        34.4360   36.5030  -21.3250 P.3   4000  3PO4000     0.5373
      2  O1G       33.2960   37.3960  -21.6000 O.3   4000  3PO4000    -0.1143
      3  O2G       34.4850   35.9650  -19.9550 O.3   4000  3PO4000    -0.1143
      4  O3G       34.5410   35.4360  -22.3920 O.2   4000  3PO4000    -0.2221
      5  PB        36.5160   38.3920  -20.3150 P.3   4000  3PO4000     0.2317
      6  O1B       37.7720   37.7260  -19.8650 O.2   4000  3PO4000    -0.5167
      7  O2B       35.5510   38.8070  -19.2900 O.3   4000  3PO4000    -0.4368
      8  O3B       35.7780   37.4180  -21.4160 O.3   4000  3PO4000    -0.2257
      9  PA        36.3990   40.4040  -22.4500 P.3   4000  3PO4000     0.5373
     10  O1A       36.3600   39.4960  -23.6030 O.2   4000  3PO4000    -0.2221
     11  O2A       35.1750   41.1610  -22.0830 O.3   4000  3PO4000    -0.1143
     12  O3A       36.9720   39.5690  -21.2180 O.3   4000  3PO4000    -0.2257
     13  O5'       37.5870   41.3810  -22.6480 O.3   4000  3PO4000    -0.1143
@<TRIPOS>BOND
     1    10     9    2
     2    13     9    1
     3     9    11    1
     4     9    12    1
     5     4     1    2
     6     2     1    1
     7     8     1    1
     8     8     5    1
     9     1     3    1
    10    12     5    1
    11     5     6    2
    12     5     7    1
