@<TRIPOS>MOLECULE
1f5f_DHT_A_1.pdb
 21 24 0 0 0
SMALL
GASTEIGER

@<TRIPOS>ATOM
      1  C1        24.1360    9.9930   31.0820 C.3   253  DHT253      0.0078
      2  C2        25.6270   10.2420   30.8440 C.3   253  DHT253      0.0645
      3  C3        25.9700   11.6900   31.1110 C.2   253  DHT253      0.1506
      4  O3        26.8220   12.2610   30.4400 O.2   253  DHT253     -0.2961
      5  C4        25.2820   12.4630   32.1740 C.3   253  DHT253      0.0645
      6  C5        23.8010   12.1550   32.3340 C.3   253  DHT253      0.0073
      7  C6        23.1540   12.8020   33.5330 C.3   253  DHT253      0.0004
      8  C7        21.6250   12.7670   33.4930 C.3   253  DHT253      0.0000
      9  C8        21.1760   11.2740   33.3970 C.3   253  DHT253      0.0001
     10  C9        21.9340   10.5780   32.2570 C.3   253  DHT253      0.0000
     11  C10       23.4750   10.6240   32.3190 C.3   253  DHT253      0.0008
     12  C11       21.4410    9.1280   32.0490 C.3   253  DHT253      0.0001
     13  C12       19.9270    8.9670   32.0150 C.3   253  DHT253      0.0024
     14  C13       19.1990    9.6810   33.1300 C.3   253  DHT253      0.0282
     15  C14       19.6780   11.1390   33.2050 C.3   253  DHT253      0.0024
     16  C15       18.7510   11.7410   34.2820 C.3   253  DHT253      0.0027
     17  C16       17.3860   11.0640   33.9930 C.3   253  DHT253      0.0329
     18  C17       17.7190    9.9320   33.0140 C.3   253  DHT253      0.1519
     19  O17       16.9060    8.7560   33.2400 O.3   253  DHT253     -0.2232
     20  C18       19.4600    8.9000   34.4630 C.3   253  DHT253      0.0025
     21  C19       24.0840    9.9590   33.5680 C.3   253  DHT253      0.0000
@<TRIPOS>BOND
     1     4     3    2
     2     2     1    1
     3     2     3    1
     4     1    11    1
     5     3     5    1
     6    13    12    1
     7    13    14    1
     8    12    10    1
     9     5     6    1
    10    10    11    1
    11    10     9    1
    12    11     6    1
    13    11    21    1
    14     6     7    1
    15    18    14    1
    16    18    19    1
    17    18    17    1
    18    14    15    1
    19    14    20    1
    20    15     9    1
    21    15    16    1
    22     9     8    1
    23     8     7    1
    24    17    16    1
