@<TRIPOS>MOLECULE
1f5l_AMR_A_1.pdb
 15 15 0 0 0
SMALL
GASTEIGER

@<TRIPOS>ATOM
      1  N1        31.1120    7.6690   27.6830 N.2   301  AMR301     -0.3760
      2  C1        30.5020    6.7410   28.4320 C.2   301  AMR301      0.2514
      3  C3        31.2400    5.3550   28.6010 C.2   301  AMR301      0.3757
      4  N5        32.5550    5.2790   28.1310 N.am  301  AMR301      0.0142
      5  C6        33.2510    4.1770   28.0800 C.2   301  AMR301      0.5323
      6  N7        32.7670    3.0180   28.4620 N.pl3 301  AMR301      0.1335
      7  N6        34.4700    4.2400   27.6300 N.pl3 301  AMR301      0.1335
      8  O1        30.6520    4.3960   29.1150 O.2   301  AMR301     -0.2453
      9  C2        29.2610    7.0260   29.0190 C.2   301  AMR301      0.2565
     10  N4        28.5730    6.0860   29.8140 N.pl3 301  AMR301     -0.0901
     11  N3        28.6930    8.2380   28.8250 N.2   301  AMR301     -0.3594
     12  C4        29.3140    9.1790   28.0650 C.2   301  AMR301      0.2612
     13  N2        28.6660   10.4360   27.8950 N.pl3 301  AMR301     -0.0894
     14  C5        30.5610    8.8800   27.4780 C.2   301  AMR301      0.2360
     15 CL1        31.4320   10.0160   26.4870 Cl    301  AMR301     -0.0441
@<TRIPOS>BOND
     1    15    14    1
     2    14     1    2
     3    14    12    1
     4     7     5    1
     5     1     2    2
     6    13    12    1
     7    12    11    2
     8     5     4    2
     9     5     6    1
    10     4     3    1
    11     2     3    1
    12     2     9    1
    13     3     8    2
    14    11     9    2
    15     9    10    1
