@<TRIPOS>MOLECULE
1f5n_GNP_A_1.pdb
 32 34 0 0 0
SMALL
GASTEIGER

@<TRIPOS>ATOM
      1  PG        77.8270   -8.2630   29.3080 P.3   593  GNP593      0.4884
      2  O1G       78.9260   -7.4290   29.7670 O.3   593  GNP593     -0.1240
      3  O2G       78.0130   -8.5810   27.9250 O.2   593  GNP593     -0.2331
      4  O3G       76.5890   -7.3590   29.3360 O.3   593  GNP593     -0.1240
      5  N3B       77.5730   -9.5690   30.2630 N.3   593  GNP593     -0.0163
      6  PB        76.2780  -10.5620   30.0830 P.3   593  GNP593      0.4669
      7  O1B       75.0780  -10.1360   30.8170 O.3   593  GNP593     -0.1253
      8  O2B       75.9970  -10.9370   28.7250 O.2   593  GNP593     -0.2351
      9  O3A       76.7230  -11.9410   30.7830 O.3   593  GNP593     -0.2360
     10  PA        77.2030  -13.3130   30.0540 P.3   593  GNP593      0.2220
     11  O1A       76.0270  -13.9610   29.4060 O.3   593  GNP593     -0.4370
     12  O2A       78.3870  -13.0390   29.2050 O.2   593  GNP593     -0.5170
     13  O5'       77.6450  -14.1780   31.3280 O.3   593  GNP593     -0.3111
     14  C5'       78.6900  -13.7000   32.2100 C.3   593  GNP593      0.1813
     15  C4'       79.0290  -14.7910   33.2490 C.3   593  GNP593      0.1799
     16  O4'       77.8800  -15.0540   34.0730 O.3   593  GNP593     -0.3326
     17  C3'       79.4520  -16.1400   32.6280 C.3   593  GNP593      0.2158
     18  O3'       80.4680  -16.7540   33.4350 O.3   593  GNP593     -0.2175
     19  C2'       78.1340  -16.9460   32.7030 C.3   593  GNP593      0.2310
     20  O2'       78.3830  -18.3620   32.7760 O.3   593  GNP593     -0.2158
     21  C1'       77.5670  -16.4530   34.0300 C.3   593  GNP593      0.2293
     22  N9        76.0950  -16.6400   34.1230 N.pl3 593  GNP593     -0.2354
     23  C8        75.1500  -16.9410   33.1400 C.3   593  GNP593      0.2246
     24  N7        73.9370  -17.0410   33.5680 N.2   593  GNP593     -0.2322
     25  C5        74.0490  -16.7780   34.9440 C.2   593  GNP593      0.2182
     26  C6        73.0480  -16.7530   36.0050 C.1   593  GNP593      0.2372
     27  O6        71.8340  -16.9650   35.9200 O.2   593  GNP593     -0.2069
     28  N1        73.5990  -16.4450   37.2590 N.2   593  GNP593     -0.2485
     29  C2        74.9210  -16.1310   37.4990 C.1   593  GNP593      0.2531
     30  N2        75.3010  -15.7710   38.7400 N.pl3 593  GNP593     -0.0226
     31  N3        75.8700  -16.1710   36.5040 N.2   593  GNP593     -0.3074
     32  C4        75.3710  -16.5070   35.2750 C.2   593  GNP593      0.2300
@<TRIPOS>BOND
     1     3     1    2
     2     8     6    2
     3    12    10    2
     4     1     4    1
     5     1     2    1
     6     1     5    1
     7    11    10    1
     8    10     9    1
     9    10    13    1
    10     6     5    1
    11     6     9    1
    12     6     7    1
    13    13    14    1
    14    14    15    1
    15    17    19    1
    16    17    15    1
    17    17    18    1
    18    19    20    1
    19    19    21    1
    20    23    24    1
    21    23    22    1
    22    15    16    1
    23    24    25    2
    24    21    16    1
    25    21    22    1
    26    22    32    1
    27    25    32    1
    28    25    26    1
    29    32    31    2
    30    27    26    2
    31    26    28    2
    32    31    29    2
    33    28    29    2
    34    29    30    1
