@<TRIPOS>MOLECULE
1f5o_HEM_A_1.pdb
 43 50 0 0 0
SMALL
GASTEIGER

@<TRIPOS>ATOM
      1 FE          1.2230   52.8070   91.0510 Fe    150  HEM150      0.0000
      2  CHA        0.7800   54.0740   94.2060 C.2   150  HEM150      0.0000
      3  CHB        1.4940   49.6400   92.4150 C.2   150  HEM150      0.0000
      4  CHC        2.4760   51.5410   88.0810 C.2   150  HEM150      0.0000
      5  CHD        1.8410   55.9740   89.9130 C.2   150  HEM150      0.0000
      6  NA         1.0520   52.0240   92.8700 N.2   150  HEM150      0.0000
      7  C1A        0.8100   52.6840   94.0550 C.2   150  HEM150      0.0000
      8  C2A        0.7030   51.7240   95.1540 C.2   150  HEM150      0.0000
      9  C3A        0.8710   50.4870   94.6460 C.2   150  HEM150      0.0000
     10  C4A        1.1240   50.6910   93.2400 C.2   150  HEM150      0.0000
     11  CMA        0.7780   49.1720   95.4060 C.3   150  HEM150      0.0000
     12  CAA        0.3840   52.0020   96.6070 C.3   150  HEM150      0.0000
     13  CBA       -1.0050   52.5920   96.6510 C.3   150  HEM150      0.0000
     14  CGA       -1.4130   52.9750   98.0360 C.2   150  HEM150      0.0000
     15  O1A       -0.5900   53.6230   98.7160 O.co2 150  HEM150      0.0000
     16  O2A       -2.5470   52.6420   98.4480 O.co2 150  HEM150      0.0000
     17  NB         1.7990   50.9920   90.3740 N.ar  150  HEM150      0.0000
     18  C1B        1.8100   49.7660   91.0630 C.ar  150  HEM150      0.0000
     19  C2B        2.0870   48.6230   90.1820 C.ar  150  HEM150      0.0000
     20  C3B        2.3420   49.1670   88.9580 C.ar  150  HEM150      0.0000
     21  C4B        2.1690   50.6270   89.0840 C.ar  150  HEM150      0.0000
     22  CMB        1.9710   47.1600   90.5470 C.3   150  HEM150      0.0000
     23  CAB        2.7700   48.5430   87.7870 C.3   150  HEM150      0.0000
     24  CBB        2.9520   47.1450   87.5950 C.3   150  HEM150      0.0000
     25  NC         1.9780   53.5760   89.3670 N.2   150  HEM150      0.0000
     26  C1C        2.4170   52.9130   88.2250 C.2   150  HEM150      0.0000
     27  C2C        2.8050   53.8510   87.1840 C.2   150  HEM150      0.0000
     28  C3C        2.6360   55.1130   87.6800 C.2   150  HEM150      0.0000
     29  C4C        2.1270   54.9200   89.0430 C.2   150  HEM150      0.0000
     30  CMC        3.3140   53.4870   85.7880 C.3   150  HEM150      0.0000
     31  CAC        2.9260   56.3560   87.0990 C.3   150  HEM150      0.0000
     32  CBC        3.1620   56.6690   85.7170 C.3   150  HEM150      0.0000
     33  ND         1.2580   54.6360   91.8520 N.ar  150  HEM150      0.0000
     34  C1D        1.4160   55.8360   91.2070 C.ar  150  HEM150      0.0000
     35  C2D        1.1700   56.9490   92.0670 C.ar  150  HEM150      0.0000
     36  C3D        0.9360   56.4520   93.2860 C.ar  150  HEM150      0.0000
     37  C4D        0.9960   55.0000   93.1670 C.ar  150  HEM150      0.0000
     38  CMD        1.1500   58.4140   91.6550 C.3   150  HEM150      0.0000
     39  CAD        0.6190   57.2870   94.4920 C.3   150  HEM150      0.0000
     40  CBD        1.8510   57.4460   95.3380 C.3   150  HEM150      0.0000
     41  CGD        1.6180   58.3250   96.5540 C.2   150  HEM150      0.0000
     42  O1D        1.1630   59.4820   96.3750 O.co2 150  HEM150      0.0000
     43  O2D        1.8970   57.8600   97.6840 O.co2 150  HEM150      0.0000
@<TRIPOS>BOND
     1    32    31    1
     2    30    27    1
     3    31    28    1
     4    27    28    2
     5    27    26    1
     6    24    23    1
     7    28    29    1
     8    23    20    1
     9     4    26    2
    10     4    21    1
    11    26    25    1
    12    20    21   ar
    13    20    19   ar
    14    29    25    2
    15    29     5    1
    16    21    17   ar
    17    25     1    1
    18     5    34    2
    19    19    22    1
    20    19    18   ar
    21    17     1    1
    22    17    18   ar
    23     1    33    1
    24     1     6    1
    25    18     3    1
    26    34    33   ar
    27    34    35   ar
    28    38    35    1
    29    33    37   ar
    30    35    36   ar
    31     3    10    2
    32     6    10    1
    33     6     7    2
    34    37    36   ar
    35    37     2    2
    36    10     9    1
    37    36    39    1
    38     7     2    1
    39     7     8    1
    40    39    40    1
    41     9     8    2
    42     9    11    1
    43     8    12    1
    44    40    41    1
    45    42    41   ar
    46    41    43   ar
    47    12    13    1
    48    13    14    1
    49    14    16   ar
    50    14    15   ar
