@<TRIPOS>MOLECULE
1f5p_HEM_A_1.pdb
 43 50 0 0 0
SMALL
GASTEIGER

@<TRIPOS>ATOM
      1 FE          1.0460   52.7820   90.9020 Fe    150  HEM150      0.0000
      2  CHA        0.4410   54.0260   94.0100 C.2   150  HEM150      0.0000
      3  CHB        1.3510   49.5830   92.2500 C.2   150  HEM150      0.0000
      4  CHC        2.1650   51.4520   87.8910 C.2   150  HEM150      0.0000
      5  CHD        1.4260   55.9720   89.6590 C.2   150  HEM150      0.0000
      6  NA         0.9450   51.9850   92.7090 N.2   150  HEM150      0.0000
      7  C1A        0.6220   52.6300   93.8860 C.2   150  HEM150      0.0000
      8  C2A        0.6660   51.7000   95.0060 C.2   150  HEM150      0.0000
      9  C3A        1.0320   50.5050   94.5310 C.2   150  HEM150      0.0000
     10  C4A        1.1670   50.6660   93.1060 C.2   150  HEM150      0.0000
     11  CMA        1.2630   49.2280   95.3210 C.3   150  HEM150      0.0000
     12  CAA        0.2820   52.0340   96.4280 C.3   150  HEM150      0.0000
     13  CBA       -1.2110   52.2950   96.4530 C.3   150  HEM150      0.0000
     14  CGA       -1.6370   53.0410   97.6860 C.2   150  HEM150      0.0000
     15  O1A       -1.0270   54.0910   97.9620 O.co2 150  HEM150      0.0000
     16  O2A       -2.5790   52.5840   98.3680 O.co2 150  HEM150      0.0000
     17  NB         1.5250   50.9190   90.2080 N.ar  150  HEM150      0.0000
     18  C1B        1.4750   49.6950   90.8890 C.ar  150  HEM150      0.0000
     19  C2B        1.7390   48.5760   90.0350 C.ar  150  HEM150      0.0000
     20  C3B        2.0660   49.0910   88.8300 C.ar  150  HEM150      0.0000
     21  C4B        1.9260   50.5420   88.9210 C.ar  150  HEM150      0.0000
     22  CMB        1.5510   47.1280   90.3950 C.3   150  HEM150      0.0000
     23  CAB        2.4600   48.3650   87.7230 C.3   150  HEM150      0.0000
     24  CBB        3.8460   48.2810   87.3550 C.3   150  HEM150      0.0000
     25  NC         1.6150   53.5450   89.1730 N.2   150  HEM150      0.0000
     26  C1C        2.0250   52.8500   88.0180 C.2   150  HEM150      0.0000
     27  C2C        2.2410   53.7730   86.9200 C.2   150  HEM150      0.0000
     28  C3C        1.9250   55.0320   87.4020 C.2   150  HEM150      0.0000
     29  C4C        1.6310   54.8910   88.8010 C.2   150  HEM150      0.0000
     30  CMC        2.7580   53.3920   85.5280 C.3   150  HEM150      0.0000
     31  CAC        1.7850   56.2050   86.6890 C.3   150  HEM150      0.0000
     32  CBC        2.9090   56.7750   86.0280 C.3   150  HEM150      0.0000
     33  ND         0.9230   54.6060   91.6670 N.ar  150  HEM150      0.0000
     34  C1D        1.1100   55.8420   91.0200 C.ar  150  HEM150      0.0000
     35  C2D        0.8770   56.9780   91.9400 C.ar  150  HEM150      0.0000
     36  C3D        0.6320   56.4420   93.1690 C.ar  150  HEM150      0.0000
     37  C4D        0.6270   54.9660   92.9830 C.ar  150  HEM150      0.0000
     38  CMD        0.7630   58.4470   91.5430 C.3   150  HEM150      0.0000
     39  CAD        0.4390   57.1700   94.5010 C.3   150  HEM150      0.0000
     40  CBD        1.5540   58.1290   94.8870 C.3   150  HEM150      0.0000
     41  CGD        1.7230   58.2680   96.3900 C.2   150  HEM150      0.0000
     42  O1D        0.8250   58.8300   97.0590 O.co2 150  HEM150      0.0000
     43  O2D        2.7620   57.8050   96.9000 O.co2 150  HEM150      0.0000
@<TRIPOS>BOND
     1    30    27    1
     2    32    31    1
     3    31    28    1
     4    27    28    2
     5    27    26    1
     6    24    23    1
     7    28    29    1
     8    23    20    1
     9     4    26    2
    10     4    21    1
    11    26    25    1
    12    29    25    2
    13    29     5    1
    14    20    21   ar
    15    20    19   ar
    16    21    17   ar
    17    25     1    1
    18     5    34    2
    19    19    22    1
    20    19    18   ar
    21    17    18   ar
    22    17     1    1
    23    18     3    1
    24     1    33    1
    25     1     6    1
    26    34    33   ar
    27    34    35   ar
    28    38    35    1
    29    33    37   ar
    30    35    36   ar
    31     3    10    2
    32     6    10    1
    33     6     7    2
    34    37    36   ar
    35    37     2    2
    36    10     9    1
    37    36    39    1
    38     7     2    1
    39     7     8    1
    40    39    40    1
    41     9     8    2
    42     9    11    1
    43    40    41    1
    44     8    12    1
    45    41    43   ar
    46    41    42   ar
    47    12    13    1
    48    13    14    1
    49    14    15   ar
    50    14    16   ar
