@<TRIPOS>MOLECULE
1f63_HEM_A_1.pdb
 43 50 0 0 0
SMALL
GASTEIGER

@<TRIPOS>ATOM
      1 FE         35.3480    4.3830    9.9590 Fe    200  HEM200      0.0000
      2  CHA       38.1110    2.6660   11.1820 C.2   200  HEM200      0.0000
      3  CHB       37.3130    5.5570    7.3670 C.2   200  HEM200      0.0000
      4  CHC       32.8880    6.5940    9.1580 C.2   200  HEM200      0.0000
      5  CHD       33.6530    3.5780   12.9460 C.2   200  HEM200      0.0000
      6  NA        37.2740    4.1830    9.4440 N.ar  200  HEM200      0.0000
      7  C1A       38.2670    3.3850   10.0130 C.ar  200  HEM200      0.0000
      8  C2A       39.4490    3.3840    9.2190 C.ar  200  HEM200      0.0000
      9  C3A       39.2480    4.1900    8.1540 C.ar  200  HEM200      0.0000
     10  C4A       37.9050    4.6870    8.2950 C.ar  200  HEM200      0.0000
     11  CMA       40.1980    4.5290    7.0050 C.3   200  HEM200      0.0000
     12  CAA       40.7580    2.5700    9.5330 C.3   200  HEM200      0.0000
     13  CBA       40.7920    1.3610    8.5290 C.3   200  HEM200      0.0000
     14  CGA       39.5750    0.4110    8.6560 C.2   200  HEM200      0.0000
     15  O1A       39.3420   -0.1000    9.7510 O.co2 200  HEM200      0.0000
     16  O2A       38.8690    0.2710    7.6170 O.co2 200  HEM200      0.0000
     17  NB        35.1670    5.8280    8.5780 N.2   200  HEM200      0.0000
     18  C1B       36.0410    6.0680    7.5350 C.2   200  HEM200      0.0000
     19  C2B       35.4110    6.9760    6.6230 C.2   200  HEM200      0.0000
     20  C3B       34.1840    7.2880    7.1050 C.2   200  HEM200      0.0000
     21  C4B       34.0310    6.5560    8.3350 C.2   200  HEM200      0.0000
     22  CMB       36.0550    7.5120    5.3020 C.3   200  HEM200      0.0000
     23  CAB       33.0790    8.2000    6.5510 C.2   200  HEM200      0.0000
     24  CBB       33.3710    9.4750    6.1800 C.2   200  HEM200      0.0000
     25  NC        33.6350    4.9630   10.8430 N.ar  200  HEM200      0.0000
     26  C1C       32.7460    5.9060   10.3830 C.ar  200  HEM200      0.0000
     27  C2C       31.6660    6.0840   11.3220 C.ar  200  HEM200      0.0000
     28  C3C       31.8740    5.2670   12.3540 C.ar  200  HEM200      0.0000
     29  C4C       33.1060    4.5670   12.0740 C.ar  200  HEM200      0.0000
     30  CMC       30.4930    7.0860   11.0820 C.3   200  HEM200      0.0000
     31  CAC       31.0890    5.0100   13.6360 C.2   200  HEM200      0.0000
     32  CBC       29.9970    5.6980   14.0200 C.2   200  HEM200      0.0000
     33  ND        35.7760    3.3930   11.6820 N.2   200  HEM200      0.0000
     34  C1D       34.9300    3.1100   12.7550 C.2   200  HEM200      0.0000
     35  C2D       35.6160    2.2210   13.6740 C.2   200  HEM200      0.0000
     36  C3D       36.8150    1.9730   13.1940 C.2   200  HEM200      0.0000
     37  C4D       36.9420    2.7160   11.9400 C.2   200  HEM200      0.0000
     38  CMD       34.9390    1.6990   14.9750 C.3   200  HEM200      0.0000
     39  CAD       37.9270    1.0860   13.8460 C.3   200  HEM200      0.0000
     40  CBD       38.6490    2.0330   14.8680 C.3   200  HEM200      0.0000
     41  CGD       39.8890    1.5790   15.5880 C.2   200  HEM200      0.0000
     42  O1D       39.8710    1.6460   16.8400 O.co2 200  HEM200      0.0000
     43  O2D       40.8610    1.1690   14.9540 O.co2 200  HEM200      0.0000
@<TRIPOS>BOND
     1    22    19    1
     2    24    23    2
     3    23    20    1
     4    19    20    2
     5    19    18    1
     6    11     9    1
     7    20    21    1
     8     3    18    1
     9     3    10    2
    10    18    17    2
    11    16    14   ar
    12     9    10   ar
    13     9     8   ar
    14    10     6   ar
    15    21    17    1
    16    21     4    2
    17    13    14    1
    18    13    12    1
    19    17     1    1
    20    14    15   ar
    21     4    26    1
    22     8    12    1
    23     8     7   ar
    24     6     1    1
    25     6     7   ar
    26     1    25    1
    27     1    33    1
    28     7     2    2
    29    26    25   ar
    30    26    27   ar
    31    25    29   ar
    32    30    27    1
    33     2    37    1
    34    27    28   ar
    35    33    37    2
    36    33    34    1
    37    37    36    1
    38    29    28   ar
    39    29     5    1
    40    28    31    1
    41    34     5    2
    42    34    35    1
    43    36    35    2
    44    36    39    1
    45    31    32    2
    46    35    38    1
    47    39    40    1
    48    40    41    1
    49    43    41   ar
    50    41    42   ar
