@<TRIPOS>MOLECULE
1f65_HEM_A_1.pdb
 43 50 0 0 0
SMALL
GASTEIGER

@<TRIPOS>ATOM
      1 FE         34.9130    4.0620   10.0420 Fe    200  HEM200      0.0000
      2  CHA       37.6130    2.2580   11.2160 C.2   200  HEM200      0.0000
      3  CHB       36.8860    5.2590    7.4560 C.2   200  HEM200      0.0000
      4  CHC       32.2770    5.9070    8.9090 C.2   200  HEM200      0.0000
      5  CHD       33.0350    2.9510   12.6970 C.2   200  HEM200      0.0000
      6  NA        36.8240    3.8300    9.4920 N.ar  200  HEM200      0.0000
      7  C1A       37.7880    3.0100   10.0710 C.ar  200  HEM200      0.0000
      8  C2A       39.0010    3.0570    9.3000 C.ar  200  HEM200      0.0000
      9  C3A       38.7910    3.8860    8.2680 C.ar  200  HEM200      0.0000
     10  C4A       37.4510    4.3730    8.3740 C.ar  200  HEM200      0.0000
     11  CMA       39.7910    4.2650    7.1590 C.3   200  HEM200      0.0000
     12  CAA       40.2770    2.2600    9.6230 C.3   200  HEM200      0.0000
     13  CBA       40.3430    0.9780    8.6960 C.3   200  HEM200      0.0000
     14  CGA       39.0800    0.1350    8.6540 C.2   200  HEM200      0.0000
     15  O1A       38.8230   -0.5920    9.6450 O.co2 200  HEM200      0.0000
     16  O2A       38.3490    0.1910    7.6150 O.co2 200  HEM200      0.0000
     17  NB        34.6380    5.3250    8.5160 N.2   200  HEM200      0.0000
     18  C1B       35.5680    5.6420    7.5430 C.2   200  HEM200      0.0000
     19  C2B       34.9240    6.4980    6.5910 C.2   200  HEM200      0.0000
     20  C3B       33.6570    6.6940    6.9730 C.2   200  HEM200      0.0000
     21  C4B       33.4620    5.9460    8.2020 C.2   200  HEM200      0.0000
     22  CMB       35.6510    7.0660    5.3320 C.3   200  HEM200      0.0000
     23  CAB       32.5630    7.5270    6.2980 C.2   200  HEM200      0.0000
     24  CBB       32.8700    8.7900    5.9250 C.2   200  HEM200      0.0000
     25  NC        33.0390    4.3200   10.6210 N.ar  200  HEM200      0.0000
     26  C1C       32.1190    5.2230   10.1150 C.ar  200  HEM200      0.0000
     27  C2C       31.0000    5.3500   11.0090 C.ar  200  HEM200      0.0000
     28  C3C       31.2070    4.5410   12.0490 C.ar  200  HEM200      0.0000
     29  C4C       32.4730    3.8750   11.8330 C.ar  200  HEM200      0.0000
     30  CMC       29.7970    6.2820   10.7380 C.3   200  HEM200      0.0000
     31  CAC       30.3400    4.2790   13.3000 C.2   200  HEM200      0.0000
     32  CBC       29.2080    4.9690   13.5740 C.2   200  HEM200      0.0000
     33  ND        35.2400    2.8190   11.6050 N.2   200  HEM200      0.0000
     34  C1D       34.3510    2.5560   12.6240 C.2   200  HEM200      0.0000
     35  C2D       35.0260    1.7740   13.6270 C.2   200  HEM200      0.0000
     36  C3D       36.2710    1.5900   13.2310 C.2   200  HEM200      0.0000
     37  C4D       36.4390    2.2390   11.9430 C.2   200  HEM200      0.0000
     38  CMD       34.3220    1.2960   14.9270 C.3   200  HEM200      0.0000
     39  CAD       37.4020    0.8260   13.9970 C.3   200  HEM200      0.0000
     40  CBD       37.9790    1.9700   14.9370 C.3   200  HEM200      0.0000
     41  CGD       39.1310    1.5840   15.8050 C.2   200  HEM200      0.0000
     42  O1D       39.0630    1.9800   17.0120 O.co2 200  HEM200      0.0000
     43  O2D       40.0680    0.9140   15.3290 O.co2 200  HEM200      0.0000
@<TRIPOS>BOND
     1    22    19    1
     2    24    23    2
     3    23    20    1
     4    19    20    2
     5    19    18    1
     6    20    21    1
     7    11     9    1
     8     3    18    1
     9     3    10    2
    10    18    17    2
    11    16    14   ar
    12    21    17    1
    13    21     4    2
    14     9    10   ar
    15     9     8   ar
    16    10     6   ar
    17    17     1    1
    18    14    13    1
    19    14    15   ar
    20    13    12    1
    21     4    26    1
    22     8    12    1
    23     8     7   ar
    24     6     1    1
    25     6     7   ar
    26     1    25    1
    27     1    33    1
    28     7     2    2
    29    26    25   ar
    30    26    27   ar
    31    25    29   ar
    32    30    27    1
    33    27    28   ar
    34     2    37    1
    35    33    37    2
    36    33    34    1
    37    29    28   ar
    38    29     5    1
    39    37    36    1
    40    28    31    1
    41    34     5    2
    42    34    35    1
    43    36    35    2
    44    36    39    1
    45    31    32    2
    46    35    38    1
    47    39    40    1
    48    40    41    1
    49    43    41   ar
    50    41    42   ar
