@<TRIPOS>MOLECULE
1f6h_HEM_A_1.pdb
 43 50 0 0 0
SMALL
GASTEIGER

@<TRIPOS>ATOM
      1 FE         14.9660   27.3750    4.5120 Fe    230  HEM230      0.0000
      2  CHA       16.2360   30.4950    4.8240 C.2   230  HEM230      0.0000
      3  CHB       13.9740   27.4730    7.8390 C.2   230  HEM230      0.0000
      4  CHC       13.6380   24.2080    4.2730 C.2   230  HEM230      0.0000
      5  CHD       15.8930   27.2440    1.2720 C.2   230  HEM230      0.0000
      6  NA        15.0690   28.7250    6.0290 N.2   230  HEM230      0.0000
      7  C1A       15.6370   29.9790    5.9530 C.2   230  HEM230      0.0000
      8  C2A       15.5120   30.6400    7.2420 C.2   230  HEM230      0.0000
      9  C3A       14.8910   29.8010    8.0670 C.2   230  HEM230      0.0000
     10  C4A       14.6020   28.5900    7.3260 C.2   230  HEM230      0.0000
     11  CMA       14.4880   29.9670    9.5460 C.3   230  HEM230      0.0000
     12  CAA       16.0300   32.0780    7.4690 C.3   230  HEM230      0.0000
     13  CBA       15.0820   33.2610    7.4180 C.3   230  HEM230      0.0000
     14  CGA       15.0940   34.2710    6.3090 C.2   230  HEM230      0.0000
     15  O1A       14.0200   34.3610    5.6440 O.co2 230  HEM230      0.0000
     16  O2A       16.1010   35.0090    6.1010 O.co2 230  HEM230      0.0000
     17  NB        14.0120   26.1070    5.7900 N.ar  230  HEM230      0.0000
     18  C1B       13.7020   26.3230    7.1250 C.ar  230  HEM230      0.0000
     19  C2B       13.0390   25.1480    7.6580 C.ar  230  HEM230      0.0000
     20  C3B       12.9480   24.2500    6.6740 C.ar  230  HEM230      0.0000
     21  C4B       13.5530   24.8420    5.4920 C.ar  230  HEM230      0.0000
     22  CMB       12.5870   25.0620    9.1340 C.3   230  HEM230      0.0000
     23  CAB       12.8370   22.7060    6.7640 C.2   230  HEM230      0.0000
     24  CBB       13.2810   22.0750    7.8540 C.2   230  HEM230      0.0000
     25  NC        14.7920   25.9950    3.0480 N.2   230  HEM230      0.0000
     26  C1C       14.2080   24.7480    3.1430 C.2   230  HEM230      0.0000
     27  C2C       14.2990   24.0850    1.8640 C.2   230  HEM230      0.0000
     28  C3C       14.9230   24.9190    1.0270 C.2   230  HEM230      0.0000
     29  C4C       15.2430   26.1290    1.7500 C.2   230  HEM230      0.0000
     30  CMC       13.7500   22.6730    1.5810 C.3   230  HEM230      0.0000
     31  CAC       15.0170   24.7540   -0.5040 C.2   230  HEM230      0.0000
     32  CBC       15.8460   25.5330   -1.2000 C.2   230  HEM230      0.0000
     33  ND        15.9060   28.6470    3.2790 N.ar  230  HEM230      0.0000
     34  C1D       16.2110   28.3980    1.9590 C.ar  230  HEM230      0.0000
     35  C2D       16.9070   29.5620    1.4440 C.ar  230  HEM230      0.0000
     36  C3D       17.0140   30.4740    2.4220 C.ar  230  HEM230      0.0000
     37  C4D       16.3770   29.9040    3.5910 C.ar  230  HEM230      0.0000
     38  CMD       17.4370   29.6480   -0.0050 C.3   230  HEM230      0.0000
     39  CAD       17.6830   31.8630    2.3900 C.2   230  HEM230      0.0000
     40  CBD       18.8990   32.2230    3.2190 C.2   230  HEM230      0.0000
     41  CGD       19.2250   33.6730    3.4580 C.2   230  HEM230      0.0000
     42  O1D       19.7080   34.3490    2.5100 O.co2 230  HEM230      0.0000
     43  O2D       19.0150   34.1600    4.6060 O.co2 230  HEM230      0.0000
@<TRIPOS>BOND
     1    32    31    2
     2    31    28    1
     3    38    35    1
     4    28    29    1
     5    28    27    2
     6     5    29    1
     7     5    34    2
     8    35    34   ar
     9    35    36   ar
    10    30    27    1
    11    29    25    2
    12    27    26    1
    13    34    33   ar
    14    39    36    1
    15    39    40    2
    16    36    37   ar
    17    42    41   ar
    18    25    26    1
    19    25     1    1
    20    26     4    2
    21    40    41    1
    22    33    37   ar
    23    33     1    1
    24    41    43   ar
    25    37     2    2
    26     4    21    1
    27     1    17    1
    28     1     6    1
    29     2     7    1
    30    21    17   ar
    31    21    20   ar
    32    15    14   ar
    33    17    18   ar
    34     7     6    2
    35     7     8    1
    36     6    10    1
    37    16    14   ar
    38    14    13    1
    39    20    23    1
    40    20    19   ar
    41    23    24    2
    42    18    19   ar
    43    18     3    1
    44     8    12    1
    45     8     9    2
    46    10     3    2
    47    10     9    1
    48    13    12    1
    49    19    22    1
    50     9    11    1
