@<TRIPOS>MOLECULE
1f6m_3AA_A_1.pdb
 46 50 0 0 0
SMALL
GASTEIGER

@<TRIPOS>ATOM
      1  PA        17.1280   34.7610   79.9040 P.3   1501  3AA1501     0.2189
      2  O1A       16.3720   34.0900   78.8340 O.2   1501  3AA1501    -0.5170
      3  O2A       18.3700   35.5050   79.6330 O.3   1501  3AA1501    -0.4371
      4  O5B       17.5250   33.6600   80.9720 O.3   1501  3AA1501    -0.3112
      5  C5B       16.5390   32.8240   81.6230 C.3   1501  3AA1501     0.1813
      6  C4B       17.0180   32.2270   82.9710 C.3   1501  3AA1501     0.1820
      7  O4B       15.9760   31.5240   83.6460 O.3   1501  3AA1501    -0.3136
      8  C1B       16.2890   30.1060   83.6270 C.3   1501  3AA1501     0.3158
      9  N9A       15.1100   29.2950   83.2610 N.pl3 1501  3AA1501    -0.1439
     10  C4A       14.4220   28.4880   84.1360 C.2   1501  3AA1501     0.3518
     11  N3A       14.6950   28.2630   85.4400 N.2   1501  3AA1501    -0.0055
     12  C2A       13.8150   27.4430   85.9460 C.3   1501  3AA1501     0.5254
     13  N1A       12.7960   26.8620   85.3810 N.2   1501  3AA1501     0.0021
     14  C6A       12.5400   27.0980   84.0960 C.2   1501  3AA1501     0.4393
     15  N6A       11.4720   26.5620   83.5090 N.pl3 1501  3AA1501     0.2180
     16  C5A       13.3940   27.9620   83.4220 C.2   1501  3AA1501     0.2526
     17  N7A       13.4070   28.4230   82.1160 N.2   1501  3AA1501    -0.2095
     18  C8A       14.4300   29.1980   82.0770 C.3   1501  3AA1501     0.3377
     19  C2B       17.4300   29.8910   82.7050 C.3   1501  3AA1501     0.2314
     20  O2B       18.2220   28.7790   83.0610 O.3   1501  3AA1501    -0.2630
     21  P2B       19.5590   28.2600   82.2870 P.3   1501  3AA1501     0.5328
     22  O1X       19.9470   26.9380   82.9190 O.3   1501  3AA1501    -0.1145
     23  O2X       19.1470   28.0840   80.8330 O.2   1501  3AA1501    -0.2224
     24  O3X       20.6320   29.3210   82.5010 O.3   1501  3AA1501    -0.1145
     25  C3B       18.1280   31.2090   82.8310 C.3   1501  3AA1501     0.2157
     26  O3B       19.0120   31.1860   83.9480 O.3   1501  3AA1501    -0.2175
     27  O3        16.0410   35.6880   80.6040 O.3   1501  3AA1501    -0.2703
     28  PN        16.1640   37.1510   81.2150 P.3   1501  3AA1501     0.2189
     29  O1N       17.1440   37.1820   82.3210 O.3   1501  3AA1501    -0.4371
     30  O2N       14.8000   37.6310   81.5030 O.2   1501  3AA1501    -0.5170
     31  O5D       16.7870   37.9310   79.9810 O.3   1501  3AA1501    -0.3112
     32  C5D       16.2280   38.0510   78.6520 C.3   1501  3AA1501     0.1813
     33  C4D       17.0380   38.8910   77.6270 C.3   1501  3AA1501     0.1799
     34  O4D       17.0810   40.2770   78.0290 O.3   1501  3AA1501    -0.3327
     35  C3D       18.4550   38.4100   77.4980 C.3   1501  3AA1501     0.2158
     36  O3D       18.7390   38.3280   76.1180 O.3   1501  3AA1501    -0.2175
     37  C2D       19.2720   39.3800   78.3480 C.3   1501  3AA1501     0.2309
     38  O2D       20.5770   39.4710   77.8500 O.3   1501  3AA1501    -0.2158
     39  C1D       18.4450   40.6760   78.3840 C.3   1501  3AA1501     0.2263
     40  N1N       18.4780   41.4620   79.6570 N.pl3 1501  3AA1501    -0.2775
     41  C2N       19.5130   42.4200   79.8460 C.3   1501  3AA1501     0.1379
     42  C4N       18.6900   42.7590   82.1900 C.2   1501  3AA1501     0.0167
     43  C5N       17.6790   41.7970   81.9410 C.2   1501  3AA1501     0.0169
     44  C6N       17.5560   41.1520   80.7110 C.2   1501  3AA1501     0.0634
     45  C3N       19.6080   43.0670   81.1280 C.2   1501  3AA1501     0.0868
     46  N7N       20.5430   43.9560   81.3370 N.pl3 1501  3AA1501    -0.1310
@<TRIPOS>BOND
     1    36    35    1
     2    35    33    1
     3    35    37    1
     4    33    34    1
     5    33    32    1
     6    38    37    1
     7    34    39    1
     8    37    39    1
     9    39    40    1
    10    32    31    1
    11     2     1    2
    12     3     1    1
    13    40    41    1
    14    40    44    1
    15    41    45    1
    16     1    27    1
    17     1     4    1
    18    31    28    1
    19    27    28    1
    20    44    43    2
    21    23    21    2
    22     4     5    1
    23    45    46    1
    24    45    42    2
    25    28    30    2
    26    28    29    1
    27     5     6    1
    28    43    42    1
    29    18    17    1
    30    18     9    1
    31    17    16    2
    32    21    24    1
    33    21    22    1
    34    21    20    1
    35    19    25    1
    36    19    20    1
    37    19     8    1
    38    25     6    1
    39    25    26    1
    40     6     7    1
    41     9     8    1
    42     9    10    1
    43    16    14    1
    44    16    10    1
    45    15    14    1
    46     8     7    1
    47    14    13    2
    48    10    11    2
    49    13    12    1
    50    11    12    1
