@<TRIPOS>MOLECULE
1f6n_SPO_M_1.pdb
 42 41 0 0 0
SMALL
GASTEIGER

@<TRIPOS>ATOM
      1  CM1       42.7270   84.5230   55.6560 C.3   600  SPO600      0.1739
      2  O1        43.7500   85.6620   55.8420 O.3   600  SPO600     -0.3559
      3  C1        44.7190   85.9170   54.6600 C.3   600  SPO600      0.0933
      4  C2        46.0800   86.3180   55.2230 C.3   600  SPO600      0.0296
      5  C3        44.8630   84.6520   53.8050 C.3   600  SPO600      0.0296
      6  C4        44.2020   87.0640   53.8110 C.3   600  SPO600      0.0319
      7  C5        42.8130   86.9210   53.3520 C.3   600  SPO600      0.0281
      8  C6        42.3940   87.6690   52.0730 C.2   600  SPO600     -0.0303
      9  C7        41.2970   88.5320   51.9980 C.2   600  SPO600     -0.0261
     10  C8        40.2780   88.7060   53.1570 C.3   600  SPO600      0.0307
     11  C9        41.1220   89.1180   50.7420 C.2   600  SPO600     -0.0046
     12  C10       40.0070   90.0850   50.4050 C.2   600  SPO600     -0.0007
     13  C11       40.0970   90.8500   49.0620 C.2   600  SPO600     -0.0043
     14  C12       38.9480   91.3350   48.4510 C.2   600  SPO600     -0.0222
     15  C13       37.5550   91.0380   49.0240 C.3   600  SPO600      0.0310
     16  C14       39.0900   92.0170   47.2470 C.2   600  SPO600     -0.0085
     17  C15       37.8300   92.5330   46.6130 C.2   600  SPO600     -0.0221
     18  C16       37.8000   93.2740   45.2960 C.3   600  SPO600      0.0476
     19  C17       36.5440   93.6530   44.8330 C.2   600  SPO600     -0.0438
     20  C18       35.2750   93.2280   45.5900 C.3   600  SPO600      0.0264
     21  C19       36.4490   94.3340   43.6250 C.2   600  SPO600     -0.0343
     22  C20       37.6470   94.6390   42.8300 C.3   600  SPO600      0.0254
     23  C21       37.6600   95.8190   41.9220 C.3   600  SPO600      0.0047
     24  C22       38.9670   96.4190   41.6760 C.3   600  SPO600      0.0007
     25  C23       39.3700   96.8170   40.4150 C.3   600  SPO600      0.0043
     26  C24       38.3480   97.2350   39.3450 C.3   600  SPO600      0.0003
     27  C25       40.6770   97.2750   40.3770 C.3   600  SPO600      0.0257
     28  C26       41.3220   97.6750   39.1130 C.2   600  SPO600     -0.0307
     29  C27       42.7970   97.9450   39.1290 C.2   600  SPO600     -0.0310
     30  C28       43.4610   98.2180   37.9470 C.3   600  SPO600      0.0220
     31  C29       42.7600   98.5990   36.6220 C.3   600  SPO600      0.0047
     32  C30       44.9470   98.5390   37.9480 C.3   600  SPO600      0.0090
     33  C31       45.2250   99.7990   38.7270 C.3   600  SPO600      0.0257
     34  C32       46.6000   99.9740   38.9680 C.2   600  SPO600     -0.0346
     35  C33       47.2550  100.9260   39.7360 C.2   600  SPO600     -0.0482
     36  C34       46.5520  102.0930   40.4500 C.3   600  SPO600      0.0260
     37  C35       48.7820  100.9630   39.8960 C.3   600  SPO600      0.0217
     38  C36       49.4920  101.4590   38.6430 C.3   600  SPO600      0.0043
     39  C37       50.9030  101.0870   38.6500 C.3   600  SPO600      0.0003
     40  C38       51.7610  100.7500   37.6000 C.3   600  SPO600      0.0000
     41  C39       51.3270   99.9180   36.3600 C.3   600  SPO600      0.0000
     42  C40       53.2590  101.1680   37.5370 C.3   600  SPO600      0.0000
@<TRIPOS>BOND
     1    41    40    1
     2    31    30    1
     3    42    40    1
     4    40    39    1
     5    30    32    1
     6    30    29    1
     7    32    33    1
     8    38    39    1
     9    38    37    1
    10    33    34    1
    11    34    35    2
    12    28    29    2
    13    28    27    1
    14    26    25    1
    15    35    37    1
    16    35    36    1
    17    27    25    1
    18    25    24    1
    19    24    23    1
    20    23    22    1
    21    22    21    1
    22    21    19    2
    23    19    18    1
    24    19    20    1
    25    18    17    1
    26    17    16    2
    27    16    14    1
    28    14    15    1
    29    14    13    2
    30    13    12    1
    31    12    11    2
    32    11     9    1
    33     9     8    2
    34     9    10    1
    35     8     7    1
    36     7     6    1
    37     5     3    1
    38     6     3    1
    39     3     4    1
    40     3     2    1
    41     1     2    1
