@<TRIPOS>MOLECULE
1f6n_U10_L_1.pdb
 48 48 0 0 0
SMALL
GASTEIGER

@<TRIPOS>ATOM
      1  C1        35.1310   75.2420   28.0770 C.2   502  U10502      0.0145
      2  C2        34.5690   74.6270   26.8900 C.2   502  U10502      0.1987
      3  C3        34.8920   73.2490   26.5770 C.3   502  U10502      0.2104
      4  C4        35.7320   72.5490   27.3880 C.3   502  U10502      0.2105
      5  C5        36.2990   73.1810   28.5670 C.2   502  U10502      0.1990
      6  C6        35.9440   74.5390   28.9070 C.2   502  U10502      0.0182
      7  C1M       34.8070   76.6900   28.3120 C.3   502  U10502      0.0339
      8  C3M       34.3010   71.6500   24.7130 C.3   502  U10502      0.1747
      9  C4M       37.1350   70.6420   26.6420 C.3   502  U10502      0.1747
     10  C7        36.5280   75.1790   30.1750 C.3   502  U10502      0.0544
     11  C8        35.5830   75.3490   31.2740 C.2   502  U10502     -0.0298
     12  C9        35.8030   75.5250   32.6310 C.2   502  U10502     -0.0475
     13  C10       37.2000   75.5830   33.2940 C.3   502  U10502      0.0260
     14  C11       34.6740   75.7540   33.6550 C.3   502  U10502      0.0264
     15  C12       34.3920   77.2430   33.8590 C.3   502  U10502      0.0297
     16  C13       33.6340   77.5210   35.0710 C.2   502  U10502     -0.0342
     17  C14       33.9130   78.3480   36.1540 C.2   502  U10502     -0.0478
     18  C15       32.9760   78.4790   37.3850 C.3   502  U10502      0.0260
     19  C16       35.2260   79.1970   36.2260 C.3   502  U10502      0.0263
     20  C17       35.9990   79.1060   37.5680 C.3   502  U10502      0.0297
     21  C18       37.3900   79.5810   37.4110 C.2   502  U10502     -0.0342
     22  C19       38.6020   78.8870   37.3430 C.2   502  U10502     -0.0478
     23  C20       38.7530   77.3320   37.4280 C.3   502  U10502      0.0260
     24  C21       39.9500   79.6130   37.1880 C.3   502  U10502      0.0263
     25  C22       40.3480   80.3820   38.4460 C.3   502  U10502      0.0297
     26  C23       41.7820   80.1930   38.7390 C.2   502  U10502     -0.0342
     27  C24       42.9210   80.9060   38.3600 C.2   502  U10502     -0.0478
     28  C25       42.9260   82.1730   37.4970 C.3   502  U10502      0.0260
     29  C26       44.3310   80.4970   38.7870 C.3   502  U10502      0.0263
     30  C27       44.6970   79.0990   38.3070 C.3   502  U10502      0.0297
     31  C28       45.3840   78.3700   39.3410 C.2   502  U10502     -0.0342
     32  C29       45.2330   77.0550   39.7770 C.2   502  U10502     -0.0478
     33  C30       44.2420   76.0330   39.1910 C.3   502  U10502      0.0260
     34  C31       46.0350   76.4690   40.9340 C.3   502  U10502      0.0263
     35  C32       47.5060   76.2310   40.6150 C.3   502  U10502      0.0297
     36  C33       47.8380   74.8190   40.8740 C.2   502  U10502     -0.0342
     37  C34       49.0430   74.1560   41.0720 C.2   502  U10502     -0.0478
     38  C35       50.4240   74.8340   41.0560 C.3   502  U10502      0.0260
     39  C36       49.1300   72.6430   41.3170 C.3   502  U10502      0.0263
     40  C37       50.2530   72.2220   42.2760 C.3   502  U10502      0.0297
     41  C38       50.2060   70.7490   42.5000 C.2   502  U10502     -0.0342
     42  C39       51.0130   69.9020   43.2630 C.2   502  U10502     -0.0478
     43  C40       52.2270   70.3970   44.0870 C.3   502  U10502      0.0260
     44  C41       50.8080   68.3680   43.3870 C.3   502  U10502      0.0260
     45  O2        33.8990   75.2960   26.1300 O.2   502  U10502     -0.2890
     46  O3        34.4630   72.9250   25.2210 O.3   502  U10502     -0.3429
     47  O4        36.0260   71.1380   27.3260 O.3   502  U10502     -0.3429
     48  O5        37.1950   72.6360   29.2160 O.2   502  U10502     -0.2890
@<TRIPOS>BOND
     1     8    46    1
     2    46     3    1
     3    45     2    2
     4     3     2    1
     5     3     4    1
     6     9    47    1
     7     2     1    1
     8    47     4    1
     9     4     5    1
    10     1     7    1
    11     1     6    2
    12     5     6    1
    13     5    48    2
    14     6    10    1
    15    10    11    1
    16    11    12    2
    17    12    13    1
    18    12    14    1
    19    14    15    1
    20    15    16    1
    21    16    17    2
    22    17    19    1
    23    17    18    1
    24    19    20    1
    25    24    22    1
    26    24    25    1
    27    22    21    2
    28    22    23    1
    29    21    20    1
    30    28    27    1
    31    30    29    1
    32    30    31    1
    33    27    26    2
    34    27    29    1
    35    25    26    1
    36    33    32    1
    37    31    32    2
    38    32    34    1
    39    35    36    1
    40    35    34    1
    41    36    37    2
    42    38    37    1
    43    37    39    1
    44    39    40    1
    45    40    41    1
    46    41    42    2
    47    42    44    1
    48    42    43    1
