@<TRIPOS>MOLECULE
1f6t_TBD_A_1.pdb
 25 26 0 0 0
SMALL
GASTEIGER

@<TRIPOS>ATOM
      1  PB         7.0790   71.5470   26.3160 P.3   160  TBD160      0.0000
      2  O1B        7.0430   72.5580   27.4250 O.3   160  TBD160      0.0000
      3  O2B        8.3680   71.3220   25.6380 O.2   160  TBD160      0.0000
      4  O3B        6.3240   70.3530   26.7450 O.3   160  TBD160      0.0000
      5  O3A        6.1060   72.1610   25.2070 O.3   160  TBD160      0.0000
      6  PA         6.2180   72.9960   23.8490 P.3   160  TBD160      0.0000
      7  B1A        4.9930   72.2050   22.6070 B     160  TBD160      0.0000
      8  O2A        7.6430   73.1030   23.4860 O.2   160  TBD160      0.0000
      9  O5'        5.6590   74.4510   24.1890 O.3   160  TBD160      0.0000
     10  C5'        6.1990   75.2400   25.2430 C.3   160  TBD160      0.0000
     11  C4'        5.1110   75.5940   26.2430 C.3   160  TBD160      0.0000
     12  O4'        4.0880   76.3910   25.5880 O.3   160  TBD160      0.0000
     13  C1'        2.8570   76.2210   26.2620 C.3   160  TBD160      0.0000
     14  N1         1.8110   75.9100   25.2800 N.am  160  TBD160      0.0000
     15  C6         2.0490   75.0340   24.2490 C.2   160  TBD160      0.0000
     16  C2         0.5750   76.5110   25.4470 C.1   160  TBD160      0.0000
     17  O2         0.3240   77.2810   26.3550 O.2   160  TBD160      0.0000
     18  N3        -0.3620   76.1600   24.5180 N.2   160  TBD160      0.0000
     19  C4        -0.2090   75.2700   23.4810 C.1   160  TBD160      0.0000
     20  O4        -1.1610   75.0180   22.7610 O.2   160  TBD160      0.0000
     21  C5         1.1170   74.6810   23.3570 C.2   160  TBD160      0.0000
     22  C5A        1.3790   73.7040   22.2560 C.3   160  TBD160      0.0000
     23  C2'        3.0380   75.1030   27.2960 C.3   160  TBD160      0.0000
     24  C3'        4.3150   74.4230   26.8050 C.3   160  TBD160      0.0000
     25  O3'        5.0140   73.8330   27.8870 O.3   160  TBD160      0.0000
@<TRIPOS>BOND
     1    22    21    1
     2     7     6    1
     3    20    19    2
     4    21    19    1
     5    21    15    2
     6    19    18    2
     7     8     6    2
     8     6     9    1
     9     6     5    1
    10     9    10    1
    11    15    14    1
    12    18    16    2
    13     5     1    1
    14    10    11    1
    15    14    16   am
    16    14    13    1
    17    16    17    2
    18    12    11    1
    19    12    13    1
    20     3     1    2
    21    11    24    1
    22    13    23    1
    23     1     4    1
    24     1     2    1
    25    24    23    1
    26    24    25    1
