@<TRIPOS>MOLECULE
1f73_HMN_A_1.pdb
 21 20 0 0 0
SMALL
GASTEIGER

@<TRIPOS>ATOM
      1  C1        -9.4740   47.0300   49.6750 C.2   700  HMN700      0.3947
      2  O1A      -10.2720   46.1000   49.9960 O.co2 700  HMN700     -0.2428
      3  O1B       -9.6740   47.8440   48.7320 O.co2 700  HMN700     -0.2428
      4  C2        -8.2320   47.2110   50.5060 C.3   700  HMN700      0.2566
      5  O2        -7.7010   48.5420   50.4310 O.3   700  HMN700     -0.2108
      6  C3        -7.1790   46.1860   50.1510 C.3   700  HMN700      0.0794
      7  C4        -6.1450   46.1560   51.2720 C.3   700  HMN700      0.1775
      8  O4        -5.2550   47.2540   51.1070 O.3   700  HMN700     -0.2211
      9  C5        -5.3730   44.8430   51.1950 C.3   700  HMN700      0.1585
     10  N2        -4.6850   44.8480   49.8860 N.am  700  HMN700     -0.2018
     11  C10       -4.8060   43.7900   49.0840 C.2   700  HMN700      0.2420
     12  O10       -5.2050   42.7010   49.5080 O.2   700  HMN700     -0.2733
     13  C11       -4.4320   43.9160   47.6160 C.3   700  HMN700      0.0964
     14  C6        -4.3080   44.7080   52.2970 C.3   700  HMN700      0.2070
     15  O6        -4.9050   44.8820   53.5770 O.3   700  HMN700     -0.2184
     16  C7        -3.6610   43.3290   52.2240 C.3   700  HMN700      0.2166
     17  O7        -4.6260   42.2820   52.1900 O.3   700  HMN700     -0.2175
     18  C8        -2.7600   43.1070   53.4260 C.3   700  HMN700      0.2175
     19  O8        -1.8270   44.1730   53.4540 O.3   700  HMN700     -0.2175
     20  C9        -2.0810   41.7680   53.2140 C.3   700  HMN700      0.2175
     21  O9        -1.0340   41.8640   52.2620 O.3   700  HMN700     -0.2175
@<TRIPOS>BOND
     1    13    11    1
     2     3     1   ar
     3    11    12    2
     4    11    10   am
     5     1     2   ar
     6     1     4    1
     7    10     9    1
     8     6     4    1
     9     6     7    1
    10     5     4    1
    11     8     7    1
    12     9     7    1
    13     9    14    1
    14    17    16    1
    15    16    14    1
    16    16    18    1
    17    21    20    1
    18    14    15    1
    19    20    18    1
    20    18    19    1
