@<TRIPOS>MOLECULE
1f74_NAY_A_1.pdb
 20 19 0 0 0
SMALL
GASTEIGER

@<TRIPOS>ATOM
      1  C1         1.9790   14.3000    6.2480 C.2   950  NAY950      0.4219
      2  O1A        2.7170   13.3410    5.9700 O.co2 950  NAY950     -0.2373
      3  O1B        0.8910   14.5830    5.7190 O.co2 950  NAY950     -0.2373
      4  C2         2.5340   15.2150    7.3700 C.2   950  NAY950      0.2521
      5  O2         3.7680   15.1950    7.5440 O.2   950  NAY950     -0.2843
      6  C3         1.4840   16.0520    8.1210 C.3   950  NAY950      0.0781
      7  C4         1.6290   16.0050    9.7010 C.3   950  NAY950      0.0327
      8  C5         0.2090   15.8060   10.3300 C.3   950  NAY950      0.1286
      9  N          0.1130   14.5130   11.0610 N.am  950  NAY950     -0.2045
     10  C10       -0.9710   13.7350   10.9580 C.2   950  NAY950      0.2419
     11  C11       -0.7590   12.3720   11.6120 C.3   950  NAY950      0.0964
     12  O10       -2.0740   14.0130   10.4330 O.2   950  NAY950     -0.2733
     13  O6        -0.1450   18.1810   10.5700 O.3   950  NAY950     -0.2185
     14  C6        -0.1740   16.9550   11.3340 C.3   950  NAY950      0.2045
     15  C7        -1.6170   16.7650   11.8980 C.3   950  NAY950      0.2166
     16  O7        -2.5030   16.5780   10.7990 O.3   950  NAY950     -0.2175
     17  C8        -2.0580   17.9900   12.7340 C.3   950  NAY950      0.2175
     18  O8        -0.9840   18.2830   13.6620 O.3   950  NAY950     -0.2175
     19  C9        -3.3860   17.7670   13.4230 C.3   950  NAY950      0.2175
     20  O9        -3.3140   16.7290   14.4080 O.3   950  NAY950     -0.2175
@<TRIPOS>BOND
     1     3     1   ar
     2     2     1   ar
     3     1     4    1
     4     4     5    2
     5     4     6    1
     6     6     7    1
     7     7     8    1
     8     8     9    1
     9     8    14    1
    10    12    10    2
    11    13    14    1
    12    16    15    1
    13    10     9   am
    14    10    11    1
    15    14    15    1
    16    15    17    1
    17    17    19    1
    18    17    18    1
    19    19    20    1
