@<TRIPOS>MOLECULE
1f76_FMN_A_1.pdb
 31 33 0 0 0
SMALL
GASTEIGER

@<TRIPOS>ATOM
      1  N1        88.5160    4.3060   18.5730 N.2   1337  FMN1337    -0.2887
      2  C2        88.3910    3.9490   17.2170 C.1   1337  FMN1337     0.3669
      3  O2        87.5540    4.5150   16.5720 O.2   1337  FMN1337    -0.1744
      4  N3        89.2680    2.9430   16.7190 N.2   1337  FMN1337    -0.2300
      5  C4        90.2390    2.3200   17.5440 C.1   1337  FMN1337     0.2513
      6  O4        90.9950    1.4590   17.0660 O.2   1337  FMN1337    -0.2057
      7  C4A       90.3130    2.8120   18.9270 C.2   1337  FMN1337     0.2703
      8  N5        91.2900    2.1180   19.7660 N.2   1337  FMN1337    -0.3882
      9  C5A       91.2400    2.3170   21.0280 C.2   1337  FMN1337     0.1277
     10  C6        92.1160    1.6180   21.8960 C.3   1337  FMN1337     0.0820
     11  C7        92.2420    1.9770   23.2600 C.2   1337  FMN1337    -0.0408
     12  C7M       93.2490    1.2660   24.2420 C.3   1337  FMN1337     0.0265
     13  C8        91.4570    3.0640   23.7970 C.2   1337  FMN1337    -0.0280
     14  C8M       91.5270    3.5320   25.2680 C.3   1337  FMN1337     0.0304
     15  C9        90.5850    3.7680   22.9650 C.2   1337  FMN1337     0.0123
     16  C9A       90.4370    3.4280   21.6230 C.2   1337  FMN1337     0.0793
     17  N10       89.4860    4.2010   20.8240 N.pl3 1337  FMN1337    -0.2545
     18  C10       89.4040    3.7940   19.4750 C.2   1337  FMN1337     0.2449
     19  C1'       88.6760    5.1960   21.2960 C.3   1337  FMN1337     0.1336
     20  C2'       87.2880    4.6640   21.8620 C.3   1337  FMN1337     0.2048
     21  O2'       86.5490    3.8710   20.8930 O.3   1337  FMN1337    -0.2185
     22  C3'       86.4730    5.8300   22.4300 C.3   1337  FMN1337     0.2165
     23  O3'       86.0780    6.5680   21.2940 O.3   1337  FMN1337    -0.2175
     24  C4'       87.2030    6.7330   23.5750 C.3   1337  FMN1337     0.2147
     25  O4'       88.1450    5.9200   24.3160 O.3   1337  FMN1337    -0.2176
     26  C5'       86.1490    7.3510   24.3930 C.3   1337  FMN1337     0.1892
     27  O5'       85.3230    6.4350   25.1840 O.3   1337  FMN1337    -0.2674
     28  P         85.7360    5.8880   26.6550 P.3   1337  FMN1337     0.5327
     29  O1P       84.4200    5.3490   27.1570 O.3   1337  FMN1337    -0.1145
     30  O2P       86.8880    5.0250   26.5390 O.2   1337  FMN1337    -0.2224
     31  O3P       86.0150    7.1400   27.5060 O.3   1337  FMN1337    -0.1145
@<TRIPOS>BOND
     1     3     2    2
     2     4     2    2
     3     4     5    2
     4     6     5    2
     5     2     1    2
     6     5     7    1
     7     1    18    2
     8     7    18    1
     9     7     8    2
    10    18    17    1
    11     8     9    2
    12    17    19    1
    13    17    16    1
    14    21    20    1
    15     9    16    1
    16     9    10    1
    17    23    22    1
    18    19    20    1
    19    16    15    2
    20    20    22    1
    21    10    11    1
    22    22    24    1
    23    15    13    1
    24    11    13    2
    25    11    12    1
    26    24    25    1
    27    24    26    1
    28    13    14    1
    29    26    27    1
    30    27    28    1
    31    30    28    2
    32    28    29    1
    33    28    31    1
