@<TRIPOS>MOLECULE
1f7b_NAU_A_1.pdb
 21 20 0 0 0
SMALL
GASTEIGER

@<TRIPOS>ATOM
      1  C1         2.0240   14.4240    6.2310 C.2   901  NAU901      0.3651
      2  O1A        2.7060   13.5570    5.6560 O.co2 901  NAU901     -0.2457
      3  O1B        0.8130   14.6450    6.0220 O.co2 901  NAU901     -0.2457
      4  C2         2.6840   15.1540    7.2730 C.3   901  NAU901      0.1219
      5  C3         1.8320   16.1310    8.1070 C.3   901  NAU901      0.1053
      6  C4         1.5660   15.6040    9.5680 C.3   901  NAU901      0.3724
      7  C5         0.1290   15.6970   10.1580 C.3   901  NAU901      0.2116
      8  N2        -0.0300   14.4480   10.9500 N.am  901  NAU901     -0.1966
      9  C10       -1.1340   13.9210   11.5480 C.2   901  NAU901      0.2421
     10  C11       -1.0000   13.3510   12.9300 C.3   901  NAU901      0.0964
     11  O10       -2.2440   13.8900   10.9310 O.2   901  NAU901     -0.2733
     12  O6        -0.0240   18.1430   10.3870 O.3   901  NAU901     -0.2182
     13  C6        -0.1470   16.9110   11.1190 C.3   901  NAU901      0.2121
     14  C7        -1.5630   16.8340   11.7810 C.3   901  NAU901      0.2168
     15  O7        -2.5460   16.6410   10.7250 O.3   901  NAU901     -0.2175
     16  C8        -1.9240   18.0570   12.6840 C.3   901  NAU901      0.2175
     17  O8        -0.9060   18.3160   13.6800 O.3   901  NAU901     -0.2175
     18  C9        -3.2640   17.8960   13.4380 C.3   901  NAU901      0.2175
     19  O9        -3.1550   16.8220   14.4070 O.3   901  NAU901     -0.2175
     20  O4A        2.5620   16.2880   10.3490 O.2   901  NAU901     -0.2734
     21  O4B        1.9210   14.1730    9.5690 O.2   901  NAU901     -0.2734
@<TRIPOS>BOND
     1     2     1   ar
     2     3     1   ar
     3     1     4    1
     4     4     5    1
     5     5     6    1
     6     6    21    1
     7     6     7    1
     8     6    20    1
     9     7     8    1
    10     7    13    1
    11    12    13    1
    12    15    14    1
    13    11     9    2
    14     8     9   am
    15    13    14    1
    16     9    10    1
    17    14    16    1
    18    16    18    1
    19    16    17    1
    20    18    19    1
