@<TRIPOS>MOLECULE
1f7b_NAV_C_1.pdb
 20 19 0 0 0
SMALL
GASTEIGER

@<TRIPOS>ATOM
      1  C1         7.3730   12.4050   42.4780 C.2   902  NAV902      0.3653
      2  O1A        6.3060   12.0780   43.0440 O.co2 902  NAV902     -0.2456
      3  O1B        8.4900   11.9850   42.8520 O.co2 902  NAV902     -0.2456
      4  C2         7.3480   13.2280   41.3100 C.3   902  NAV902      0.1219
      5  C3         8.3700   12.7430   40.3130 C.3   902  NAV902      0.0782
      6  C4         8.8450   13.1170   38.9570 C.2   902  NAV902      0.1735
      7  C5         9.8180   12.1300   38.2890 C.3   902  NAV902      0.1850
      8  N2         9.0270   11.0710   37.6200 N.am  902  NAV902     -0.1969
      9  C10        9.5450    9.8350   37.2800 C.2   902  NAV902      0.2423
     10  C11        8.7390    8.8900   36.4200 C.3   902  NAV902      0.0964
     11  O10       10.7000    9.4520   37.6560 O.2   902  NAV902     -0.2733
     12  O6        11.4610   13.8770   38.0980 O.3   902  NAV902     -0.2180
     13  C6        10.7800   12.8590   37.3160 C.3   902  NAV902      0.2116
     14  C7        11.8740   11.8730   36.8110 C.3   902  NAV902      0.2170
     15  O7        12.4860   11.2100   37.9540 O.3   902  NAV902     -0.2175
     16  C8        12.8950   12.6480   35.9360 C.3   902  NAV902      0.2175
     17  O8        12.1730   13.5060   35.0050 O.3   902  NAV902     -0.2175
     18  C9        13.8360   11.7340   35.1430 C.3   902  NAV902      0.2175
     19  O9        13.0770   11.0730   34.1020 O.3   902  NAV902     -0.2175
     20  O4         8.4300   14.1410   38.3730 O.2   902  NAV902     -0.2942
@<TRIPOS>BOND
     1    19    18    1
     2    17    16    1
     3    18    16    1
     4    16    14    1
     5    10     9    1
     6    14    13    1
     7    14    15    1
     8     9     8   am
     9     9    11    2
    10    13    12    1
    11    13     7    1
    12     8     7    1
    13     7     6    1
    14    20     6    2
    15     6     5    1
    16     5     4    1
    17     4     1    1
    18     1     3   ar
    19     1     2   ar
