@<TRIPOS>MOLECULE
1f7k_UMP_A_1.pdb
 20 21 0 0 0
SMALL
GASTEIGER

@<TRIPOS>ATOM
      1  N1        11.8150    7.6360   28.4540 N.am  704  UMP704     -0.1790
      2  C2        11.0400    8.6600   27.8800 C.1   704  UMP704      0.2844
      3  N3         9.9210    8.3380   27.1800 N.2   704  UMP704     -0.2452
      4  C4         9.4130    7.0640   26.9530 C.1   704  UMP704      0.2182
      5  C5        10.1970    6.0050   27.5440 C.2   704  UMP704      0.1242
      6  C6        11.3200    6.3760   28.2290 C.2   704  UMP704      0.0928
      7  O2        11.3060    9.7800   27.9610 O.2   704  UMP704     -0.1918
      8  O4         8.4220    6.8550   26.3330 O.2   704  UMP704     -0.2085
      9  C1'       12.9170    7.7610   29.1630 C.3   704  UMP704      0.2090
     10  C2'       12.9030    7.7200   30.7480 C.3   704  UMP704      0.0874
     11  C3'       13.4480    6.3290   31.0400 C.3   704  UMP704      0.1857
     12  C4'       14.5570    6.2350   29.9840 C.3   704  UMP704      0.1774
     13  O3'       13.9290    6.0980   32.3370 O.3   704  UMP704     -0.2203
     14  O4'       14.0090    6.8290   28.7830 O.3   704  UMP704     -0.3339
     15  C5'       15.1720    4.9750   29.8390 C.3   704  UMP704      0.1858
     16  O5'       14.9510    4.1940   28.7800 O.3   704  UMP704     -0.2675
     17  P         14.1430    2.8470   28.5640 P.3   704  UMP704      0.5327
     18  OP1       14.2950    2.4150   27.1690 O.2   704  UMP704     -0.2224
     19  OP2       12.6150    3.3000   28.8950 O.3   704  UMP704     -0.1145
     20  OP3       14.6910    1.8960   29.6210 O.3   704  UMP704     -0.1145
@<TRIPOS>BOND
     1     8     4    2
     2     4     3    2
     3     4     5    1
     4    18    17    2
     5     3     2    2
     6     5     6    2
     7     2     7    2
     8     2     1   am
     9     6     1    1
    10     1     9    1
    11    17    16    1
    12    17    19    1
    13    17    20    1
    14    16    15    1
    15    14     9    1
    16    14    12    1
    17     9    10    1
    18    15    12    1
    19    12    11    1
    20    10    11    1
    21    11    13    1
