@<TRIPOS>MOLECULE
1f7l_COA_A_1.pdb
 48 50 0 0 0
SMALL
GASTEIGER

@<TRIPOS>ATOM
      1  N1A      -12.9480    7.6080   44.9200 N.2   133  COA133      0.0021
      2  C2A      -11.6430    7.3360   45.4140 C.3   133  COA133      0.5254
      3  N3A      -11.1820    7.7310   46.6670 N.2   133  COA133     -0.0055
      4  C4A      -12.0900    8.4150   47.4200 C.2   133  COA133      0.3518
      5  C5A      -13.4610    8.7710   47.0640 C.2   133  COA133      0.2526
      6  C6A      -13.8990    8.3210   45.6980 C.2   133  COA133      0.4393
      7  N6A      -15.0940    8.5730   45.2460 N.pl3 133  COA133      0.2180
      8  N7A      -14.0870    9.4500   48.0420 N.2   133  COA133     -0.2095
      9  C8A      -13.1790    9.5550   49.0210 C.3   133  COA133      0.3377
     10  N9A      -11.9400    8.9490   48.7070 N.pl3 133  COA133     -0.1439
     11  C1B      -10.5080    8.7390   49.4330 C.3   133  COA133      0.3185
     12  C2B      -10.1310   10.0630   49.9880 C.3   133  COA133      0.2543
     13  O2B       -8.8850   10.5850   49.6170 O.3   133  COA133     -0.2131
     14  C3B      -10.3210    9.9670   51.4700 C.3   133  COA133      0.1928
     15  O3B       -9.2690   10.4780   52.4880 O.3   133  COA133     -0.2673
     16  P3B       -9.1820   12.1270   52.5890 P.3   133  COA133      0.5327
     17  O7A       -8.8350   12.7680   51.1840 O.2   133  COA133     -0.2224
     18  O8A       -8.0490   12.4480   53.6260 O.3   133  COA133     -0.1145
     19  O9A      -10.6090   12.5960   53.1310 O.3   133  COA133     -0.1145
     20  C4B      -10.2080    8.3750   51.7250 C.3   133  COA133      0.1795
     21  O4B      -10.9770    7.8970   50.5090 O.3   133  COA133     -0.3136
     22  C5B      -10.4010    7.9490   53.1270 C.3   133  COA133      0.1812
     23  O5B      -10.4690    6.4730   52.9380 O.3   133  COA133     -0.3112
     24  P1A      -10.6520    5.6720   54.3640 P.3   133  COA133      0.2189
     25  O1A       -9.7290    6.2400   55.3650 O.3   133  COA133     -0.4371
     26  O2A      -10.4590    4.2260   54.1190 O.2   133  COA133     -0.5170
     27  O3A      -12.0290    6.0830   54.8540 O.3   133  COA133     -0.2703
     28  P2A      -13.5530    5.5410   54.8450 P.3   133  COA133      0.2188
     29  O4A      -13.6630    4.2490   55.4880 O.2   133  COA133     -0.5170
     30  O5A      -14.4290    6.5300   55.5510 O.3   133  COA133     -0.4371
     31  O6A      -13.9260    5.5910   53.2770 O.3   133  COA133     -0.3138
     32  CBP      -14.7550    4.6500   51.1490 C.3   133  COA133      0.0645
     33  CCP      -13.8240    4.4730   52.4260 C.3   133  COA133      0.1519
     34  CDP      -14.1050    5.6890   50.1540 C.3   133  COA133      0.0056
     35  CEP      -14.7990    3.2430   50.5640 C.3   133  COA133      0.0056
     36  CAP      -16.2520    5.2440   51.5560 C.3   133  COA133      0.2312
     37  OAP      -17.0860    5.3950   50.3610 O.3   133  COA133     -0.2131
     38  C9P      -17.0670    4.3530   52.5530 C.2   133  COA133      0.2719
     39  O9P      -16.6490    4.1990   53.8190 O.2   133  COA133     -0.2706
     40  N8P      -18.1440    3.7800   52.1010 N.am  133  COA133     -0.2028
     41  C7P      -19.3290    3.4900   52.9160 C.3   133  COA133      0.1248
     42  C6P      -19.2240    2.0640   53.4770 C.3   133  COA133      0.1102
     43  C5P      -19.8050    1.9710   54.8880 C.2   133  COA133      0.2432
     44  O5P      -20.4140    2.9670   55.4870 O.2   133  COA133     -0.2733
     45  N4P      -19.6320    0.7890   55.4460 N.am  133  COA133     -0.2044
     46  C3P      -20.1120    0.4320   56.8520 C.3   133  COA133      0.1276
     47  C2P      -19.7360   -0.9980   57.1120 C.3   133  COA133      0.0920
     48  S1P      -20.8770   -2.2080   56.3010 S.3   133  COA133     -0.0802
@<TRIPOS>BOND
     1     1     2    1
     2     1     6    2
     3     7     6    1
     4     2     3    1
     5     6     5    1
     6     3     4    2
     7     5     4    1
     8     5     8    2
     9     4    10    1
    10     8     9    1
    11    10     9    1
    12    10    11    1
    13    11    12    1
    14    11    21    1
    15    13    12    1
    16    12    14    1
    17    34    32    1
    18    37    36    1
    19    21    20    1
    20    35    32    1
    21    32    36    1
    22    32    33    1
    23    17    16    2
    24    14    20    1
    25    14    15    1
    26    36    38    1
    27    20    22    1
    28    40    38   am
    29    40    41    1
    30    33    31    1
    31    15    16    1
    32    38    39    2
    33    16    19    1
    34    16    18    1
    35    41    42    1
    36    23    22    1
    37    23    24    1
    38    31    28    1
    39    42    43    1
    40    26    24    2
    41    24    27    1
    42    24    25    1
    43    28    27    1
    44    28    29    2
    45    28    30    1
    46    43    45   am
    47    43    44    2
    48    45    46    1
    49    48    47    1
    50    46    47    1
