@<TRIPOS>MOLECULE
1f7n_UMP_A_1.pdb
 20 21 0 0 0
SMALL
GASTEIGER

@<TRIPOS>ATOM
      1  N1        11.6030    7.4960   28.4630 N.am  139  UMP139     -0.1790
      2  C2        10.8430    8.5280   27.8630 C.1   139  UMP139      0.2844
      3  N3         9.7540    8.1820   27.1220 N.2   139  UMP139     -0.2452
      4  C4         9.2690    6.9000   26.8890 C.1   139  UMP139      0.2182
      5  C5        10.0350    5.8530   27.4790 C.2   139  UMP139      0.1242
      6  C6        11.1280    6.2240   28.2070 C.2   139  UMP139      0.0928
      7  O2        11.0800    9.6390   27.9600 O.2   139  UMP139     -0.1918
      8  O4         8.3000    6.6770   26.2360 O.2   139  UMP139     -0.2085
      9  C1'       12.6900    7.6340   29.2100 C.3   139  UMP139      0.2090
     10  C2'       12.5690    7.7020   30.8040 C.3   139  UMP139      0.0874
     11  C3'       13.1330    6.3950   31.2910 C.3   139  UMP139      0.1857
     12  C4'       14.1070    6.0130   30.1700 C.3   139  UMP139      0.1774
     13  O3'       13.7300    6.3740   32.5810 O.3   139  UMP139     -0.2203
     14  O4'       13.7230    6.6240   28.9380 O.3   139  UMP139     -0.3339
     15  C5'       14.2190    4.6040   30.0860 C.3   139  UMP139      0.1858
     16  O5'       14.5770    3.9550   29.0110 O.3   139  UMP139     -0.2675
     17  P         14.0890    2.5180   28.5010 P.3   139  UMP139      0.5327
     18  OP1       14.8540    2.1130   27.3190 O.2   139  UMP139     -0.2224
     19  OP2       12.5430    2.7510   28.0700 O.3   139  UMP139     -0.1145
     20  OP3       14.2430    1.6490   29.7560 O.3   139  UMP139     -0.1145
@<TRIPOS>BOND
     1     8     4    2
     2     4     3    2
     3     4     5    1
     4     3     2    2
     5    18    17    2
     6     5     6    2
     7     2     7    2
     8     2     1   am
     9    19    17    1
    10     6     1    1
    11     1     9    1
    12    17    16    1
    13    17    20    1
    14    14     9    1
    15    14    12    1
    16    16    15    1
    17     9    10    1
    18    15    12    1
    19    12    11    1
    20    10    11    1
    21    11    13    1
