@<TRIPOS>MOLECULE
1f7p_UDP_A_1.pdb
 24 25 0 0 0
SMALL
GASTEIGER

@<TRIPOS>ATOM
      1  N1        39.9940   10.4560   13.3890 N.am  701  UDP701     -0.1790
      2  C2        39.5650    9.5740   14.2950 C.1   701  UDP701      0.2844
      3  N3        38.1980    9.3460   14.3610 N.2   701  UDP701     -0.2452
      4  C4        37.2280    9.9610   13.5760 C.1   701  UDP701      0.2182
      5  C5        37.6870   10.9320   12.5920 C.2   701  UDP701      0.1242
      6  C6        39.0150   11.1820   12.4890 C.2   701  UDP701      0.0928
      7  O2        40.3420    9.0070   15.0040 O.2   701  UDP701     -0.1918
      8  O4        36.0830    9.6330   13.7730 O.2   701  UDP701     -0.2085
      9  C1'       41.3540   10.9260   13.0440 C.3   701  UDP701      0.2090
     10  C2'       42.0280    9.8370   12.2620 C.3   701  UDP701      0.0874
     11  C3'       42.2290   10.5440   10.9450 C.3   701  UDP701      0.1857
     12  C4'       42.8860   11.7660   11.5340 C.3   701  UDP701      0.1773
     13  O4'       41.9260   12.1410   12.5240 O.3   701  UDP701     -0.3339
     14  O3'       43.1630    9.8090   10.1210 O.3   701  UDP701     -0.2203
     15  C5'       42.9260   13.2630   11.1620 C.3   701  UDP701      0.1812
     16  O5'       41.7620   13.6210   10.2400 O.3   701  UDP701     -0.3111
     17  PA        41.9790   15.1930    9.9390 P.3   701  UDP701      0.2231
     18  O1A       43.1640   15.8550   10.6070 O.3   701  UDP701     -0.4370
     19  O2A       41.8970   15.3660    8.4670 O.2   701  UDP701     -0.5169
     20  O3A       40.5760   15.9880   10.0720 O.3   701  UDP701     -0.2261
     21  PB        39.0990   15.6410    9.5980 P.3   701  UDP701      0.5373
     22  O1B       38.7230   14.3710   10.2640 O.3   701  UDP701     -0.1143
     23  O2B       39.0700   15.4890    8.0000 O.2   701  UDP701     -0.2221
     24  O3B       38.2270   16.7390   10.0840 O.3   701  UDP701     -0.1143
@<TRIPOS>BOND
     1    23    21    2
     2    19    17    2
     3    21    20    1
     4    21    24    1
     5    21    22    1
     6    17    20    1
     7    17    16    1
     8    17    18    1
     9    14    11    1
    10    16    15    1
    11    11    12    1
    12    11    10    1
    13    15    12    1
    14    12    13    1
    15    10     9    1
    16     6     5    2
    17     6     1    1
    18    13     9    1
    19     5     4    1
    20     9     1    1
    21     1     2   am
    22     4     8    2
    23     4     3    2
    24     2     3    2
    25     2     7    2
