@<TRIPOS>MOLECULE
1f7q_DUT_A_1.pdb
 28 29 0 0 0
SMALL
GASTEIGER

@<TRIPOS>ATOM
      1  N1        39.5990   10.4750   13.3940 N.am  802  DUT802     -0.1790
      2  C2        39.2350    9.6250   14.3510 C.1   802  DUT802      0.2844
      3  N3        37.9000    9.2400   14.3850 N.2   802  DUT802     -0.2452
      4  C4        36.9010    9.6590   13.4990 C.1   802  DUT802      0.2182
      5  C5        37.2990   10.5850   12.4560 C.2   802  DUT802      0.1242
      6  C6        38.5950   10.9830   12.3950 C.2   802  DUT802      0.0928
      7  O2        40.0410    9.2170   15.1490 O.2   802  DUT802     -0.1918
      8  O4        35.7930    9.2220   13.6680 O.2   802  DUT802     -0.2085
      9  C1'       40.8910   11.1030   13.0290 C.3   802  DUT802      0.2090
     10  C2'       41.7960   10.0200   12.5790 C.3   802  DUT802      0.0874
     11  C3'       42.2170   10.4400   11.1780 C.3   802  DUT802      0.1857
     12  C4'       42.2970   11.9490   11.3120 C.3   802  DUT802      0.1773
     13  O4'       41.2250   12.2630   12.2320 O.3   802  DUT802     -0.3339
     14  O3'       42.5720    9.9300    9.8810 O.3   802  DUT802     -0.2203
     15  C5'       41.7900   13.0730   10.3820 C.3   802  DUT802      0.1812
     16  O5'       40.2790   13.3890   10.5900 O.3   802  DUT802     -0.3112
     17  PA        39.9670   14.5220    9.5100 P.3   802  DUT802      0.2189
     18  O1A       41.1480   14.9010    8.6670 O.2   802  DUT802     -0.5170
     19  O2A       38.7440   14.1150    8.7690 O.3   802  DUT802     -0.4371
     20  O3A       39.1360   15.7970   10.1190 O.3   802  DUT802     -0.2700
     21  PB        39.4650   17.3810    9.9300 P.3   802  DUT802      0.2277
     22  O1B       38.2740   18.0040    9.2830 O.2   802  DUT802     -0.5168
     23  O2B       39.5910   17.9000   11.3210 O.3   802  DUT802     -0.4368
     24  O3B       40.8210   17.6670    9.0500 O.3   802  DUT802     -0.2258
     25  PG        41.5140   18.3900    7.6980 P.3   802  DUT802      0.5373
     26  O1G       41.7750   17.0520    7.1150 O.3   802  DUT802     -0.1143
     27  O2G       42.8500   18.9650    8.0580 O.3   802  DUT802     -0.1143
     28  O3G       40.8550   19.2150    6.5880 O.2   802  DUT802     -0.2221
@<TRIPOS>BOND
     1    28    25    2
     2    26    25    1
     3    25    27    1
     4    25    24    1
     5    18    17    2
     6    19    17    1
     7    24    21    1
     8    22    21    2
     9    17    20    1
    10    17    16    1
    11    14    11    1
    12    21    20    1
    13    21    23    1
    14    15    16    1
    15    15    12    1
    16    11    12    1
    17    11    10    1
    18    12    13    1
    19    13     9    1
    20     6     5    2
    21     6     1    1
    22     5     4    1
    23    10     9    1
    24     9     1    1
    25     1     2   am
    26     4     8    2
    27     4     3    2
    28     2     3    2
    29     2     7    2
