@<TRIPOS>MOLECULE
1f7r_UDP_A_1.pdb
 24 25 0 0 0
SMALL
GASTEIGER

@<TRIPOS>ATOM
      1  N1        43.0000   23.5140   30.0800 N.am  138  UDP138     -0.1790
      2  C2        43.7920   23.1830   31.2100 C.1   138  UDP138      0.2844
      3  N3        44.1200   21.8270   31.3220 N.2   138  UDP138     -0.2452
      4  C4        43.7240   20.8000   30.4460 C.1   138  UDP138      0.2182
      5  C5        42.8960   21.2050   29.2940 C.2   138  UDP138      0.1242
      6  C6        42.5650   22.5210   29.1570 C.2   138  UDP138      0.0928
      7  O2        44.1870   24.0020   32.0250 O.2   138  UDP138     -0.1918
      8  O4        44.0880   19.6700   30.6860 O.2   138  UDP138     -0.2085
      9  C1'       42.6070   24.9430   29.8840 C.3   138  UDP138      0.2090
     10  C2'       43.6120   25.7070   29.0130 C.3   138  UDP138      0.0874
     11  C3'       42.8880   25.8630   27.7020 C.3   138  UDP138      0.1857
     12  C4'       41.4330   25.8850   28.0840 C.3   138  UDP138      0.1773
     13  O4'       41.3240   25.0790   29.2900 O.3   138  UDP138     -0.3339
     14  O3'       43.1940   27.0830   27.0660 O.3   138  UDP138     -0.2203
     15  C5'       40.5530   25.2800   27.0120 C.3   138  UDP138      0.1812
     16  O5'       39.2590   25.3230   27.4300 O.3   138  UDP138     -0.3111
     17  PA        38.0090   25.5880   26.4350 P.3   138  UDP138      0.2231
     18  O1A       36.7670   25.7500   27.2060 O.3   138  UDP138     -0.4370
     19  O2A       38.2910   26.7160   25.5740 O.2   138  UDP138     -0.5169
     20  O3A       37.8730   24.3660   25.5170 O.3   138  UDP138     -0.2261
     21  PB        38.0170   22.8290   25.7750 P.3   138  UDP138      0.5373
     22  O1B       36.8060   22.3940   26.5870 O.3   138  UDP138     -0.1143
     23  O2B       39.4000   22.4390   26.4600 O.3   138  UDP138     -0.1143
     24  O3B       38.0400   22.2580   24.3790 O.2   138  UDP138     -0.2221
@<TRIPOS>BOND
     1    24    21    2
     2    20    21    1
     3    20    17    1
     4    19    17    2
     5    21    23    1
     6    21    22    1
     7    17    18    1
     8    17    16    1
     9    15    16    1
    10    15    12    1
    11    14    11    1
    12    11    12    1
    13    11    10    1
    14    12    13    1
    15    10     9    1
    16     6     5    2
    17     6     1    1
    18    13     9    1
    19     5     4    1
    20     9     1    1
    21     1     2   am
    22     4     8    2
    23     4     3    2
    24     2     3    2
    25     2     7    2
