@<TRIPOS>MOLECULE
1f7u_ARG_A_1.pdb
 12 11 0 0 0
SMALL
GASTEIGER

@<TRIPOS>ATOM
      1  N         23.7130   30.5050    1.3530 N.3   800  ARG800     -0.1208
      2  CA        22.9210   30.5240    2.5820 C.3   800  ARG800      0.1944
      3  C         23.0800   31.8500    3.3190 C.2   800  ARG800      0.3819
      4  O         24.0890   32.5370    3.0470 O.co2 800  ARG800     -0.2441
      5  CB        23.3420   29.3730    3.5010 C.3   800  ARG800      0.0343
      6  CG        23.1120   27.9880    2.9130 C.3   800  ARG800      0.0490
      7  CD        23.3960   26.8950    3.9390 C.3   800  ARG800      0.2205
      8  NE        23.2010   25.5580    3.3850 N.pl3 800  ARG800     -0.0865
      9  CZ        22.0190   25.0430    3.0510 C.cat 800  ARG800      0.5346
     10  NH1       20.9090   25.7480    3.2170 N.pl3 800  ARG800      0.1354
     11  NH2       21.9490   23.8200    2.5440 N.pl3 800  ARG800      0.1354
     12  OXT       22.4180   32.0000    4.3680 O.co2 800  ARG800     -0.2441
@<TRIPOS>BOND
     1     1     2    1
     2    11     9    1
     3     2     3    1
     4     2     5    1
     5     6     5    1
     6     6     7    1
     7     4     3   ar
     8     9    10    1
     9     9     8    2
    10     3    12   ar
    11     8     7    1
