@<TRIPOS>MOLECULE
1f86_T44_A_1.pdb
 19 20 0 0 0
SMALL
GASTEIGER

@<TRIPOS>ATOM
      1  C1        21.5120   44.4150   32.4500 C.ar  428  T44428     -0.0208
      2  C2        22.5030   44.6790   33.3920 C.ar  428  T44428      0.0046
      3  C3        22.6020   43.8860   34.5280 C.ar  428  T44428      0.0647
      4  C4        21.7480   42.8360   34.7800 C.ar  428  T44428      0.1558
      5  C5        20.8010   42.5720   33.8110 C.ar  428  T44428      0.0647
      6  C6        20.7420   43.3080   32.6430 C.ar  428  T44428      0.0046
      7  C7        21.3320   45.1920   31.2230 C.3   428  T44428      0.0311
      8  C1'       21.3520   42.4960   36.9740 C.ar  428  T44428      0.1464
      9  C2'       20.6830   43.6190   37.2240 C.ar  428  T44428      0.0465
     10  C3'       20.2180   43.8130   38.5250 C.ar  428  T44428      0.0724
     11  C4'       20.4340   42.9340   39.5920 C.ar  428  T44428      0.2064
     12  C5'       21.0920   41.7300   39.2980 C.ar  428  T44428      0.0724
     13  C6'       21.5450   41.5090   37.9770 C.ar  428  T44428      0.0465
     14  O4        21.9880   42.0150   35.8560 O.3   428  T44428     -0.4526
     15  O4'       19.9690   43.3270   40.7800 O.3   428  T44428     -0.2857
     16  I3        24.0870   44.3850   35.9060 I     428  T44428     -0.0393
     17  I3'       19.1420   45.5710   38.8230 I     428  T44428     -0.0391
     18  I5        19.2850   41.1430   33.9880 I     428  T44428     -0.0393
     19  I5'       21.3810   40.3110   40.8550 I     428  T44428     -0.0391
@<TRIPOS>BOND
     1     7     1    1
     2     1     6   ar
     3     1     2   ar
     4     6     5   ar
     5     2     3   ar
     6     5    18    1
     7     5     4   ar
     8     3     4   ar
     9     3    16    1
    10     4    14    1
    11    14     8    1
    12     8     9   ar
    13     8    13   ar
    14     9    10   ar
    15    13    12   ar
    16    10    17    1
    17    10    11   ar
    18    12    11   ar
    19    12    19    1
    20    11    15    1
