@<TRIPOS>MOLECULE
1f88_RET_A_1.pdb
 20 20 0 0 0
SMALL
GASTEIGER

@<TRIPOS>ATOM
      1  C1        62.3350    6.7060   -9.3740 C.3   977  RET977      0.0183
      2  C2        63.4570    6.2670   -8.4640 C.3   977  RET977      0.0044
      3  C3        63.1920    6.5980   -7.0270 C.3   977  RET977      0.0047
      4  C4        63.0180    8.1320   -6.8210 C.3   977  RET977      0.0217
      5  C5        62.2020    8.7980   -7.9300 C.2   977  RET977     -0.0479
      6  C6        61.9030    8.1390   -9.0820 C.2   977  RET977     -0.0307
      7  C7        61.1080    8.7530  -10.1750 C.2   977  RET977     -0.0052
      8  C8        59.8450    9.1780   -9.9070 C.2   977  RET977     -0.0046
      9  C9        58.8700    9.8210  -10.8130 C.2   977  RET977     -0.0219
     10  C10       57.6260   10.2110  -10.4240 C.2   977  RET977     -0.0043
     11  C11       56.5820   10.8710  -11.2360 C.2   977  RET977     -0.0007
     12  C12       55.3350   11.2430  -10.8480 C.2   977  RET977     -0.0046
     13  C13       54.5400   11.1540   -9.5860 C.2   977  RET977     -0.0261
     14  C14       53.3730   11.7880   -9.4520 C.2   977  RET977     -0.0300
     15  C15       52.5450   11.7200   -8.2320 C.3   977  RET977      0.0304
     16  C16       62.8150    6.6050  -10.7930 C.3   977  RET977      0.0043
     17  C17       61.1440    5.7480   -9.2260 C.3   977  RET977      0.0043
     18  C18       61.7650   10.2250   -7.6020 C.3   977  RET977      0.0260
     19  C19       59.4020    9.9980  -12.1980 C.3   977  RET977      0.0310
     20  C20       55.1030   10.3030   -8.4820 C.3   977  RET977      0.0307
@<TRIPOS>BOND
     1    19     9    1
     2    11    12    2
     3    11    10    1
     4    12    13    1
     5     9    10    2
     6     9     8    1
     7    16     1    1
     8     7     8    2
     9     7     6    1
    10    13    14    2
    11    13    20    1
    12    14    15    1
    13     1    17    1
    14     1     6    1
    15     1     2    1
    16     6     5    2
    17     2     3    1
    18     5    18    1
    19     5     4    1
    20     3     4    1
