@<TRIPOS>MOLECULE
1f8b_NAG_A_1.pdb
 14 14 0 0 0
SMALL
GASTEIGER

@<TRIPOS>ATOM
      1  C1        39.7210    1.8400   58.4860 C.3   469  NAG469      0.1665
      2  C2        40.6350    1.2250   59.5890 C.3   469  NAG469      0.1576
      3  C3        41.6380    0.2730   59.0130 C.3   469  NAG469      0.2069
      4  C4        40.9020   -0.7890   58.2260 C.3   469  NAG469      0.2134
      5  C5        40.0950   -0.0890   57.0590 C.3   469  NAG469      0.1809
      6  C6        39.3340   -1.0190   56.2100 C.3   469  NAG469      0.2141
      7  C7        41.3560    2.5980   61.4790 C.2   469  NAG469      0.2420
      8  C8        42.1610    3.8580   61.8040 C.3   469  NAG469      0.0964
      9  N2        41.3360    2.3430   60.1720 N.am  469  NAG469     -0.2019
     10  O3        42.3160   -0.3250   60.1050 O.3   469  NAG469     -0.2184
     11  O4        41.9200   -1.6920   57.7290 O.3   469  NAG469     -0.2176
     12  O5        39.1700    0.8250   57.6170 O.3   469  NAG469     -0.3489
     13  O6        38.6840   -1.9990   56.9790 O.3   469  NAG469     -0.2176
     14  O7        40.7950    1.8890   62.3280 O.2   469  NAG469     -0.2733
@<TRIPOS>BOND
     1     6    13    1
     2     6     5    1
     3     5    12    1
     4     5     4    1
     5    12     1    1
     6    11     4    1
     7     4     3    1
     8     1     2    1
     9     3     2    1
    10     3    10    1
    11     2     9    1
    12     9     7   am
    13     7     8    1
    14     7    14    2
