@<TRIPOS>MOLECULE
1f8b_DAN_A_1.pdb
 20 20 0 0 0
SMALL
GASTEIGER

@<TRIPOS>ATOM
      1  C1        23.5900   19.8170   64.7510 C.2     0  DAN0        0.4208
      2  C2        24.2140   18.8270   63.9990 C.2     0  DAN0        0.2163
      3  C3        23.6030   17.6610   63.6220 C.2     0  DAN0        0.0518
      4  C4        24.2540   16.6260   62.6510 C.3     0  DAN0        0.2007
      5  C5        25.7790   16.7630   62.6410 C.3     0  DAN0        0.1722
      6  C6        26.1590   18.2850   62.5250 C.3     0  DAN0        0.2215
      7  C7        27.7080   18.5040   62.6430 C.3     0  DAN0        0.2261
      8  C8        28.0510   19.9440   62.4810 C.3     0  DAN0        0.2185
      9  C9        29.5300   20.2110   62.8080 C.3     0  DAN0        0.2175
     10  C10       27.0810   14.9330   61.6470 C.2     0  DAN0        0.2420
     11  C11       27.5840   14.2060   60.4190 C.3     0  DAN0        0.0964
     12  N5        26.3170   16.0110   61.4920 N.am    0  DAN0       -0.2004
     13  O1A       24.1940   20.8920   64.9420 O.co2   0  DAN0       -0.2371
     14  O1B       22.4530   19.6280   65.2260 O.co2   0  DAN0       -0.2371
     15  O4        23.9190   15.3180   63.0330 O.3     0  DAN0       -0.2162
     16  O6        25.5330   19.0520   63.6170 O.2     0  DAN0       -0.4684
     17  O7        28.2370   18.1020   63.9050 O.3     0  DAN0       -0.2164
     18  O8        27.7740   20.3100   61.1710 O.3     0  DAN0       -0.2174
     19  O9        30.3970   19.5330   61.8950 O.3     0  DAN0       -0.2175
     20  O10       27.3990   14.4990   62.7490 O.2     0  DAN0       -0.2733
@<TRIPOS>BOND
     1    11    10    1
     2    18     8    1
     3    12    10   am
     4    12     5    1
     5    10    20    2
     6    19     9    1
     7     8     7    1
     8     8     9    1
     9     6     5    1
    10     6     7    1
    11     6    16    1
    12     5     4    1
    13     7    17    1
    14     4    15    1
    15     4     3    1
    16    16     2    1
    17     3     2    2
    18     2     1    1
    19     1    13   ar
    20     1    14   ar
