@<TRIPOS>MOLECULE
1f8c_NAG_A_1.pdb
 14 14 0 0 0
SMALL
GASTEIGER

@<TRIPOS>ATOM
      1  C1        39.7230    1.7370   58.4740 C.3   469  NAG469      0.1665
      2  C2        40.6620    1.1410   59.5810 C.3   469  NAG469      0.1576
      3  C3        41.6710    0.1890   58.9950 C.3   469  NAG469      0.2069
      4  C4        40.9160   -0.8750   58.1910 C.3   469  NAG469      0.2134
      5  C5        40.0410   -0.2160   57.0810 C.3   469  NAG469      0.1809
      6  C6        39.2500   -1.1790   56.2080 C.3   469  NAG469      0.2141
      7  C7        41.3720    2.4850   61.4740 C.2   469  NAG469      0.2420
      8  C8        42.1970    3.7280   61.7900 C.3   469  NAG469      0.0964
      9  N2        41.3710    2.2460   60.1640 N.am  469  NAG469     -0.2019
     10  O3        42.3730   -0.4070   60.0960 O.3   469  NAG469     -0.2184
     11  O4        41.8980   -1.7310   57.5860 O.3   469  NAG469     -0.2176
     12  O5        39.1250    0.6700   57.7190 O.3   469  NAG469     -0.3489
     13  O6        38.6280   -2.1980   56.9320 O.3   469  NAG469     -0.2176
     14  O7        40.7840    1.7790   62.3110 O.2   469  NAG469     -0.2733
@<TRIPOS>BOND
     1     6    13    1
     2     6     5    1
     3     5    12    1
     4     5     4    1
     5    11     4    1
     6    12     1    1
     7     4     3    1
     8     1     2    1
     9     3     2    1
    10     3    10    1
    11     2     9    1
    12     9     7   am
    13     7     8    1
    14     7    14    2
