@<TRIPOS>MOLECULE
1f8c_4AM_A_1.pdb
 20 20 0 0 0
SMALL
GASTEIGER

@<TRIPOS>ATOM
      1  C1        23.6220   19.8430   64.7310 C.2     4  4AM4        0.4208
      2  O1A       24.2570   20.9160   64.8860 O.co2   4  4AM4       -0.2371
      3  O1B       22.4850   19.6690   65.2240 O.co2   4  4AM4       -0.2371
      4  C2        24.2210   18.8310   63.9840 C.2     4  4AM4        0.2152
      5  C3        23.5600   17.6820   63.5700 C.2     4  4AM4        0.0381
      6  C4        24.2010   16.6430   62.6040 C.3     4  4AM4        0.1405
      7  N4        23.7390   15.3230   63.0390 N.3     4  4AM4       -0.1261
      8  C5        25.7310   16.7040   62.6890 C.3     4  4AM4        0.1594
      9  N5        26.2920   15.9280   61.5680 N.am    4  4AM4       -0.2015
     10  C10       26.9500   14.7930   61.7730 C.2     4  4AM4        0.2420
     11  O10       27.1520   14.3300   62.8950 O.2     4  4AM4       -0.2733
     12  C11       27.4640   14.0820   60.5440 C.3     4  4AM4        0.0964
     13  C6        26.1990   18.1920   62.5950 C.3     4  4AM4        0.2204
     14  O6        25.5900   18.9820   63.6860 O.2     4  4AM4       -0.4685
     15  C7        27.7650   18.3640   62.7240 C.3     4  4AM4        0.2261
     16  O7        28.1620   17.9130   64.0430 O.3     4  4AM4       -0.2164
     17  C8        28.1250   19.8500   62.5530 C.3     4  4AM4        0.2185
     18  O8        27.7280   20.2830   61.2890 O.3     4  4AM4       -0.2174
     19  C9        29.6270   20.1300   62.7320 C.3     4  4AM4        0.2175
     20  O9        30.4300   19.4150   61.8240 O.3     4  4AM4       -0.2175
@<TRIPOS>BOND
     1    12    10    1
     2    18    17    1
     3     9    10   am
     4     9     8    1
     5    10    11    2
     6    20    19    1
     7    17    15    1
     8    17    19    1
     9    13     8    1
    10    13    15    1
    11    13    14    1
    12     6     8    1
    13     6     7    1
    14     6     5    1
    15    15    16    1
    16     5     4    2
    17    14     4    1
    18     4     1    1
    19     1     2   ar
    20     1     3   ar
