@<TRIPOS>MOLECULE
1f8d_NAG_A_1.pdb
 14 14 0 0 0
SMALL
GASTEIGER

@<TRIPOS>ATOM
      1  C1        39.7210    1.7910   58.4200 C.3   469  NAG469      0.1665
      2  C2        40.6180    1.1720   59.5380 C.3   469  NAG469      0.1576
      3  C3        41.6120    0.1980   58.9770 C.3   469  NAG469      0.2069
      4  C4        40.8540   -0.8630   58.1640 C.3   469  NAG469      0.2134
      5  C5        40.0150   -0.1790   57.0480 C.3   469  NAG469      0.1809
      6  C6        39.2200   -1.1050   56.1650 C.3   469  NAG469      0.2141
      7  C7        41.2830    2.5590   61.3730 C.2   469  NAG469      0.2420
      8  C8        42.1240    3.7940   61.6500 C.3   469  NAG469      0.0964
      9  N2        41.3350    2.2790   60.0770 N.am  469  NAG469     -0.2019
     10  O3        42.3150   -0.4070   60.0750 O.3   469  NAG469     -0.2184
     11  O4        41.8360   -1.7480   57.5720 O.3   469  NAG469     -0.2176
     12  O5        39.1150    0.7190   57.6900 O.3   469  NAG469     -0.3489
     13  O6        38.5560   -2.1130   56.9070 O.3   469  NAG469     -0.2176
     14  O7        40.6390    1.8960   62.2000 O.2   469  NAG469     -0.2733
@<TRIPOS>BOND
     1     6    13    1
     2     6     5    1
     3     5    12    1
     4     5     4    1
     5    11     4    1
     6    12     1    1
     7     4     3    1
     8     1     2    1
     9     3     2    1
    10     3    10    1
    11     2     9    1
    12     9     7   am
    13     7     8    1
    14     7    14    2
