@<TRIPOS>MOLECULE
1f8d_9AM_A_1.pdb
 20 20 0 0 0
SMALL
GASTEIGER

@<TRIPOS>ATOM
      1  C1        23.5140   19.7240   64.7280 C.2     0  9AM0        0.4208
      2  C2        24.0900   18.7100   63.9710 C.2     0  9AM0        0.2163
      3  C3        23.4920   17.5310   63.6410 C.2     0  9AM0        0.0518
      4  C4        24.1140   16.5690   62.5990 C.3     0  9AM0        0.2007
      5  C5        25.6390   16.6600   62.6260 C.3     0  9AM0        0.1722
      6  C6        26.0380   18.1480   62.5020 C.3     0  9AM0        0.2214
      7  C7        27.5880   18.4190   62.6030 C.3     0  9AM0        0.2250
      8  C8        27.8270   19.8870   62.2920 C.3     0  9AM0        0.2047
      9  C9        29.1570   20.4070   62.8100 C.3     0  9AM0        0.1448
     10  C10       27.0300   14.8540   61.6660 C.2     0  9AM0        0.2420
     11  C11       27.5130   14.1200   60.4010 C.3     0  9AM0        0.0964
     12  N5        26.1980   15.8800   61.5060 N.am    0  9AM0       -0.2004
     13  O1A       24.2170   20.7420   64.9230 O.co2   0  9AM0       -0.2371
     14  O1B       22.3550   19.6200   65.1890 O.co2   0  9AM0       -0.2371
     15  O4        23.7050   15.2960   62.9580 O.3     0  9AM0       -0.2162
     16  O6        25.4090   18.9120   63.5900 O.2     0  9AM0       -0.4684
     17  O7        27.9620   18.1150   63.9680 O.3     0  9AM0       -0.2164
     18  O8        27.7890   20.0350   60.9250 O.3     0  9AM0       -0.2187
     19  N9        30.3180   19.6480   62.2720 N.3     0  9AM0       -0.1285
     20  O10       27.4240   14.4780   62.7700 O.2     0  9AM0       -0.2733
@<TRIPOS>BOND
     1    11    10    1
     2    18     8    1
     3    12    10   am
     4    12     5    1
     5    10    20    2
     6    19     9    1
     7     8     7    1
     8     8     9    1
     9     6     7    1
    10     6     5    1
    11     6    16    1
    12     4     5    1
    13     4    15    1
    14     4     3    1
    15     7    17    1
    16    16     2    1
    17     3     2    2
    18     2     1    1
    19     1    13   ar
    20     1    14   ar
