@<TRIPOS>MOLECULE
1f8e_49A_A_1.pdb
 20 20 0 0 0
SMALL
GASTEIGER

@<TRIPOS>ATOM
      1  C1        23.5370   19.8410   64.7380 C.2     0  49A0        0.4208
      2  C2        24.1250   18.7730   64.0580 C.2     0  49A0        0.2152
      3  C3        23.4520   17.6490   63.6220 C.2     0  49A0        0.0381
      4  C4        24.1130   16.6520   62.6490 C.3     0  49A0        0.1405
      5  C5        25.6290   16.6840   62.7420 C.3     0  49A0        0.1594
      6  C6        26.0790   18.1690   62.6850 C.3     0  49A0        0.2203
      7  C7        27.6420   18.3860   62.8000 C.3     0  49A0        0.2249
      8  C8        27.9270   19.8710   62.5510 C.3     0  49A0        0.2047
      9  C9        29.3330   20.2820   62.9920 C.3     0  49A0        0.1448
     10  C10       26.9630   14.8260   61.8030 C.2     0  49A0        0.2420
     11  C11       27.5060   14.1840   60.5530 C.3     0  49A0        0.0964
     12  N5        26.2370   15.9270   61.6270 N.am    0  49A0       -0.2015
     13  O1A       24.2410   20.8580   64.9270 O.co2   0  49A0       -0.2371
     14  O1B       22.3570   19.7650   65.1340 O.co2   0  49A0       -0.2371
     15  N4        23.6780   15.2990   63.0060 N.3     0  49A0       -0.1261
     16  O6        25.4800   18.8980   63.7870 O.2     0  49A0       -0.4685
     17  O7        28.1110   17.9780   64.1020 O.3     0  49A0       -0.2164
     18  O8        27.7800   20.1390   61.1890 O.3     0  49A0       -0.2187
     19  N9        30.3930   19.6150   62.1900 N.3     0  49A0       -0.1285
     20  O10       27.1870   14.3390   62.9110 O.2     0  49A0       -0.2733
@<TRIPOS>BOND
     1    11    10    1
     2    18     8    1
     3    12    10   am
     4    12     5    1
     5    10    20    2
     6    19     9    1
     7     8     7    1
     8     8     9    1
     9     4     5    1
    10     4    15    1
    11     4     3    1
    12     6     5    1
    13     6     7    1
    14     6    16    1
    15     7    17    1
    16     3     2    2
    17    16     2    1
    18     2     1    1
    19     1    13   ar
    20     1    14   ar
