@<TRIPOS>MOLECULE
1f8e_NAG_A_1.pdb
 14 14 0 0 0
SMALL
GASTEIGER

@<TRIPOS>ATOM
      1  C1        39.7670    1.7880   58.4850 C.3   469  NAG469      0.1665
      2  C2        40.6890    1.1970   59.6010 C.3   469  NAG469      0.1576
      3  C3        41.6810    0.1880   59.0280 C.3   469  NAG469      0.2069
      4  C4        40.9150   -0.8770   58.2400 C.3   469  NAG469      0.2134
      5  C5        40.0590   -0.1810   57.1260 C.3   469  NAG469      0.1809
      6  C6        39.2780   -1.1270   56.2510 C.3   469  NAG469      0.2141
      7  C7        41.4180    2.5660   61.4320 C.2   469  NAG469      0.2420
      8  C8        42.2820    3.7810   61.7020 C.3   469  NAG469      0.0964
      9  N2        41.4310    2.2990   60.1320 N.am  469  NAG469     -0.2019
     10  O3        42.3840   -0.4290   60.1050 O.3   469  NAG469     -0.2184
     11  O4        41.9080   -1.7410   57.6550 O.3   469  NAG469     -0.2176
     12  O5        39.1630    0.6900   57.7930 O.3   469  NAG469     -0.3489
     13  O6        38.6140   -2.1030   56.9960 O.3   469  NAG469     -0.2176
     14  O7        40.7860    1.9020   62.2590 O.2   469  NAG469     -0.2733
@<TRIPOS>BOND
     1     6    13    1
     2     6     5    1
     3     5    12    1
     4     5     4    1
     5    11     4    1
     6    12     1    1
     7     4     3    1
     8     1     2    1
     9     3     2    1
    10     3    10    1
    11     2     9    1
    12     9     7   am
    13     7     8    1
    14     7    14    2
