@<TRIPOS>MOLECULE
1f8f_NAD_A_1.pdb
 44 48 0 0 0
SMALL
GASTEIGER

@<TRIPOS>ATOM
      1  PA        22.5840   28.7710   11.9280 P.3   375  NAD375      0.2189
      2  O1A       21.6600   27.6680   12.3440 O.3   375  NAD375     -0.4371
      3  O2A       23.9910   28.6780   12.3430 O.2   375  NAD375     -0.5170
      4  O5B       22.4200   29.0740   10.3790 O.3   375  NAD375     -0.3112
      5  C5B       23.2060   29.8720    9.4610 C.3   375  NAD375      0.1813
      6  C4B       23.6710   29.0380    8.2760 C.3   375  NAD375      0.1821
      7  O4B       24.5680   29.8500    7.4460 O.3   375  NAD375     -0.3135
      8  C3B       24.4420   27.7440    8.5890 C.3   375  NAD375      0.2184
      9  O3B       23.7360   26.5860    8.1630 O.3   375  NAD375     -0.2174
     10  C2B       25.7580   27.8380    7.8210 C.3   375  NAD375      0.2570
     11  O2B       26.1640   26.6360    7.1540 O.3   375  NAD375     -0.2130
     12  C1B       25.4370   28.9400    6.7970 C.3   375  NAD375      0.3186
     13  N9A       26.5990   29.6710    6.3020 N.pl3 375  NAD375     -0.1439
     14  C8A       27.5740   30.3250    7.0100 C.3   375  NAD375      0.3377
     15  N7A       28.4930   30.8920    6.2280 N.2   375  NAD375     -0.2095
     16  C5A       28.0850   30.5670    4.9460 C.2   375  NAD375      0.2526
     17  C6A       28.6200   30.8550    3.6770 C.2   375  NAD375      0.4393
     18  N6A       29.7160   31.5730    3.4490 N.pl3 375  NAD375      0.2180
     19  N1A       27.9470   30.3860    2.5950 N.2   375  NAD375      0.0021
     20  C2A       26.8120   29.6470    2.7920 C.3   375  NAD375      0.5254
     21  N3A       26.2400   29.3330    3.9160 N.2   375  NAD375     -0.0055
     22  C4A       26.9290   29.8130    4.9670 C.2   375  NAD375      0.3518
     23  O3        21.9350   30.1370   12.5380 O.3   375  NAD375     -0.2703
     24  PN        20.3810   30.4840   12.6220 P.3   375  NAD375      0.2189
     25  O1N       19.6780   30.0460   11.4020 O.2   375  NAD375     -0.5170
     26  O2N       19.8270   29.9180   13.8600 O.3   375  NAD375     -0.4371
     27  O5D       20.4990   32.1040   12.7160 O.3   375  NAD375     -0.3112
     28  C5D       20.7310   32.8540   11.5120 C.3   375  NAD375      0.1813
     29  C4D       21.2580   34.2280   11.7150 C.3   375  NAD375      0.1799
     30  O4D       20.1980   35.2090   11.9540 O.3   375  NAD375     -0.3327
     31  C3D       22.3750   34.5470   12.7160 C.3   375  NAD375      0.2158
     32  O3D       23.1210   35.6770   12.2240 O.3   375  NAD375     -0.2175
     33  C2D       21.5340   35.0470   13.8990 C.3   375  NAD375      0.2309
     34  O2D       22.2780   35.7140   14.9070 O.3   375  NAD375     -0.2158
     35  C1D       20.6410   35.9880   13.0770 C.3   375  NAD375      0.2261
     36  N1N       19.4150   36.2960   13.8060 N.pl3 375  NAD375     -0.2831
     37  C2N       18.8000   37.4570   13.4640 C.2   375  NAD375      0.0633
     38  C3N       17.6060   37.7710   14.0840 C.2   375  NAD375      0.0490
     39  C7N       16.7940   39.0740   13.7560 C.2   375  NAD375      0.2814
     40  O7N       15.7540   39.3040   14.3710 O.2   375  NAD375     -0.2670
     41  N7N       17.3390   39.8690   12.7670 N.am  375  NAD375     -0.0839
     42  C4N       17.0170   36.8830   15.0320 C.3   375  NAD375      0.0341
     43  C5N       17.4480   35.5540   14.8270 C.3   375  NAD375      0.0264
     44  C6N       18.6410   35.1780   14.2460 C.3   375  NAD375      0.0934
@<TRIPOS>BOND
     1    19    20    1
     2    19    17    2
     3    20    21    1
     4    18    17    1
     5    17    16    1
     6    21    22    2
     7    16    22    1
     8    16    15    2
     9    22    13    1
    10    15    14    1
    11    13    12    1
    12    13    14    1
    13    12     7    1
    14    12    10    1
    15    11    10    1
    16     7     6    1
    17    10     8    1
    18     9     8    1
    19     6     8    1
    20     6     5    1
    21     5     4    1
    22     4     1    1
    23    25    24    2
    24    28    29    1
    25    28    27    1
    26    29    30    1
    27    29    31    1
    28     1     3    2
    29     1     2    1
    30     1    23    1
    31    30    35    1
    32    32    31    1
    33    23    24    1
    34    24    27    1
    35    24    26    1
    36    31    33    1
    37    41    39   am
    38    35    36    1
    39    35    33    1
    40    37    36    1
    41    37    38    2
    42    39    38    1
    43    39    40    2
    44    36    44    1
    45    33    34    1
    46    38    42    1
    47    44    43    1
    48    43    42    1
