@<TRIPOS>MOLECULE
1f8g_NAD_A_1.pdb
 44 48 0 0 0
SMALL
GASTEIGER

@<TRIPOS>ATOM
      1  PA         2.2090   -5.9350    8.7300 P.3   2500  NAD2500     0.2189
      2  O1A        1.6850   -5.7770    7.3500 O.2   2500  NAD2500    -0.5170
      3  O2A        2.1380   -4.6340    9.4090 O.3   2500  NAD2500    -0.4371
      4  O5B        3.7410   -6.4020    8.7530 O.3   2500  NAD2500    -0.3112
      5  C5B        4.1560   -7.6240    8.0530 C.3   2500  NAD2500     0.1813
      6  C4B        5.0210   -8.4130    9.0340 C.3   2500  NAD2500     0.1821
      7  O4B        6.3230   -7.7100    9.0000 O.3   2500  NAD2500    -0.3135
      8  C3B        4.5810   -8.3900   10.5030 C.3   2500  NAD2500     0.2184
      9  O3B        4.3610   -9.6920   11.0410 O.3   2500  NAD2500    -0.2174
     10  C2B        5.7430   -7.7350   11.2470 C.3   2500  NAD2500     0.2570
     11  O2B        6.0370   -8.3090   12.5140 O.3   2500  NAD2500    -0.2130
     12  C1B        6.8940   -7.9180   10.2730 C.3   2500  NAD2500     0.3186
     13  N9A        8.0510   -7.0450   10.4620 N.pl3 2500  NAD2500    -0.1439
     14  C8A        8.1090   -5.7370   10.8260 C.3   2500  NAD2500     0.3377
     15  N7A        9.3560   -5.2760   10.8980 N.2   2500  NAD2500    -0.2095
     16  C5A       10.1330   -6.3560   10.5690 C.2   2500  NAD2500     0.2526
     17  C6A       11.5310   -6.5040   10.4660 C.2   2500  NAD2500     0.4393
     18  N6A       12.3520   -5.4900   10.7170 N.pl3 2500  NAD2500     0.2180
     19  N1A       12.0100   -7.7140   10.1160 N.2   2500  NAD2500     0.0021
     20  C2A       11.1050   -8.7200    9.8680 C.3   2500  NAD2500     0.5254
     21  N3A        9.8030   -8.6910    9.9300 N.2   2500  NAD2500    -0.0055
     22  C4A        9.3610   -7.4600   10.2950 C.2   2500  NAD2500     0.3518
     23  O3         1.5120   -7.1670    9.4720 O.3   2500  NAD2500    -0.2703
     24  PN         0.0720   -7.8390    9.3710 P.3   2500  NAD2500     0.2189
     25  O1N       -0.1380   -8.5050    8.0760 O.2   2500  NAD2500    -0.5170
     26  O2N       -0.9350   -6.7560    9.4990 O.3   2500  NAD2500    -0.4371
     27  O5D        0.1220   -8.8850   10.5650 O.3   2500  NAD2500    -0.3112
     28  C5D        0.4300   -8.5100   11.9150 C.3   2500  NAD2500     0.1813
     29  C4D       -0.3600   -9.3930   12.8640 C.3   2500  NAD2500     0.1799
     30  O4D       -1.6230   -8.7260   13.1380 O.3   2500  NAD2500    -0.3327
     31  C3D       -0.7310  -10.7880   12.3420 C.3   2500  NAD2500     0.2158
     32  O3D       -0.9030  -11.6510   13.4740 O.3   2500  NAD2500    -0.2175
     33  C2D       -2.1170  -10.4980   11.7310 C.3   2500  NAD2500     0.2309
     34  O2D       -2.8510  -11.7170   11.6130 O.3   2500  NAD2500    -0.2158
     35  C1D       -2.6830   -9.6370   12.8800 C.3   2500  NAD2500     0.2263
     36  N1N       -3.8160   -8.8140   12.4460 N.pl3 2500  NAD2500    -0.2787
     37  C2N       -3.5980   -7.9610   11.4110 C.3   2500  NAD2500     0.1244
     38  C3N       -4.6310   -7.1770   10.9680 C.2   2500  NAD2500     0.0544
     39  C7N       -4.5460   -6.1450    9.8020 C.2   2500  NAD2500     0.2818
     40  O7N       -5.1170   -5.0530    9.9150 O.2   2500  NAD2500    -0.2670
     41  N7N       -3.8290   -6.5210    8.7420 N.am  2500  NAD2500    -0.0839
     42  C4N       -5.9220   -7.2030   11.5430 C.2   2500  NAD2500     0.0033
     43  C5N       -6.0320   -8.1140   12.5960 C.2   2500  NAD2500     0.0157
     44  C6N       -5.0650   -8.9360   13.1020 C.2   2500  NAD2500     0.0633
@<TRIPOS>BOND
     1     2     1    2
     2     5     4    1
     3     5     6    1
     4    25    24    2
     5     1     4    1
     6     1     3    1
     7     1    23    1
     8    41    39   am
     9     7     6    1
    10     7    12    1
    11     6     8    1
    12    24    23    1
    13    24    26    1
    14    24    27    1
    15    39    40    2
    16    39    38    1
    17    20    21    1
    18    20    19    1
    19    21    22    2
    20    19    17    2
    21    12    13    1
    22    12    10    1
    23    22    13    1
    24    22    16    1
    25    13    14    1
    26    17    16    1
    27    17    18    1
    28     8     9    1
    29     8    10    1
    30    27    28    1
    31    16    15    2
    32    14    15    1
    33    38    37    1
    34    38    42    2
    35    10    11    1
    36    37    36    1
    37    42    43    1
    38    34    33    1
    39    33    31    1
    40    33    35    1
    41    28    29    1
    42    31    29    1
    43    31    32    1
    44    36    35    1
    45    36    44    1
    46    43    44    2
    47    29    30    1
    48    35    30    1
