@<TRIPOS>MOLECULE
1f8y_5MD_A_1.pdb
 17 18 0 0 0
SMALL
GASTEIGER

@<TRIPOS>ATOM
      1  O5'       56.6760   -7.8390  -22.1050 O.3   158  5MD158     -0.2176
      2  C5'       55.9300   -6.8330  -22.8530 C.3   158  5MD158      0.2140
      3  C4'       56.2760   -5.4290  -22.3120 C.3   158  5MD158      0.1786
      4  O4'       57.6830   -5.3110  -22.2740 O.3   158  5MD158     -0.3481
      5  C1'       58.2150   -4.7390  -23.4960 C.3   158  5MD158      0.1533
      6  C1        58.7960   -5.7190  -24.5260 C.2   158  5MD158      0.1155
      7  C6        58.8000   -7.0480  -24.2470 C.2   158  5MD158      0.0877
      8  C2        59.3000   -5.2420  -25.8320 C.1   158  5MD158      0.2157
      9  O2        59.4880   -4.1030  -26.2330 O.2   158  5MD158     -0.2087
     10  N3        59.7260   -6.2510  -26.6480 N.2   158  5MD158     -0.2455
     11  C4        59.7270   -7.5880  -26.3800 C.1   158  5MD158      0.2826
     12  O4        59.9800   -8.3350  -27.2870 O.2   158  5MD158     -0.1919
     13  N5        59.2540   -7.9790  -25.1480 N.am  158  5MD158     -0.2019
     14  C5        59.2540   -9.3810  -24.7520 C.3   158  5MD158      0.1317
     15  C3'       55.8180   -4.2790  -23.1440 C.3   158  5MD158      0.1843
     16  O3'       55.6390   -3.1410  -22.3240 O.3   158  5MD158     -0.2204
     17  C2'       57.0160   -3.9690  -23.9980 C.3   158  5MD158      0.0705
@<TRIPOS>BOND
     1    12    11    2
     2    10    11    2
     3    10     8    2
     4    11    13   am
     5     9     8    2
     6     8     6    1
     7    13    14    1
     8    13     7    1
     9     6     7    2
    10     6     5    1
    11    17     5    1
    12    17    15    1
    13     5     4    1
    14    15    16    1
    15    15     3    1
    16     2     3    1
    17     2     1    1
    18     3     4    1
