@<TRIPOS>MOLECULE
1f92_UKP_A_1.pdb
 43 45 0 0 0
SMALL
GASTEIGER

@<TRIPOS>ATOM
      1  N         31.6590    9.9960   27.9900 N.3   300  UKP300     -0.0696
      2  CA        30.2070    9.9320   28.0070 C.3   300  UKP300      0.1780
      3  CX        32.6280    4.2320   27.7640 C.2   300  UKP300      0.4766
      4  O         30.3990    9.0980   30.1770 O.2   300  UKP300     -0.2733
      5  CB        29.7540    8.7560   27.1090 C.3   300  UKP300      0.0550
      6  CG1       30.1480    7.0900   27.7780 C.ar  300  UKP300     -0.0200
      7  CD1       31.2820    6.3160   27.4730 C.ar  300  UKP300      0.0038
      8  CE1       31.4950    5.0290   28.0620 C.ar  300  UKP300      0.0972
      9  CZ        30.4890    4.5810   28.9770 C.ar  300  UKP300      0.0080
     10  CE2       29.3580    5.3590   29.2780 C.ar  300  UKP300     -0.0001
     11  CD2       29.1970    6.5990   28.6780 C.ar  300  UKP300     -0.0042
     12  NX1       32.5900    2.9900   27.7940 N.pl3 300  UKP300      0.2047
     13  NX2       33.8070    4.6630   27.4200 N.pl3 300  UKP300      0.2047
     14  C         29.6840    9.7800   29.4370 C.2   300  UKP300      0.2438
     15  C6        31.5900   12.6370   28.0800 C.ar  300  UKP300      0.1156
     16  C7        31.7500   12.8130   29.4820 C.ar  300  UKP300     -0.0045
     17  C8        31.0930   13.8770   30.1310 C.ar  300  UKP300     -0.0073
     18  C9        30.2750   14.7770   29.4330 C.ar  300  UKP300     -0.0231
     19  C10       30.1240   14.5950   28.0480 C.ar  300  UKP300     -0.0073
     20  C11       30.7610   13.5460   27.3510 C.ar  300  UKP300     -0.0045
     21  C12       32.6300   11.8780   30.3600 C.3   300  UKP300      0.0237
     22  C13       32.0080   11.3980   31.7110 C.3   300  UKP300      0.0047
     23  C14       33.9700   12.5970   30.6480 C.3   300  UKP300      0.0047
     24  C15       30.4990   13.4630   25.8130 C.3   300  UKP300      0.0237
     25  C16       29.2990   14.3090   25.2880 C.3   300  UKP300      0.0047
     26  C17       31.7960   13.8740   25.0610 C.3   300  UKP300      0.0047
     27  C18       29.5630   15.9340   30.1640 C.3   300  UKP300      0.0223
     28  C19       30.4990   16.5520   31.2360 C.3   300  UKP300      0.0047
     29  C20       28.2440   15.4270   30.8150 C.3   300  UKP300      0.0047
     30  S         32.4540   11.2360   27.2800 S.O2  300  UKP300      0.0766
     31  OS1       33.8460   11.1910   27.6990 O.2   300  UKP300     -0.1516
     32  OS2       32.2220   11.1400   25.8530 O.2   300  UKP300     -0.1516
     33  N1        28.5060   10.3520   29.8970 N.am  300  UKP300     -0.2748
     34  C1        28.1020   10.1310   31.2920 C.3   300  UKP300      0.1149
     35  C2        27.8850   11.5420   31.8800 C.3   300  UKP300      0.1149
     36  N2        26.6970   12.1140   31.2380 N.am  300  UKP300     -0.2760
     37  C4        26.9930   12.1820   29.7220 C.3   300  UKP300      0.1149
     38  C5        27.3050   10.9740   29.0810 C.3   300  UKP300      0.1149
     39  C21       25.8310   12.9190   31.9340 C.2   300  UKP300      0.2273
     40  O1        25.0310   13.6610   31.3740 O.2   300  UKP300     -0.2748
     41  C22       25.7870   12.9630   33.4550 C.3   300  UKP300      0.1057
     42  C23       24.7450   13.9910   33.9940 C.3   300  UKP300      0.1189
     43  N24       25.0050   14.3210   35.4170 N.3   300  UKP300     -0.1309
@<TRIPOS>BOND
     1    26    24    1
     2    25    24    1
     3    24    20    1
     4    32    30    2
     5     5     6    1
     6     5     2    1
     7    30    31    2
     8    30     1    1
     9    30    15    1
    10    20    19   ar
    11    20    15   ar
    12    13     3    2
    13     7     6   ar
    14     7     8   ar
    15     3    12    1
    16     3     8    1
    17     6    11   ar
    18     1     2    1
    19     2    14    1
    20    19    18   ar
    21     8     9   ar
    22    15    16   ar
    23    11    10   ar
    24     9    10   ar
    25    38    37    1
    26    38    33    1
    27    18    17   ar
    28    18    27    1
    29    14    33   am
    30    14     4    2
    31    16    17   ar
    32    16    21    1
    33    37    36    1
    34    33    34    1
    35    27    29    1
    36    27    28    1
    37    21    23    1
    38    21    22    1
    39    36    35    1
    40    36    39   am
    41    34    35    1
    42    40    39    2
    43    39    41    1
    44    41    42    1
    45    42    43    1
