@<TRIPOS>MOLECULE
1f99_PEB_B_1.pdb
 43 46 0 0 0
SMALL
GASTEIGER

@<TRIPOS>ATOM
      1  CHC       23.3840  -24.0480   63.4070 C.3   355  PEB355      0.0837
      2  NC        25.4990  -24.5540   64.4480 N.2   355  PEB355     -0.4186
      3  C1C       26.5440  -25.4530   64.1620 C.2   355  PEB355      0.0929
      4  C2C       26.3570  -26.0450   62.8440 C.3   355  PEB355      0.0554
      5  C3C       25.1700  -25.4470   62.3340 C.3   355  PEB355      0.0545
      6  C4C       24.7040  -24.5620   63.2790 C.2   355  PEB355      0.0881
      7  CMC       24.4700  -25.9690   61.0280 C.3   355  PEB355      0.0075
      8  CAC       27.3070  -26.9170   62.2050 C.3   355  PEB355      0.0189
      9  CBC       26.9390  -28.3480   62.3460 C.3   355  PEB355      0.1145
     10  CGC       28.1660  -29.2110   62.2600 C.2   355  PEB355      0.3649
     11  O1C       28.1590  -30.1520   61.4710 O.co2 355  PEB355     -0.2457
     12  O2C       29.3260  -28.9720   63.0630 O.co2 355  PEB355     -0.2457
     13  ND        22.9740  -23.1280   61.2080 N.2   355  PEB355     -0.2002
     14  C1D       22.8030  -22.9010   62.6280 C.3   355  PEB355      0.1401
     15  C2D       21.3240  -22.7220   62.8680 C.2   355  PEB355     -0.0139
     16  C3D       20.7410  -22.7770   61.5860 C.2   355  PEB355      0.0545
     17  C4D       21.7790  -23.0400   60.6410 C.1   355  PEB355      0.1456
     18  CMD       20.5970  -22.4890   64.1830 C.3   355  PEB355      0.0288
     19  CAD       19.2760  -22.4940   61.2770 C.3   355  PEB355      0.0376
     20  CBD       18.7040  -22.5930   59.8610 C.3   355  PEB355      0.0058
     21  OD        21.6850  -23.1680   59.4440 O.2   355  PEB355     -0.2226
     22  NA        28.7080  -24.0570   70.9910 N.2   355  PEB355     -0.3448
     23  C1A       28.6210  -23.8810   72.3030 C.1   355  PEB355      0.1788
     24  C2A       27.7410  -22.8310   72.6020 C.3   355  PEB355      0.1246
     25  C3A       27.2350  -22.2230   71.3090 C.3   355  PEB355      0.0660
     26  C4A       27.8940  -23.1250   70.2980 C.2   355  PEB355      0.1070
     27  CMA       27.5270  -22.2690   73.9890 C.3   355  PEB355      0.0192
     28  CBA       26.7620  -20.0010   70.3290 C.3   355  PEB355      0.0005
     29  OA        29.2690  -24.5670   73.0940 O.2   355  PEB355     -0.2142
     30  CHA       27.6260  -23.0910   68.9140 C.3   355  PEB355      0.1138
     31  CAA       27.5870  -20.7460   71.3660 C.3   355  PEB355      0.0078
     32  NB        27.3950  -24.1550   66.7520 N.2   355  PEB355     -0.4104
     33  C1B       28.1920  -23.8630   67.8720 C.2   355  PEB355      0.1111
     34  C2B       29.5280  -24.3430   67.6980 C.2   355  PEB355      0.0021
     35  C3B       29.5390  -25.0380   66.4530 C.2   355  PEB355      0.0024
     36  C4B       28.2290  -24.9170   65.9190 C.2   355  PEB355      0.1111
     37  CHB       27.8040  -25.5810   64.7730 C.3   355  PEB355      0.1128
     38  CMB       30.7610  -24.0610   68.5460 C.3   355  PEB355      0.0331
     39  CAB       30.7410  -25.7240   65.8040 C.3   355  PEB355      0.0402
     40  CBB       31.6800  -24.8260   64.9610 C.3   355  PEB355      0.1188
     41  CGB       31.0790  -24.0960   63.7590 C.2   355  PEB355      0.3652
     42  O1B       31.0140  -22.8680   63.8240 O.co2 355  PEB355     -0.2456
     43  O2B       30.5850  -24.7300   62.5690 O.co2 355  PEB355     -0.2456
@<TRIPOS>BOND
     1    21    17    2
     2    20    19    1
     3    17    13    2
     4    17    16    1
     5     7     5    1
     6    13    14    1
     7    19    16    1
     8    11    10   ar
     9    16    15    2
    10     8     9    1
    11     8     4    1
    12    10     9    1
    13    10    12   ar
    14     5     4    1
    15     5     6    1
    16    43    41   ar
    17    14    15    1
    18    14     1    1
    19     4     3    1
    20    15    18    1
    21     6     1    1
    22     6     2    2
    23    41    42   ar
    24    41    40    1
    25     3     2    2
    26     3    37    1
    27    37    36    1
    28    40    39    1
    29    39    35    1
    30    36    35    1
    31    36    32    2
    32    35    34    2
    33    32    33    2
    34    34    33    1
    35    34    38    1
    36    33    30    1
    37    30    26    1
    38    26    22    2
    39    26    25    1
    40    28    31    1
    41    22    23    2
    42    25    31    1
    43    25    24    1
    44    23    24    1
    45    23    29    2
    46    24    27    1
