@<TRIPOS>MOLECULE
1f99_BLA_A_1.pdb
 43 46 0 0 0
SMALL
GASTEIGER

@<TRIPOS>ATOM
      1  CHA       29.2190   11.6090   31.9000 C.3   384  BLA384      0.1128
      2  NA        28.7500    9.7010   33.4490 N.2   384  BLA384     -0.4183
      3  C1A       28.5490   10.9960   32.9750 C.2   384  BLA384      0.0929
      4  C2A       27.7650   11.6920   33.8400 C.3   384  BLA384      0.0554
      5  C3A       27.5560   11.0390   35.0990 C.3   384  BLA384      0.0548
      6  C4A       28.1120    9.6640   34.7260 C.2   384  BLA384      0.0929
      7  CMA       26.5920   11.3480   36.1640 C.3   384  BLA384      0.0075
      8  CAA       27.4020   13.2350   33.7360 C.3   384  BLA384      0.0189
      9  CBA       28.0580   14.1780   34.7500 C.3   384  BLA384      0.1145
     10  CGA       29.5810   14.2290   34.7520 C.2   384  BLA384      0.3649
     11  O1A       30.1820   15.1080   34.1520 O.co2 384  BLA384     -0.2457
     12  O2A       30.4050   13.3160   35.4470 O.co2 384  BLA384     -0.2457
     13  CHB       27.7890    8.3720   35.2500 C.3   384  BLA384      0.1138
     14  NB        27.6540    8.8830   37.6770 N.2   384  BLA384     -0.3375
     15  C1B       27.5140    8.0030   36.5900 C.2   384  BLA384      0.1251
     16  C2B       27.3320    6.6830   37.0920 C.2   384  BLA384      0.0128
     17  C3B       27.3950    6.8290   38.5110 C.2   384  BLA384      0.0706
     18  C4B       27.5780    8.1680   38.7830 C.1   384  BLA384      0.2000
     19  CMB       27.0720    5.4080   36.2900 C.3   384  BLA384      0.0339
     20  OB        27.7030    8.7550   39.8870 O.2   384  BLA384     -0.2096
     21  CAB       27.2690    5.7410   39.5740 C.3   384  BLA384      0.0390
     22  CBB       28.2470    5.6850   40.7690 C.3   384  BLA384      0.0058
     23  NC        31.4280    8.6870   26.3510 N.2   384  BLA384     -0.3448
     24  C1C       31.5690    7.9440   25.2500 C.1   384  BLA384      0.1788
     25  C2C       31.6670    6.5880   25.5660 C.3   384  BLA384      0.1246
     26  C3C       31.3920    6.4350   27.0340 C.3   384  BLA384      0.0660
     27  C4C       31.3250    7.8750   27.5090 C.2   384  BLA384      0.1070
     28  CMC       31.8850    5.4540   24.5750 C.3   384  BLA384      0.0192
     29  OC        31.5300    8.4170   24.1130 O.2   384  BLA384     -0.2142
     30  CAC       32.2560    5.2600   27.4370 C.3   384  BLA384      0.0078
     31  CBC       31.4760    4.4970   28.4800 C.3   384  BLA384      0.0005
     32  CHD       31.0910    8.2980   28.8500 C.3   384  BLA384      0.1138
     33  ND        30.2740    9.6660   30.6820 N.2   384  BLA384     -0.4104
     34  C1D       30.9510    9.5910   29.4420 C.2   384  BLA384      0.1111
     35  C2D       31.2810   10.9040   28.9680 C.2   384  BLA384      0.0021
     36  C3D       30.6670   11.8230   29.8790 C.2   384  BLA384      0.0024
     37  C4D       30.0620   11.0430   30.9110 C.2   384  BLA384      0.1111
     38  CMD       32.1570   11.3040   27.7930 C.3   384  BLA384      0.0331
     39  CAD       30.6310   13.3380   29.7480 C.3   384  BLA384      0.0402
     40  CBD       29.2380   13.8090   29.3580 C.3   384  BLA384      0.1188
     41  CGD       29.0610   15.3100   29.3140 C.2   384  BLA384      0.3652
     42  O1D       28.1980   15.7350   28.5560 O.co2 384  BLA384     -0.2456
     43  O2D       29.8250   16.2330   30.0670 O.co2 384  BLA384     -0.2456
@<TRIPOS>BOND
     1    29    24    2
     2    28    25    1
     3    24    25    1
     4    24    23    2
     5    25    26    1
     6    23    27    2
     7    26    30    1
     8    26    27    1
     9    30    31    1
    10    27    32    1
    11    38    35    1
    12    42    41   ar
    13    32    34    1
    14    35    34    1
    15    35    36    2
    16    41    40    1
    17    41    43   ar
    18    40    39    1
    19    34    33    2
    20    39    36    1
    21    36    37    1
    22    33    37    2
    23    37     1    1
    24     1     3    1
    25     3     2    2
    26     3     4    1
    27     2     6    2
    28     8     4    1
    29     8     9    1
    30     4     5    1
    31    11    10   ar
    32     6     5    1
    33     6    13    1
    34     9    10    1
    35    10    12   ar
    36     5     7    1
    37    13    15    1
    38    19    16    1
    39    15    16    1
    40    15    14    2
    41    16    17    2
    42    14    18    2
    43    17    18    1
    44    17    21    1
    45    18    20    2
    46    21    22    1
