@<TRIPOS>MOLECULE
1f9a_ATP_A_1.pdb
 31 33 0 0 0
SMALL
GASTEIGER

@<TRIPOS>ATOM
      1  PG        40.3490   20.0640   39.8800 P.3   700  ATP700      0.5373
      2  O1G       40.2300   21.4610   40.3480 O.3   700  ATP700     -0.1143
      3  O2G       40.7570   19.9990   38.4820 O.2   700  ATP700     -0.2221
      4  O3G       41.2150   19.3030   40.8350 O.3   700  ATP700     -0.1143
      5  PB        37.4450   19.7260   39.5980 P.3   700  ATP700      0.2277
      6  O1B       36.7380   19.8880   40.9200 O.3   700  ATP700     -0.4368
      7  O2B       37.2410   20.8450   38.6740 O.2   700  ATP700     -0.5168
      8  O3B       38.9370   19.3190   39.9140 O.3   700  ATP700     -0.2258
      9  PA        37.3100   17.0170   38.5160 P.3   700  ATP700      0.2189
     10  O1A       38.3640   16.7660   37.5330 O.2   700  ATP700     -0.5170
     11  O2A       37.5770   16.4370   39.8160 O.3   700  ATP700     -0.4371
     12  O3A       36.9720   18.5590   38.6580 O.3   700  ATP700     -0.2700
     13  O5'       35.9600   16.5710   37.8030 O.3   700  ATP700     -0.3112
     14  C5'       35.3150   17.3630   36.8120 C.3   700  ATP700      0.1813
     15  C4'       33.9810   16.6530   36.5280 C.3   700  ATP700      0.1821
     16  O4'       33.0230   17.0710   37.5200 O.3   700  ATP700     -0.3135
     17  C3'       33.3570   17.0780   35.2160 C.3   700  ATP700      0.2184
     18  O3'       32.1380   16.3900   34.8710 O.3   700  ATP700     -0.2174
     19  C2'       33.0240   18.5800   35.6760 C.3   700  ATP700      0.2570
     20  O2'       31.7570   18.8220   34.9810 O.3   700  ATP700     -0.2130
     21  C1'       32.6780   18.3390   37.1380 C.3   700  ATP700      0.3186
     22  N9        32.6210   19.2880   38.1840 N.pl3 700  ATP700     -0.1439
     23  C8        33.5780   19.8490   38.9440 C.3   700  ATP700      0.3377
     24  N7        33.1870   20.7120   39.8220 N.2   700  ATP700     -0.2095
     25  C5        31.8900   20.8040   39.6090 C.2   700  ATP700      0.2526
     26  C6        30.9830   21.6620   40.1710 C.2   700  ATP700      0.4393
     27  N6        31.3130   22.4950   41.1650 N.pl3 700  ATP700      0.2180
     28  N1        29.6950   21.5240   39.7810 N.2   700  ATP700      0.0021
     29  C2        29.4090   20.6350   38.7800 C.3   700  ATP700      0.5254
     30  N3        30.2170   19.7760   38.1680 N.2   700  ATP700     -0.0055
     31  C4        31.4590   19.9260   38.6490 C.2   700  ATP700      0.3518
@<TRIPOS>BOND
     1    18    17    1
     2    20    19    1
     3    17    19    1
     4    17    15    1
     5    19    21    1
     6    15    14    1
     7    15    16    1
     8    14    13    1
     9    21    16    1
    10    21    22    1
    11    10     9    2
    12    13     9    1
    13    30    31    2
    14    30    29    1
    15    22    31    1
    16    22    23    1
    17     3     1    2
    18     9    12    1
    19     9    11    1
    20    31    25    1
    21    12     5    1
    22     7     5    2
    23    29    28    1
    24    23    24    1
    25     5     8    1
    26     5     6    1
    27    25    24    2
    28    25    26    1
    29    28    26    2
    30     1     8    1
    31     1     2    1
    32     1     4    1
    33    26    27    1
