@<TRIPOS>MOLECULE
1f9b_3ID_A_1.pdb
 11 12 0 0 0
SMALL
GASTEIGER

@<TRIPOS>ATOM
      1  N1        10.0720    1.8650   13.6830 N.2   694  3ID694     -0.2785
      2  C2         9.6570    2.2660   14.9490 C.3   694  3ID694      0.1254
      3  C3        10.8500    2.6680   15.7450 C.3   694  3ID694      0.0363
      4  C4        12.6760    0.8970   15.8270 C.2   694  3ID694      0.0192
      5  C5        13.6750    0.3760   14.9680 C.2   694  3ID694      0.1997
      6  C6        13.5520    0.4810   13.6630 C.3   694  3ID694      0.2181
      7  C7        12.6050    1.4520   13.2100 C.3   694  3ID694      0.0821
      8  C8        11.4090    1.4840   13.9480 C.2   694  3ID694      0.0383
      9  C9        11.5320    1.4410   15.3180 C.3   694  3ID694      0.0627
     10  O1        15.0270    0.1090   15.4130 O.2   694  3ID694     -0.2890
     11  O2        14.4180   -0.3220   12.8570 O.3   694  3ID694     -0.2144
@<TRIPOS>BOND
     1    11     6    1
     2     7     6    1
     3     7     8    1
     4     6     5    1
     5     1     8    2
     6     1     2    1
     7     8     9    1
     8     2     3    1
     9     5    10    1
    10     5     4    2
    11     9     3    1
    12     9     4    1
