@<TRIPOS>MOLECULE
1f9d_GLC_A_1.pdb
 11 11 0 0 0
SMALL
GASTEIGER

@<TRIPOS>ATOM
      1  C1        59.2490   74.6980   61.0910 C.3   3094  GLC3094     0.1777
      2  C2        59.4150   73.1760   61.2610 C.3   3094  GLC3094     0.2141
      3  C3        58.4280   72.6180   62.2990 C.3   3094  GLC3094     0.2173
      4  C4        58.5580   73.4000   63.6100 C.3   3094  GLC3094     0.2142
      5  C5        58.3300   74.8840   63.3100 C.3   3094  GLC3094     0.1810
      6  C6        58.3970   75.7680   64.5480 C.3   3094  GLC3094     0.2141
      7  O2        59.2220   72.5320   60.0060 O.3   3094  GLC3094    -0.2176
      8  O3        58.6960   71.2380   62.5280 O.3   3094  GLC3094    -0.2175
      9  O4        57.6000   72.9360   64.5560 O.3   3094  GLC3094    -0.2176
     10  O5        59.3310   75.3540   62.3710 O.3   3094  GLC3094    -0.3481
     11  O6        59.5140   76.6460   64.5040 O.3   3094  GLC3094    -0.2176
@<TRIPOS>BOND
     1     7     2    1
     2     1     2    1
     3     1    10    1
     4     2     3    1
     5     3     8    1
     6     3     4    1
     7    10     5    1
     8     5     4    1
     9     5     6    1
    10     4     9    1
    11    11     6    1
