@<TRIPOS>MOLECULE
1f9e_III_Q_1.pdb
 42 42 0 0 0
SMALL
GASTEIGER

@<TRIPOS>ATOM
      1  C1        45.2780   75.0660    9.4630 C.2   4100  PHQ4100     0.4219
      2  O1        46.3970   74.5280    9.3240 O.2   4100  PHQ4100    -0.2245
      3  O2        44.7620   76.0360    8.6140 O.3   4100  PHQ4100    -0.4285
      4  C2        45.4340   76.5380    7.4500 C.3   4100  PHQ4100     0.2368
      5  C3        44.4790   77.5800    6.9710 C.ar  4100  PHQ4100     0.0213
      6  C4        44.5120   78.9060    7.5470 C.ar  4100  PHQ4100    -0.0007
      7  C5        43.5720   79.9090    7.1030 C.ar  4100  PHQ4100    -0.0002
      8  C6        42.5870   79.6000    6.0820 C.ar  4100  PHQ4100    -0.0000
      9  C7        42.5410   78.2730    5.4980 C.ar  4100  PHQ4100    -0.0002
     10  C8        43.4870   77.2660    5.9480 C.ar  4100  PHQ4100    -0.0007
     11  N         44.4920   74.8110   10.4260 N.am  4101  ASP4101    -0.1605
     12  CA        44.8320   73.9130   11.4860 C.3   4101  ASP4101     0.1873
     13  C         44.7850   74.9420   12.6710 C.2   4101  ASP4101     0.2623
     14  O         45.6290   75.8590   12.7570 O.2   4101  ASP4101    -0.2715
     15  CB        43.9490   72.6900   11.6070 C.3   4101  ASP4101     0.1451
     16  CG        44.0910   71.6820   10.4620 C.2   4101  ASP4101     0.3671
     17  OD1       45.2380   71.0610   10.2850 O.co2 4101  ASP4101    -0.2456
     18  OD2       43.0770   71.4300    9.6890 O.co2 4101  ASP4101    -0.2456
     19  N         43.7260   74.8720   13.4620 N.am  4102  GLU4102    -0.1963
     20  CA        43.4300   75.8130   14.5910 C.3   4102  GLU4102     0.1733
     21  C         42.6690   75.0020   15.6720 C.2   4102  GLU4102     0.2616
     22  O         41.8180   74.1370   15.3600 O.2   4102  GLU4102    -0.2715
     23  CB        42.5470   77.0250   14.1490 C.3   4102  GLU4102     0.0429
     24  CG        43.0260   77.8030   12.9000 C.3   4102  GLU4102     0.1163
     25  CD        42.8010   79.3510   12.8770 C.2   4102  GLU4102     0.3649
     26  OE1       41.8220   79.9120   13.5300 O.co2 4102  GLU4102    -0.2457
     27  OE2       43.6120   80.1010   12.1720 O.co2 4102  GLU4102    -0.2457
     28  N         42.9860   75.2650   16.9380 N.am  4103  VAL4103    -0.1963
     29  CA        42.3380   74.5340   18.0610 C.3   4103  VAL4103     0.1727
     30  C         41.1480   75.2660   18.5190 C.2   4103  VAL4103     0.2613
     31  O         41.0660   76.4910   18.4360 O.2   4103  VAL4103    -0.2715
     32  CB        43.4220   74.2260   19.1040 C.3   4103  VAL4103     0.0290
     33  CG1       44.6010   73.4440   18.5220 C.3   4103  VAL4103     0.0023
     34  CG2       44.0310   75.4840   19.7280 C.3   4103  VAL4103     0.0023
     35  N         40.2530   74.4580   18.9150 N.am  4104  ASP4104    -0.2025
     36  CA        39.0570   74.9240   19.4850 C.3   4104  ASP4104     0.1395
     37  C         39.2290   74.7630   21.0110 C.3   4104  ASP4104     0.2041
     38  O         38.3910   75.3030   21.8490 O.3   4104  ASP4104    -0.2185
     39  CB        37.8750   74.0650   18.9970 C.3   4104  ASP4104     0.1383
     40  CG        37.1120   74.6560   17.8010 C.2   4104  ASP4104     0.3667
     41  OD1       37.3210   75.8730   17.4340 O.co2 4104  ASP4104    -0.2456
     42  OD2       36.2550   73.9310   17.1590 O.co2 4104  ASP4104    -0.2456
@<TRIPOS>BOND
     1     9    10   ar
     2     9     8   ar
     3    10     5   ar
     4     8     7   ar
     5     5     4    1
     6     5     6   ar
     7     7     6   ar
     8     4     3    1
     9     3     1    1
    10     2     1    2
    11     1    11   am
    12    18    16   ar
    13    17    16   ar
    14    11    12    1
    15    16    15    1
    16    12    15    1
    17    12    13    1
    18    27    25   ar
    19    13    14    2
    20    13    19   am
    21    25    24    1
    22    25    26   ar
    23    24    23    1
    24    19    20    1
    25    23    20    1
    26    20    21    1
    27    22    21    2
    28    21    28   am
    29    28    29    1
    30    42    40   ar
    31    41    40   ar
    32    40    39    1
    33    29    30    1
    34    29    32    1
    35    31    30    2
    36    30    35   am
    37    33    32    1
    38    35    36    1
    39    39    36    1
    40    32    34    1
    41    36    37    1
    42    37    38    1
