@<TRIPOS>MOLECULE
1f9g_ASC_A_1.pdb
 12 12 0 0 0
SMALL
GASTEIGER

@<TRIPOS>ATOM
      1  C1         9.2520  -10.8070   32.3000 C.2   950  ASC950      0.3557
      2  C2        10.3500   -9.7830   32.5730 C.3   950  ASC950      0.3096
      3  C3         9.8060   -8.5820   32.8430 C.2   950  ASC950      0.2342
      4  C4         8.3050   -8.7370   32.7540 C.3   950  ASC950      0.2612
      5  C5         7.5930   -7.6330   31.9260 C.3   950  ASC950      0.2318
      6  C6         6.1170   -7.6770   31.4470 C.3   950  ASC950      0.2190
      7  O1         9.3290  -12.0140   32.0380 O.2   950  ASC950     -0.2468
      8  O2        11.7040   -9.9980   32.5670 O.3   950  ASC950     -0.2028
      9  O3        10.2070   -7.6800   33.6140 O.2   950  ASC950     -0.2889
     10  O4         8.0370  -10.1470   32.4120 O.3   950  ASC950     -0.4397
     11  O5         7.8940   -6.3130   32.4420 O.3   950  ASC950     -0.2159
     12  O6         6.2230   -7.0890   30.0690 O.3   950  ASC950     -0.2174
@<TRIPOS>BOND
     1    12     6    1
     2     6     5    1
     3     5    11    1
     4     5     4    1
     5     7     1    2
     6     1    10    1
     7     1     2    1
     8    10     4    1
     9     8     2    1
    10     2     3    1
    11     4     3    1
    12     3     9    2
