@<TRIPOS>MOLECULE
1f9h_APC_A_1.pdb
 31 33 0 0 0
SMALL
GASTEIGER

@<TRIPOS>ATOM
      1  PG        -6.1550    2.0760    3.9510 P.3   171  APC171      0.5389
      2  O1G       -6.5340    0.7100    3.6570 O.3   171  APC171     -0.1143
      3  O2G       -4.9650    2.5920    3.1340 O.2   171  APC171     -0.2220
      4  O3G       -5.8820    2.2760    5.4720 O.3   171  APC171     -0.1143
      5  PB        -8.8900    2.9660    4.0180 P.3   171  APC171      0.3895
      6  O1B       -8.8560    2.2440    5.3320 O.3   171  APC171     -0.1388
      7  O2B       -9.4640    4.2930    3.9390 O.2   171  APC171     -0.2544
      8  O3B       -7.2900    3.0400    3.5480 O.3   171  APC171     -0.2026
      9  PA       -11.4190    1.8420    3.1270 P.3   171  APC171      0.3820
     10  O1A      -11.6690    1.8790    4.5320 O.3   171  APC171     -0.1392
     11  O2A      -12.1490    2.9080    2.2220 O.2   171  APC171     -0.2548
     12  C3A       -9.7160    1.9410    2.7800 C.3   171  APC171      0.2357
     13  O5'      -11.9170    0.4010    2.7060 O.3   171  APC171     -0.2896
     14  C5'      -12.0170    0.1630    1.2830 C.3   171  APC171      0.1836
     15  C4'      -12.0610   -1.4610    1.1150 C.3   171  APC171      0.1822
     16  O4'      -10.8300   -2.0420    1.6170 O.3   171  APC171     -0.3135
     17  C3'      -13.1390   -2.1160    1.9260 C.3   171  APC171      0.2184
     18  O3'      -14.3550   -2.0230    1.1190 O.3   171  APC171     -0.2174
     19  C2'      -12.6610   -3.4590    1.9700 C.3   171  APC171      0.2570
     20  O2'      -13.2480   -4.4170    1.0640 O.3   171  APC171     -0.2130
     21  C1'      -11.2300   -3.4920    1.5040 C.3   171  APC171      0.3186
     22  N9       -10.2690   -4.0970    2.4560 N.pl3 171  APC171     -0.1439
     23  C8        -9.1600   -4.9860    1.8670 C.3   171  APC171      0.3377
     24  N7        -8.4020   -5.4440    2.8480 N.2   171  APC171     -0.2095
     25  C5        -8.9140   -4.9320    4.0460 C.2   171  APC171      0.2526
     26  C6        -8.5600   -5.0690    5.2140 C.2   171  APC171      0.4393
     27  N6        -7.5060   -5.8020    5.6770 N.pl3 171  APC171      0.2180
     28  N1        -9.2550   -4.4360    6.2790 N.2   171  APC171      0.0021
     29  C2       -10.3320   -3.6790    5.8710 C.3   171  APC171      0.5254
     30  N3       -10.7300   -3.5240    4.5680 N.2   171  APC171     -0.0055
     31  C4        -9.9160   -4.2140    3.7930 C.2   171  APC171      0.3518
@<TRIPOS>BOND
     1    20    19    1
     2    15    14    1
     3    15    16    1
     4    15    17    1
     5    18    17    1
     6    14    13    1
     7    21    16    1
     8    21    19    1
     9    21    22    1
    10    23    22    1
    11    23    24    1
    12    17    19    1
    13    11     9    2
    14    22    31    1
    15    13     9    1
    16    12     9    1
    17    12     5    1
    18    24    25    2
    19     9    10    1
    20     3     1    2
    21     8     1    1
    22     8     5    1
    23     2     1    1
    24    31    25    1
    25    31    30    2
    26     7     5    2
    27     1     4    1
    28     5     6    1
    29    25    26    1
    30    30    29    1
    31    26    27    1
    32    26    28    2
    33    29    28    1
