@<TRIPOS>MOLECULE
1f9h_PH2_A_1.pdb
 14 15 0 0 0
SMALL
GASTEIGER

@<TRIPOS>ATOM
      1  N1        -5.6970    6.1320    7.7670 N.2   181  PH2181     -0.3830
      2  C2        -5.7570    6.4160    6.4730 C.2   181  PH2181      0.1470
      3  C3        -4.9970    7.4890    5.8820 C.3   181  PH2181      0.1940
      4  N4        -4.1980    8.2090    6.7360 N.2   181  PH2181     -0.1992
      5  N5        -3.2510    8.7690    8.8190 N.2   181  PH2181     -0.2672
      6  C6        -3.2240    8.4050   10.2620 C.1   181  PH2181      0.2609
      7  N6        -2.4250    9.1880   10.8910 N.pl3 181  PH2181     -0.0220
      8  N7        -3.9610    7.4100   10.6710 N.2   181  PH2181     -0.2466
      9  C8        -4.7670    6.6060   10.0920 C.1   181  PH2181      0.2569
     10  O8        -5.3740    5.7420   10.5900 O.2   181  PH2181     -0.2052
     11  C9        -4.8530    6.8950    8.6670 C.2   181  PH2181      0.2989
     12  C10       -4.0910    7.9490    8.1470 C.1   181  PH2181      0.1401
     13  C11       -6.6470    5.5700    5.6780 C.3   181  PH2181      0.2380
     14  O4        -7.4870    4.6780    6.2870 O.3   181  PH2181     -0.2126
@<TRIPOS>BOND
     1    13    14    1
     2    13     2    1
     3     3     2    1
     4     3     4    1
     5     2     1    2
     6     4    12    2
     7     1    11    2
     8    12    11    1
     9    12     5    2
    10    11     9    1
    11     5     6    2
    12     9    10    2
    13     9     8    2
    14     6     8    2
    15     6     7    1
