@<TRIPOS>MOLECULE
1f9k_AMG_A_1.pdb
 13 13 0 0 0
SMALL
GASTEIGER

@<TRIPOS>ATOM
      1  C1       -30.6430   58.3440    3.2180 C.3   400  AMG400      0.2695
      2  C2       -30.1200   59.7350    2.8470 C.3   400  AMG400      0.2406
      3  C3       -28.5760   59.7440    2.9400 C.3   400  AMG400      0.2198
      4  C4       -28.0970   59.2430    4.3290 C.3   400  AMG400      0.2144
      5  C5       -28.7810   57.9280    4.7230 C.3   400  AMG400      0.1835
      6  C6       -28.5600   57.6500    6.1940 C.3   400  AMG400      0.2142
      7  C7       -30.5880   56.0410    2.5680 C.3   400  AMG400      0.1769
      8  O1       -30.2160   57.4010    2.2780 O.3   400  AMG400     -0.3259
      9  O2       -30.5690   60.1190    1.5480 O.3   400  AMG400     -0.2149
     10  O3       -28.0810   61.0570    2.7020 O.3   400  AMG400     -0.2174
     11  O4       -28.3470   60.2110    5.3410 O.3   400  AMG400     -0.2176
     12  O5       -30.2140   58.0190    4.5400 O.3   400  AMG400     -0.3256
     13  O6       -28.6890   56.2690    6.4820 O.3   400  AMG400     -0.2176
@<TRIPOS>BOND
     1     9     2    1
     2     8     7    1
     3     8     1    1
     4    10     3    1
     5     2     3    1
     6     2     1    1
     7     3     4    1
     8     1    12    1
     9     4     5    1
    10     4    11    1
    11    12     5    1
    12     5     6    1
    13     6    13    1
