@<TRIPOS>MOLECULE
1f9k_NAG_A_1.pdb
 14 14 0 0 0
SMALL
GASTEIGER

@<TRIPOS>ATOM
      1  C1       -14.6090   65.3870   19.5540 C.3   501  NAG501      0.1665
      2  C2       -13.7560   65.7740   20.7700 C.3   501  NAG501      0.1576
      3  C3       -14.1170   64.8800   21.9450 C.3   501  NAG501      0.2069
      4  C4       -15.6060   65.0530   22.2130 C.3   501  NAG501      0.2134
      5  C5       -16.4330   64.7430   20.9520 C.3   501  NAG501      0.1809
      6  C6       -17.8850   65.0580   21.1640 C.3   501  NAG501      0.2141
      7  C7       -11.5310   66.6820   20.8210 C.2   501  NAG501      0.2420
      8  C8       -10.0570   66.4910   20.5000 C.3   501  NAG501      0.0964
      9  N2       -12.3390   65.6760   20.4880 N.am  501  NAG501     -0.2019
     10  O3       -13.3600   65.2520   23.0940 O.3   501  NAG501     -0.2184
     11  O4       -15.9940   64.1930   23.2650 O.3   501  NAG501     -0.2176
     12  O5       -16.0010   65.5700   19.8540 O.3   501  NAG501     -0.3489
     13  O6       -18.0700   66.4590   21.2130 O.3   501  NAG501     -0.2176
     14  O7       -11.9260   67.7300   21.3490 O.2   501  NAG501     -0.2733
@<TRIPOS>BOND
     1     1    12    1
     2     1     2    1
     3    12     5    1
     4     9     2    1
     5     9     7   am
     6     8     7    1
     7     2     3    1
     8     7    14    2
     9     5     6    1
    10     5     4    1
    11     6    13    1
    12     3     4    1
    13     3    10    1
    14     4    11    1
