@<TRIPOS>MOLECULE
1f9o_BGC_A_1.pdb
 11 11 0 0 0
SMALL
GASTEIGER

@<TRIPOS>ATOM
      1  C2        59.0150   71.6800   62.6190 C.3   2094  BGC2094     0.2141
      2  C3        57.7240   71.1360   63.2360 C.3   2094  BGC2094     0.2173
      3  C4        57.3140   71.9180   64.5040 C.3   2094  BGC2094     0.2142
      4  C5        57.4440   73.4430   64.3420 C.3   2094  BGC2094     0.1810
      5  C6        57.3500   74.1490   65.6830 C.3   2094  BGC2094     0.2141
      6  C1        58.8870   73.1900   62.4750 C.3   2094  BGC2094     0.1777
      7  O2        59.2370   71.0930   61.3400 O.3   2094  BGC2094    -0.2176
      8  O3        57.8970   69.7630   63.5640 O.3   2094  BGC2094    -0.2175
      9  O4        55.9620   71.6160   64.8210 O.3   2094  BGC2094    -0.2176
     10  O5        58.7190   73.7850   63.7610 O.3   2094  BGC2094    -0.3481
     11  O6        57.6700   75.5290   65.5750 O.3   2094  BGC2094    -0.2176
@<TRIPOS>BOND
     1     7     1    1
     2     6     1    1
     3     6    10    1
     4     1     2    1
     5     2     8    1
     6     2     3    1
     7    10     4    1
     8     4     3    1
     9     4     5    1
    10     3     9    1
    11    11     5    1
