@<TRIPOS>MOLECULE
1f9o_SSG_A_1.pdb
 12 12 0 0 0
SMALL
GASTEIGER

@<TRIPOS>ATOM
      1  C1        63.7080   80.0740   55.9360 C.3   2096  SSG2096     0.2050
      2  S1        65.4020   80.3100   55.1460 S.3   2096  SSG2096    -0.0481
      3  C2        62.4380   79.2980   55.5140 C.3   2096  SSG2096     0.2210
      4  O2        61.8660   79.9320   54.3760 O.3   2096  SSG2096    -0.2168
      5  C3        61.3720   79.2260   56.6170 C.3   2096  SSG2096     0.1986
      6  O3        60.4280   78.2130   56.2930 O.3   2096  SSG2096    -0.2193
      7  C4        61.9760   78.9400   58.0020 C.3   2096  SSG2096     0.1206
      8  C5        63.0950   79.9720   58.2200 C.3   2096  SSG2096     0.1625
      9  O5        64.1250   79.7350   57.2630 O.3   2096  SSG2096    -0.3407
     10  C6        63.7520   79.9890   59.5890 C.3   2096  SSG2096     0.2124
     11  O6        64.7410   81.0080   59.6640 O.3   2096  SSG2096    -0.2177
     12  S4        60.6810   78.9970   59.3350 S.3   2096  SSG2096    -0.0777
@<TRIPOS>BOND
     1     4     3    1
     2     2     1    1
     3     3     1    1
     4     3     5    1
     5     1     9    1
     6     6     5    1
     7     5     7    1
     8     9     8    1
     9     7     8    1
    10     7    12    1
    11     8    10    1
    12    10    11    1
