@<TRIPOS>MOLECULE
1f9t_ADP_A_1.pdb
 27 29 0 0 0
SMALL
GASTEIGER

@<TRIPOS>ATOM
      1  PB        -8.4490    9.4000    8.2790 P.3   999  ADP999      0.5373
      2  O1B       -8.4440    8.1190    7.5400 O.3   999  ADP999     -0.1143
      3  O2B       -7.7700    9.2310    9.7410 O.3   999  ADP999     -0.1143
      4  O3B       -7.8220   10.4880    7.4740 O.2   999  ADP999     -0.2221
      5  PA       -10.5700   10.4270    9.9520 P.3   999  ADP999      0.2231
      6  O1A      -10.6610    9.3830   10.9760 O.3   999  ADP999     -0.4370
      7  O2A       -9.8080   11.5670   10.4730 O.2   999  ADP999     -0.5169
      8  O3A       -9.9160    9.8320    8.6390 O.3   999  ADP999     -0.2261
      9  O5'      -12.0080   10.9750    9.5780 O.3   999  ADP999     -0.3111
     10  C5'      -12.6570   11.0400    8.3080 C.3   999  ADP999      0.1813
     11  C4'      -13.9910   11.7690    8.6410 C.3   999  ADP999      0.1821
     12  O4'      -14.9690   10.7350    8.7150 O.3   999  ADP999     -0.3135
     13  C3'      -13.9940   12.4300   10.0420 C.3   999  ADP999      0.2184
     14  O3'      -14.7190   13.6710   10.0760 O.3   999  ADP999     -0.2174
     15  C2'      -14.6060   11.3930   10.9700 C.3   999  ADP999      0.2570
     16  O2'      -15.2170   11.9540   12.1370 O.3   999  ADP999     -0.2130
     17  C1'      -15.5290   10.6230   10.0400 C.3   999  ADP999      0.3186
     18  N9       -15.5720    9.1620   10.3600 N.pl3 999  ADP999     -0.1439
     19  C8       -14.5820    8.2880   10.0940 C.3   999  ADP999      0.3377
     20  N7       -14.9470    7.0790   10.4750 N.2   999  ADP999     -0.2095
     21  C5       -16.1550    7.1520   10.9830 C.2   999  ADP999      0.2526
     22  C6       -17.0530    6.2450   11.5350 C.2   999  ADP999      0.4393
     23  N6       -16.7300    4.9460   11.6250 N.pl3 999  ADP999      0.2180
     24  N1       -18.2710    6.6750   11.9820 N.2   999  ADP999      0.0021
     25  C2       -18.6430    7.9720   11.9100 C.3   999  ADP999      0.5254
     26  N3       -17.7850    8.8620   11.3770 N.2   999  ADP999     -0.0055
     27  C4       -16.5580    8.5030   10.9120 C.2   999  ADP999      0.3518
@<TRIPOS>BOND
     1     4     1    2
     2     2     1    1
     3     1     8    1
     4     1     3    1
     5    10    11    1
     6    10     9    1
     7     8     5    1
     8    11    12    1
     9    11    13    1
    10    12    17    1
    11     9     5    1
    12     5     7    2
    13     5     6    1
    14    17    18    1
    15    17    15    1
    16    13    14    1
    17    13    15    1
    18    19    18    1
    19    19    20    1
    20    18    27    1
    21    20    21    2
    22    27    21    1
    23    27    26    2
    24    15    16    1
    25    21    22    1
    26    26    25    1
    27    22    23    1
    28    22    24    2
    29    25    24    1
