@<TRIPOS>MOLECULE
1f9u_ADP_A_1.pdb
 27 29 0 0 0
SMALL
GASTEIGER

@<TRIPOS>ATOM
      1  PB        -8.2970    9.3310    8.4410 P.3   999  ADP999      0.5373
      2  O1B       -8.2780    8.0340    7.7310 O.3   999  ADP999     -0.1143
      3  O2B       -7.6130    9.1640    9.9010 O.3   999  ADP999     -0.1143
      4  O3B       -7.6840   10.4380    7.6670 O.2   999  ADP999     -0.2221
      5  PA       -10.4210   10.1900   10.1260 P.3   999  ADP999      0.2231
      6  O1A      -10.5650    9.0400   11.0110 O.3   999  ADP999     -0.4370
      7  O2A       -9.6350   11.2220   10.7860 O.2   999  ADP999     -0.5169
      8  O3A       -9.7650    9.7330    8.7890 O.3   999  ADP999     -0.2261
      9  O5'      -11.8150   10.8160    9.7760 O.3   999  ADP999     -0.3111
     10  C5'      -12.3890   11.0270    8.4880 C.3   999  ADP999      0.1813
     11  C4'      -13.7030   11.7650    8.8230 C.3   999  ADP999      0.1821
     12  O4'      -14.6850   10.7350    8.9150 O.3   999  ADP999     -0.3135
     13  C3'      -13.6950   12.4350   10.2160 C.3   999  ADP999      0.2184
     14  O3'      -14.4310   13.6710   10.2490 O.3   999  ADP999     -0.2174
     15  C2'      -14.2870   11.3980   11.1550 C.3   999  ADP999      0.2570
     16  O2'      -14.8520   11.9630   12.3400 O.3   999  ADP999     -0.2130
     17  C1'      -15.2390   10.6450   10.2410 C.3   999  ADP999      0.3186
     18  N9       -15.3360    9.1920   10.5520 N.pl3 999  ADP999     -0.1439
     19  C8       -14.4040    8.2720   10.2380 C.3   999  ADP999      0.3377
     20  N7       -14.8150    7.0790   10.6290 N.2   999  ADP999     -0.2095
     21  C5       -16.0000    7.2080   11.1770 C.2   999  ADP999      0.2526
     22  C6       -16.9240    6.3410   11.7590 C.2   999  ADP999      0.4393
     23  N6       -16.6780    5.0140   11.8310 N.pl3 999  ADP999      0.2180
     24  N1       -18.0980    6.8360   12.2570 N.2   999  ADP999      0.0021
     25  C2       -18.4010    8.1490   12.2090 C.3   999  ADP999      0.5254
     26  N3       -17.5240    8.9990   11.6520 N.2   999  ADP999     -0.0055
     27  C4       -16.3330    8.5790   11.1390 C.2   999  ADP999      0.3518
@<TRIPOS>BOND
     1     4     1    2
     2     2     1    1
     3     1     8    1
     4     1     3    1
     5    10    11    1
     6    10     9    1
     7     8     5    1
     8    11    12    1
     9    11    13    1
    10    12    17    1
    11     9     5    1
    12     5     7    2
    13     5     6    1
    14    13    14    1
    15    13    15    1
    16    19    18    1
    17    19    20    1
    18    17    18    1
    19    17    15    1
    20    18    27    1
    21    20    21    2
    22    27    21    1
    23    27    26    2
    24    15    16    1
    25    21    22    1
    26    26    25    1
    27    22    23    1
    28    22    24    2
    29    25    24    1
