@<TRIPOS>MOLECULE
1f9v_ADP_A_1.pdb
 27 29 0 0 0
SMALL
GASTEIGER

@<TRIPOS>ATOM
      1  PB        -7.1780    9.6310    8.0130 P.3   999  ADP999      0.5373
      2  O1B       -7.1630    8.3230    7.3100 O.3   999  ADP999     -0.1143
      3  O2B       -6.4680    9.5080    9.4480 O.3   999  ADP999     -0.1143
      4  O3B       -6.5640   10.7020    7.1870 O.2   999  ADP999     -0.2221
      5  PA        -9.3420   10.5840    9.6750 P.3   999  ADP999      0.2231
      6  O1A       -9.4990    9.5030   10.6480 O.3   999  ADP999     -0.4370
      7  O2A       -8.5370   11.6530   10.2620 O.2   999  ADP999     -0.5169
      8  O3A       -8.6620   10.0260    8.3650 O.3   999  ADP999     -0.2261
      9  O5'      -10.7470   11.2000    9.2860 O.3   999  ADP999     -0.3111
     10  C5'      -11.3460   11.3200    7.9940 C.3   999  ADP999      0.1813
     11  C4'      -12.7200   11.9980    8.2750 C.3   999  ADP999      0.1821
     12  O4'      -13.6840   10.9400    8.3290 O.3   999  ADP999     -0.3135
     13  C3'      -12.8000   12.6820    9.6540 C.3   999  ADP999      0.2184
     14  O3'      -13.5950   13.8790    9.6280 O.3   999  ADP999     -0.2174
     15  C2'      -13.4070   11.6400   10.5780 C.3   999  ADP999      0.2570
     16  O2'      -14.0400   12.2010   11.7410 O.3   999  ADP999     -0.2130
     17  C1'      -14.3100   10.8610    9.6320 C.3   999  ADP999      0.3186
     18  N9       -14.4010    9.4080    9.9760 N.pl3 999  ADP999     -0.1439
     19  C8       -13.4590    8.4950    9.6680 C.3   999  ADP999      0.3377
     20  N7       -13.8490    7.3050   10.0780 N.2   999  ADP999     -0.2095
     21  C5       -15.0220    7.4220   10.6450 C.2   999  ADP999      0.2526
     22  C6       -15.9180    6.5470   11.2400 C.2   999  ADP999      0.4393
     23  N6       -15.6260    5.2450   11.3170 N.pl3 999  ADP999      0.2180
     24  N1       -17.0980    7.0140   11.7530 N.2   999  ADP999      0.0021
     25  C2       -17.4300    8.3200   11.6930 C.3   999  ADP999      0.5254
     26  N3       -16.5730    9.1820   11.1110 N.2   999  ADP999     -0.0055
     27  C4       -15.3840    8.7840   10.5860 C.2   999  ADP999      0.3518
@<TRIPOS>BOND
     1     4     1    2
     2     2     1    1
     3    10    11    1
     4    10     9    1
     5     1     8    1
     6     1     3    1
     7    11    12    1
     8    11    13    1
     9    12    17    1
    10     8     5    1
    11     9     5    1
    12    14    13    1
    13    17    18    1
    14    17    15    1
    15    13    15    1
    16    19    18    1
    17    19    20    1
    18     5     7    2
    19     5     6    1
    20    18    27    1
    21    20    21    2
    22    15    16    1
    23    27    21    1
    24    27    26    2
    25    21    22    1
    26    26    25    1
    27    22    23    1
    28    22    24    2
    29    25    24    1
