@<TRIPOS>MOLECULE
1f9w_ADP_A_1.pdb
 27 29 0 0 0
SMALL
GASTEIGER

@<TRIPOS>ATOM
      1  PB        31.9730   98.6610   82.1790 P.3   998  ADP998      0.5373
      2  O1B       30.5650   99.0980   82.0240 O.3   998  ADP998     -0.1143
      3  O2B       32.0930   97.0640   81.9580 O.3   998  ADP998     -0.1143
      4  O3B       32.8990   99.4320   81.2790 O.2   998  ADP998     -0.2221
      5  PA        33.5080   98.0500   84.4840 P.3   998  ADP998      0.2231
      6  O1A       32.7840   97.0290   85.2360 O.3   998  ADP998     -0.4370
      7  O2A       34.5000   97.4560   83.5730 O.2   998  ADP998     -0.5169
      8  O3A       32.4570   98.8460   83.6370 O.3   998  ADP998     -0.2261
      9  O5'       34.1890   99.1060   85.4310 O.3   998  ADP998     -0.3111
     10  C5'       33.8210  100.4930   85.4950 C.3   998  ADP998      0.1813
     11  C4'       34.1890  101.0070   86.9090 C.3   998  ADP998      0.1821
     12  O4'       32.9880  100.9880   87.7200 O.3   998  ADP998     -0.3135
     13  C3'       35.2150  100.1440   87.6530 C.3   998  ADP998      0.2184
     14  O3'       36.1960  100.9280   88.3490 O.3   998  ADP998     -0.2174
     15  C2'       34.3890   99.2950   88.6090 C.3   998  ADP998      0.2570
     16  O2'       35.1290   98.8320   89.7510 O.3   998  ADP998     -0.2130
     17  C1'       33.1930  100.1920   88.9080 C.3   998  ADP998      0.3186
     18  N9        31.9590   99.3900   89.2190 N.pl3 998  ADP998     -0.1439
     19  C8        31.1130   98.8920   88.3180 C.3   998  ADP998      0.3377
     20  N7        30.1380   98.2250   88.9330 N.2   998  ADP998     -0.2095
     21  C5        30.3620   98.2700   90.2170 C.2   998  ADP998      0.2526
     22  C6        29.7370   97.7650   91.3600 C.2   998  ADP998      0.4393
     23  N6        28.6180   97.0490   91.2520 N.pl3 998  ADP998      0.2180
     24  N1        30.2530   98.0200   92.6010 N.2   998  ADP998      0.0021
     25  C2        31.3750   98.7440   92.7670 C.3   998  ADP998      0.5254
     26  N3        32.0040   99.2270   91.6730 N.2   998  ADP998     -0.0055
     27  C4        31.5400   99.0230   90.4070 C.2   998  ADP998      0.3518
@<TRIPOS>BOND
     1     4     1    2
     2     3     1    1
     3     2     1    1
     4     1     8    1
     5     7     5    2
     6     8     5    1
     7     5     6    1
     8     5     9    1
     9     9    10    1
    10    10    11    1
    11    11    13    1
    12    11    12    1
    13    13    14    1
    14    13    15    1
    15    12    17    1
    16    19    20    1
    17    19    18    1
    18    15    17    1
    19    15    16    1
    20    17    18    1
    21    20    21    2
    22    18    27    1
    23    21    27    1
    24    21    22    1
    25    27    26    2
    26    23    22    1
    27    22    24    2
    28    26    25    1
    29    24    25    1
