@<TRIPOS>MOLECULE
1fa0_3AT_A_1.pdb
 30 32 0 0 0
SMALL
GASTEIGER

@<TRIPOS>ATOM
      1  PG        79.8560   36.1940   60.7790 P.3   604  3AT604      0.5373
      2  O1G       79.8300   37.1330   59.6230 O.2   604  3AT604     -0.2221
      3  O2G       80.8800   35.1230   60.7700 O.3   604  3AT604     -0.1143
      4  O3G       78.6470   36.0780   61.5920 O.3   604  3AT604     -0.1143
      5  PB        80.5110   37.5830   63.2840 P.3   604  3AT604      0.2277
      6  O1B       81.7040   38.2350   63.9370 O.3   604  3AT604     -0.4368
      7  O2B       79.1210   37.9740   63.6810 O.2   604  3AT604     -0.5168
      8  O3B       80.7290   37.1300   61.7700 O.3   604  3AT604     -0.2258
      9  PA        80.1540   35.2520   65.0660 P.3   604  3AT604      0.2189
     10  O1A       78.7110   35.0690   64.8420 O.2   604  3AT604     -0.5170
     11  O2A       80.9890   34.0500   65.2930 O.3   604  3AT604     -0.4371
     12  O3A       80.7120   36.1380   63.8510 O.3   604  3AT604     -0.2700
     13  O5'       80.3590   36.2490   66.2550 O.3   604  3AT604     -0.3113
     14  C5'       79.2700   36.8810   66.9530 C.3   604  3AT604      0.1787
     15  C4'       79.7570   37.6400   68.1550 C.3   604  3AT604      0.1520
     16  O4'       80.3240   36.7030   69.0790 O.3   604  3AT604     -0.3163
     17  C3'       80.8360   38.6490   67.8980 C.3   604  3AT604      0.0722
     18  C2'       81.5170   38.7230   69.2490 C.3   604  3AT604      0.2270
     19  O2'       81.0430   39.8060   70.0330 O.3   604  3AT604     -0.2158
     20  C1'       81.1400   37.4180   70.0070 C.3   604  3AT604      0.3159
     21  N9        82.3250   36.5890   70.4070 N.pl3 604  3AT604     -0.1439
     22  C8        82.9990   35.6240   69.6790 C.3   604  3AT604      0.3377
     23  N7        83.8860   34.9310   70.3520 N.2   604  3AT604     -0.2095
     24  C5        83.7970   35.4800   71.6300 C.2   604  3AT604      0.2526
     25  C6        84.4800   35.1970   72.8690 C.2   604  3AT604      0.4393
     26  N6        85.4080   34.2490   72.9460 N.pl3 604  3AT604      0.2180
     27  N1        84.1610   35.9280   73.9790 N.2   604  3AT604      0.0021
     28  C2        83.2230   36.8840   73.8930 C.3   604  3AT604      0.5254
     29  N3        82.5060   37.2520   72.8030 N.2   604  3AT604     -0.0055
     30  C4        82.8480   36.4930   71.6820 C.2   604  3AT604      0.3518
@<TRIPOS>BOND
     1     2     1    2
     2     3     1    1
     3     1     4    1
     4     1     8    1
     5     8     5    1
     6     5     7    2
     7     5    12    1
     8     5     6    1
     9    12     9    1
    10    10     9    2
    11     9    11    1
    12     9    13    1
    13    13    14    1
    14    14    15    1
    15    17    15    1
    16    17    18    1
    17    15    16    1
    18    16    20    1
    19    18    20    1
    20    18    19    1
    21    22    23    1
    22    22    21    1
    23    20    21    1
    24    23    24    2
    25    21    30    1
    26    24    30    1
    27    24    25    1
    28    30    29    2
    29    29    28    1
    30    25    26    1
    31    25    27    2
    32    28    27    1
