@<TRIPOS>MOLECULE
1fa0_3AD_A_1.pdb
 18 20 0 0 0
SMALL
GASTEIGER

@<TRIPOS>ATOM
      1  O5'       81.8410   32.4970   69.2930 O.3   606  3AD606     -0.2177
      2  C5'       80.7910   33.1030   68.5340 C.3   606  3AD606      0.2116
      3  C4'       79.4290   32.6500   69.0020 C.3   606  3AD606      0.1549
      4  O4'       79.3960   32.7020   70.4540 O.3   606  3AD606     -0.3162
      5  C3'       78.2660   33.5080   68.5240 C.3   606  3AD606      0.0723
      6  C2'       78.1160   34.5220   69.6540 C.3   606  3AD606      0.2270
      7  O2'       76.7980   35.0130   69.7590 O.3   606  3AD606     -0.2158
      8  C1'       78.4600   33.6760   70.8830 C.3   606  3AD606      0.3159
      9  N9        79.0830   34.4310   71.9760 N.pl3 606  3AD606     -0.1439
     10  C8        80.1900   34.0470   72.6980 C.3   606  3AD606      0.3377
     11  N7        80.5530   34.9130   73.6130 N.2   606  3AD606     -0.2095
     12  C5        79.6230   35.9390   73.4930 C.2   606  3AD606      0.2526
     13  C6        79.4650   37.1620   74.1840 C.2   606  3AD606      0.4393
     14  N6        80.2730   37.5660   75.1720 N.pl3 606  3AD606      0.2180
     15  N1        78.4380   37.9630   73.8200 N.2   606  3AD606      0.0021
     16  C2        77.6320   37.5560   72.8330 C.3   606  3AD606      0.5254
     17  N3        77.6760   36.4310   72.1080 N.2   606  3AD606     -0.0055
     18  C4        78.7080   35.6550   72.4920 C.2   606  3AD606      0.3518
@<TRIPOS>BOND
     1     5     3    1
     2     5     6    1
     3     2     3    1
     4     2     1    1
     5     3     4    1
     6     6     7    1
     7     6     8    1
     8     4     8    1
     9     8     9    1
    10     9    18    1
    11     9    10    1
    12    17    18    2
    13    17    16    1
    14    18    12    1
    15    10    11    1
    16    16    15    1
    17    12    11    2
    18    12    13    1
    19    15    13    2
    20    13    14    1
