@<TRIPOS>MOLECULE
1fa2_DOM_A_1.pdb
 22 23 0 0 0
SMALL
GASTEIGER

@<TRIPOS>ATOM
      1  C1        72.1340  103.3870   18.2910 C.3   1597  DOM1597     0.2695
      2  C2        73.5750  103.9860   18.0830 C.3   1597  DOM1597     0.2406
      3  C3        73.5590  105.4530   17.7900 C.3   1597  DOM1597     0.2198
      4  C4        72.6950  105.7490   16.5620 C.3   1597  DOM1597     0.2144
      5  C5        71.2570  105.2280   16.8330 C.3   1597  DOM1597     0.1835
      6  C6        70.3850  105.3190   15.5610 C.3   1597  DOM1597     0.2142
      7  O1        71.4530  103.8950   19.4580 O.3   1597  DOM1597    -0.3258
      8  O2        74.3870  103.7100   19.1810 O.3   1597  DOM1597    -0.2149
      9  O3        74.8950  105.8630   17.6160 O.3   1597  DOM1597    -0.2174
     10  O4        72.7180  107.1880   16.3000 O.3   1597  DOM1597    -0.2176
     11  O5        71.2960  103.7950   17.0980 O.3   1597  DOM1597    -0.3256
     12  O6        68.9680  105.1350   15.7210 O.3   1597  DOM1597    -0.2176
     13  C1'       67.7260  102.0590   20.7250 C.3   1597  DOM1597     0.2716
     14  C2'       68.9970  101.4520   21.2230 C.3   1597  DOM1597     0.0998
     15  C3'       70.2330  102.3100   20.9510 C.3   1597  DOM1597     0.1866
     16  C4'       70.1700  103.1870   19.6400 C.3   1597  DOM1597     0.1778
     17  C5'       69.0710  104.1910   20.0900 C.3   1597  DOM1597     0.1802
     18  C6'       68.7880  105.1800   18.9630 C.3   1597  DOM1597     0.2141
     19  O1'       67.3340  101.2300   19.6400 O.3   1597  DOM1597    -0.1898
     20  O3'       71.3670  101.4470   21.0170 O.3   1597  DOM1597    -0.2203
     21  O5'       67.8080  103.4400   20.2480 O.3   1597  DOM1597    -0.3256
     22  O6'       67.3910  105.2720   18.6610 O.3   1597  DOM1597    -0.2176
@<TRIPOS>BOND
     1     6    12    1
     2     6     5    1
     3    10     4    1
     4     4     5    1
     5     4     3    1
     6     5    11    1
     7    11     1    1
     8     9     3    1
     9     3     2    1
    10     2     1    1
    11     2     8    1
    12     1     7    1
    13    22    18    1
    14    18    17    1
    15     7    16    1
    16    16    17    1
    17    16    15    1
    18    19    13    1
    19    17    21    1
    20    21    13    1
    21    13    14    1
    22    15    20    1
    23    15    14    1
