@<TRIPOS>MOLECULE
1fa9_GLC_A_1.pdb
 12 12 0 0 0
SMALL
GASTEIGER

@<TRIPOS>ATOM
      1  C1        33.0550   72.5780   32.3430 C.3   998  GLC998      0.3024
      2  C2        33.8410   71.3560   31.8760 C.3   998  GLC998      0.2434
      3  C3        33.3920   70.9750   30.4810 C.3   998  GLC998      0.2199
      4  C4        31.9050   70.6890   30.5300 C.3   998  GLC998      0.2144
      5  C5        31.1670   71.9220   31.0210 C.3   998  GLC998      0.1836
      6  C6        29.6830   71.6590   31.1540 C.3   998  GLC998      0.2142
      7  O1        33.3030   73.6520   31.5030 O.3   998  GLC998     -0.1869
      8  O2        35.2280   71.6460   31.8700 O.3   998  GLC998     -0.2148
      9  O3        34.0970   69.8240   30.0480 O.3   998  GLC998     -0.2174
     10  O4        31.4360   70.3410   29.2400 O.3   998  GLC998     -0.2176
     11  O5        31.6480   72.3060   32.3240 O.3   998  GLC998     -0.3236
     12  O6        28.9800   72.1450   30.0240 O.3   998  GLC998     -0.2176
@<TRIPOS>BOND
     1    10     4    1
     2    12     6    1
     3     9     3    1
     4     3     4    1
     5     3     2    1
     6     4     5    1
     7     5     6    1
     8     5    11    1
     9     7     1    1
    10     8     2    1
    11     2     1    1
    12    11     1    1
