@<TRIPOS>MOLECULE
1fa9_PLP_A_1.pdb
 15 15 0 0 0
SMALL
GASTEIGER

@<TRIPOS>ATOM
      1  N1        26.5450   72.8190   37.7740 N.ar  999  PLP999     -0.2452
      2  C2        25.6980   71.8210   38.1810 C.ar  999  PLP999      0.0978
      3  C2A       24.9860   71.9310   39.5400 C.3   999  PLP999      0.0555
      4  C3        25.4390   70.7610   37.3450 C.ar  999  PLP999      0.2049
      5  O3        24.6590   69.6900   37.7880 O.3   999  PLP999     -0.2857
      6  C4        26.0040   70.7200   36.1110 C.ar  999  PLP999      0.0182
      7  C4A       25.7130   69.6720   35.2670 C.3   999  PLP999      0.0342
      8  C5        26.8350   71.7090   35.7020 C.ar  999  PLP999      0.0261
      9  C6        27.1120   72.7580   36.5360 C.ar  999  PLP999      0.0965
     10  C5A       27.4580   71.6390   34.3130 C.3   999  PLP999      0.1815
     11  O4P       28.2560   72.7640   33.9610 O.3   999  PLP999     -0.2653
     12  P         27.8030   73.7960   32.7870 P.3   999  PLP999      0.5329
     13  O1P       27.1250   74.8900   33.5340 O.3   999  PLP999     -0.1145
     14  O2P       29.1400   74.1340   32.2360 O.3   999  PLP999     -0.1145
     15  O3P       26.9110   72.9630   31.9090 O.2   999  PLP999     -0.2224
@<TRIPOS>BOND
     1    15    12    2
     2    14    12    1
     3    12    13    1
     4    12    11    1
     5    11    10    1
     6    10     8    1
     7     7     6    1
     8     8     6   ar
     9     8     9   ar
    10     6     4   ar
    11     9     1   ar
    12     4     5    1
    13     4     2   ar
    14     1     2   ar
    15     2     3    1
