@<TRIPOS>MOLECULE
1fa9_AMP_A_1.pdb
 23 25 0 0 0
SMALL
GASTEIGER

@<TRIPOS>ATOM
      1  P         45.0500   49.8140   48.9840 P.3   997  AMP997      0.5327
      2  O1P       44.6930   51.2300   49.2590 O.3   997  AMP997     -0.1145
      3  O2P       46.1890   49.2550   49.7520 O.3   997  AMP997     -0.1145
      4  O3P       45.0660   49.4340   47.5570 O.2   997  AMP997     -0.2224
      5  O5'       43.8230   48.9900   49.6060 O.3   997  AMP997     -0.2675
      6  C5'       42.4310   49.1840   49.4120 C.3   997  AMP997      0.1860
      7  C4'       41.8130   47.8200   49.6650 C.3   997  AMP997      0.1823
      8  O4'       42.5190   46.9310   48.7890 O.3   997  AMP997     -0.3135
      9  C3'       42.0470   47.1740   51.0600 C.3   997  AMP997      0.2184
     10  O3'       41.0270   47.4930   52.0470 O.3   997  AMP997     -0.2174
     11  C2'       41.8770   45.7070   50.7320 C.3   997  AMP997      0.2570
     12  O2'       40.4400   45.4240   50.7960 O.3   997  AMP997     -0.2130
     13  C1'       42.4720   45.5780   49.2780 C.3   997  AMP997      0.3186
     14  N9        43.8390   45.0440   49.3050 N.pl3 997  AMP997     -0.1439
     15  C8        45.0320   45.7350   49.4790 C.3   997  AMP997      0.3377
     16  N7        46.0840   44.9640   49.6300 N.2   997  AMP997     -0.2095
     17  C5        45.5500   43.6770   49.5440 C.2   997  AMP997      0.2526
     18  C6        46.1500   42.4020   49.6420 C.2   997  AMP997      0.4393
     19  N6        47.4550   42.2380   49.8320 N.pl3 997  AMP997      0.2180
     20  N1        45.3530   41.3290   49.5250 N.2   997  AMP997      0.0021
     21  C2        44.0440   41.5220   49.3210 C.3   997  AMP997      0.5254
     22  N3        43.3570   42.6540   49.2130 N.2   997  AMP997     -0.0055
     23  C4        44.1910   43.7160   49.3380 C.2   997  AMP997      0.3518
@<TRIPOS>BOND
     1     4     1    2
     2     8    13    1
     3     8     7    1
     4     1     2    1
     5     1     5    1
     6     1     3    1
     7    22    21    1
     8    22    23    2
     9    13    14    1
    10    13    11    1
    11    14    23    1
    12    14    15    1
    13    21    20    1
    14    23    17    1
    15     6     5    1
    16     6     7    1
    17    15    16    1
    18    20    18    2
    19    17    16    2
    20    17    18    1
    21    18    19    1
    22     7     9    1
    23    11    12    1
    24    11     9    1
    25     9    10    1
