@<TRIPOS>MOLECULE
1fae_GLC_A_1.pdb
 11 11 0 0 0
SMALL
GASTEIGER

@<TRIPOS>ATOM
      1  C1        77.2580   93.5990   46.4240 C.3   2100  GLC2100     0.1777
      2  C2        77.7300   93.2060   47.8160 C.3   2100  GLC2100     0.2141
      3  C3        78.0150   91.7120   47.8840 C.3   2100  GLC2100     0.2173
      4  C4        76.7350   90.9680   47.4630 C.3   2100  GLC2100     0.2142
      5  C5        76.3130   91.4350   46.0640 C.3   2100  GLC2100     0.1810
      6  C6        75.0460   90.7750   45.5230 C.3   2100  GLC2100     0.2141
      7  O2        78.8980   93.9540   48.1370 O.3   2100  GLC2100    -0.2176
      8  O3        78.3710   91.3780   49.2160 O.3   2100  GLC2100    -0.2175
      9  O4        76.9670   89.5740   47.4420 O.3   2100  GLC2100    -0.2176
     10  O5        76.0880   92.8540   46.0700 O.3   2100  GLC2100    -0.3481
     11  O6        73.9790   90.8820   46.4470 O.3   2100  GLC2100    -0.2176
@<TRIPOS>BOND
     1     6     5    1
     2     6    11    1
     3     5    10    1
     4     5     4    1
     5    10     1    1
     6     1     2    1
     7     9     4    1
     8     4     3    1
     9     2     3    1
    10     2     7    1
    11     3     8    1
