@<TRIPOS>MOLECULE
1fag_HEM_A_1.pdb
 43 50 0 0 0
SMALL
GASTEIGER

@<TRIPOS>ATOM
      1 FE         47.9600    8.1170   83.1100 Fe    472  HEM472      0.0000
      2  CHA       44.8640    6.7720   83.6080 C.2   472  HEM472      0.0000
      3  CHB       46.9880    9.1820   80.0170 C.2   472  HEM472      0.0000
      4  CHC       51.0810    9.3320   82.5290 C.2   472  HEM472      0.0000
      5  CHD       49.0410    6.6150   85.9750 C.2   472  HEM472      0.0000
      6  NA        46.2770    8.0880   82.1130 N.ar  472  HEM472      0.0000
      7  C1A       45.0630    7.5010   82.4650 C.ar  472  HEM472      0.0000
      8  C2A       44.0540    7.6760   81.4360 C.ar  472  HEM472      0.0000
      9  C3A       44.6610    8.3440   80.4420 C.ar  472  HEM472      0.0000
     10  C4A       46.0370    8.5870   80.8450 C.ar  472  HEM472      0.0000
     11  CMA       43.9790    8.7890   79.1490 C.3   472  HEM472      0.0000
     12  CAA       42.5650    7.3280   81.4640 C.3   472  HEM472      0.0000
     13  CBA       42.2190    6.1210   80.6220 C.3   472  HEM472      0.0000
     14  CGA       40.7520    5.7860   80.6420 C.2   472  HEM472      0.0000
     15  O1A       39.9230    6.6710   80.9710 O.co2 472  HEM472      0.0000
     16  O2A       40.4250    4.6320   80.2940 O.co2 472  HEM472      0.0000
     17  NB        48.8640    8.9770   81.5440 N.2   472  HEM472      0.0000
     18  C1B       48.3080    9.3720   80.3140 C.2   472  HEM472      0.0000
     19  C2B       49.2310   10.1260   79.4700 C.2   472  HEM472      0.0000
     20  C3B       50.4050   10.1750   80.1940 C.2   472  HEM472      0.0000
     21  C4B       50.1640    9.4680   81.4740 C.2   472  HEM472      0.0000
     22  CMB       48.9000   10.7840   78.1340 C.3   472  HEM472      0.0000
     23  CAB       51.6360   10.7310   79.8210 C.2   472  HEM472      0.0000
     24  CBB       51.8300   11.7890   78.9950 C.2   472  HEM472      0.0000
     25  NC        49.6570    8.0320   84.0970 N.ar  472  HEM472      0.0000
     26  C1C       50.8500    8.6660   83.7590 C.ar  472  HEM472      0.0000
     27  C2C       51.8360    8.5020   84.8340 C.ar  472  HEM472      0.0000
     28  C3C       51.2520    7.7360   85.8170 C.ar  472  HEM472      0.0000
     29  C4C       49.9280    7.4270   85.3190 C.ar  472  HEM472      0.0000
     30  CMC       53.2810    9.0370   84.7970 C.3   472  HEM472      0.0000
     31  CAC       51.7620    7.2940   87.0350 C.2   472  HEM472      0.0000
     32  CBC       53.0000    7.4830   87.5640 C.2   472  HEM472      0.0000
     33  ND        47.1350    6.9820   84.4980 N.2   472  HEM472      0.0000
     34  C1D       47.7370    6.3900   85.5900 C.2   472  HEM472      0.0000
     35  C2D       46.8080    5.5910   86.3250 C.2   472  HEM472      0.0000
     36  C3D       45.6540    5.6860   85.7000 C.2   472  HEM472      0.0000
     37  C4D       45.8330    6.5410   84.5670 C.2   472  HEM472      0.0000
     38  CMD       47.0740    4.7070   87.5210 C.3   472  HEM472      0.0000
     39  CAD       44.3860    4.9780   86.0800 C.3   472  HEM472      0.0000
     40  CBD       43.4790    6.0080   86.7210 C.3   472  HEM472      0.0000
     41  CGD       42.1300    5.4500   87.0810 C.2   472  HEM472      0.0000
     42  O1D       41.8590    5.3530   88.2880 O.co2 472  HEM472      0.0000
     43  O2D       41.3540    5.1220   86.1590 O.co2 472  HEM472      0.0000
@<TRIPOS>BOND
     1    22    19    1
     2    24    23    2
     3    11     9    1
     4    19    20    2
     5    19    18    1
     6    23    20    1
     7     3    18    1
     8     3    10    2
     9    20    21    1
    10    16    14   ar
    11    18    17    2
    12     9    10   ar
    13     9     8   ar
    14    13    14    1
    15    13    12    1
    16    14    15   ar
    17    10     6   ar
    18     8    12    1
    19     8     7   ar
    20    21    17    1
    21    21     4    2
    22    17     1    1
    23     6     7   ar
    24     6     1    1
    25     7     2    2
    26     4    26    1
    27     1    25    1
    28     1    33    1
    29     2    37    1
    30    26    25   ar
    31    26    27   ar
    32    25    29   ar
    33    33    37    2
    34    33    34    1
    35    37    36    1
    36    30    27    1
    37    27    28   ar
    38    29    28   ar
    39    29     5    1
    40    34     5    2
    41    34    35    1
    42    36    39    1
    43    36    35    2
    44    28    31    1
    45    39    40    1
    46    43    41   ar
    47    35    38    1
    48    40    41    1
    49    31    32    2
    50    41    42   ar
