@<TRIPOS>MOLECULE
1fag_PAM_A_1.pdb
 18 17 0 0 0
SMALL
GASTEIGER

@<TRIPOS>ATOM
      1  C1        41.1560    0.0310   69.3530 C.2   473  PAM473      0.3649
      2  O1        40.3700    0.9220   69.7340 O.co2 473  PAM473     -0.2457
      3  O2        40.7880   -0.9020   68.6120 O.co2 473  PAM473     -0.2457
      4  C2        42.6180    0.0650   69.7880 C.3   473  PAM473      0.1141
      5  C3        43.0890    1.4190   70.3090 C.3   473  PAM473      0.0118
      6  C4        42.7550    1.5930   71.7690 C.3   473  PAM473      0.0006
      7  C5        43.7200    2.5040   72.4750 C.3   473  PAM473      0.0000
      8  C6        43.8570    2.0180   73.8820 C.3   473  PAM473      0.0003
      9  C7        44.7440    2.8930   74.6900 C.3   473  PAM473      0.0047
     10  C8        44.9270    2.2770   76.0430 C.3   473  PAM473      0.0257
     11  C9        45.8130    3.0870   76.9420 C.2   473  PAM473     -0.0307
     12  C10       46.7750    2.4700   77.7190 C.2   473  PAM473     -0.0307
     13  C11       46.9550    0.9700   77.6850 C.3   473  PAM473      0.0257
     14  C12       48.0410    0.4760   78.6120 C.3   473  PAM473      0.0047
     15  C13       47.8270    1.0120   80.0220 C.3   473  PAM473      0.0003
     16  C14       48.8050    0.4070   81.0050 C.3   473  PAM473      0.0000
     17  C15       48.2950   -0.8980   81.5630 C.3   473  PAM473      0.0000
     18  C16       47.5110   -0.7430   82.8130 C.3   473  PAM473      0.0000
@<TRIPOS>BOND
     1     3     1   ar
     2     1     2   ar
     3     1     4    1
     4     4     5    1
     5     5     6    1
     6     6     7    1
     7     7     8    1
     8     8     9    1
     9     9    10    1
    10    10    11    1
    11    11    12    2
    12    13    12    1
    13    13    14    1
    14    14    15    1
    15    15    16    1
    16    16    17    1
    17    17    18    1
