@<TRIPOS>MOLECULE
1fah_HEM_A_1.pdb
 43 50 0 0 0
SMALL
GASTEIGER

@<TRIPOS>ATOM
      1 FE         53.1400   67.1460   45.6840 Fe    472  HEM472      0.0000
      2  CHA       55.4740   65.0880   44.1550 C.2   472  HEM472      0.0000
      3  CHB       50.5850   65.1630   44.5800 C.2   472  HEM472      0.0000
      4  CHC       50.9050   69.1760   47.2970 C.2   472  HEM472      0.0000
      5  CHD       55.6830   69.3210   46.5090 C.2   472  HEM472      0.0000
      6  NA        53.0460   65.4900   44.6250 N.ar  472  HEM472      0.0000
      7  C1A       54.0990   64.7600   44.0610 C.ar  472  HEM472      0.0000
      8  C2A       53.6020   63.6210   43.3400 C.ar  472  HEM472      0.0000
      9  C3A       52.2690   63.6140   43.4150 C.ar  472  HEM472      0.0000
     10  C4A       51.9070   64.7840   44.2300 C.ar  472  HEM472      0.0000
     11  CMA       51.3720   62.5790   42.7190 C.3   472  HEM472      0.0000
     12  CAA       54.4470   62.6000   42.5980 C.3   472  HEM472      0.0000
     13  CBA       54.5910   62.9830   41.1320 C.3   472  HEM472      0.0000
     14  CGA       55.4090   61.9730   40.3290 C.2   472  HEM472      0.0000
     15  O1A       55.6780   60.8580   40.8320 O.co2 472  HEM472      0.0000
     16  O2A       55.7780   62.2960   39.1830 O.co2 472  HEM472      0.0000
     17  NB        51.1460   67.1690   45.8760 N.2   472  HEM472      0.0000
     18  C1B       50.2100   66.2770   45.3510 C.2   472  HEM472      0.0000
     19  C2B       48.8430   66.6220   45.7360 C.2   472  HEM472      0.0000
     20  C3B       48.9690   67.7340   46.5270 C.2   472  HEM472      0.0000
     21  C4B       50.3810   68.0650   46.6090 C.2   472  HEM472      0.0000
     22  CMB       47.5160   65.9530   45.2610 C.3   472  HEM472      0.0000
     23  CAB       47.9620   68.5200   47.0920 C.2   472  HEM472      0.0000
     24  CBB       46.9910   68.1400   47.9650 C.2   472  HEM472      0.0000
     25  NC        53.2440   68.8500   46.6680 N.ar  472  HEM472      0.0000
     26  C1C       52.2410   69.5260   47.3370 C.ar  472  HEM472      0.0000
     27  C2C       52.7560   70.6760   48.0330 C.ar  472  HEM472      0.0000
     28  C3C       54.0940   70.7370   47.7570 C.ar  472  HEM472      0.0000
     29  C4C       54.3800   69.6170   46.9190 C.ar  472  HEM472      0.0000
     30  CMC       52.0220   71.7360   48.8590 C.3   472  HEM472      0.0000
     31  CAC       54.9760   71.7920   48.0320 C.2   472  HEM472      0.0000
     32  CBC       55.4150   72.1960   49.2510 C.2   472  HEM472      0.0000
     33  ND        55.1460   67.1840   45.4090 N.2   472  HEM472      0.0000
     34  C1D       56.0530   68.1770   45.8060 C.2   472  HEM472      0.0000
     35  C2D       57.4170   67.8520   45.4190 C.2   472  HEM472      0.0000
     36  C3D       57.3830   66.6180   44.8740 C.2   472  HEM472      0.0000
     37  C4D       55.9760   66.2240   44.8000 C.2   472  HEM472      0.0000
     38  CMD       58.6140   68.8110   45.5120 C.3   472  HEM472      0.0000
     39  CAD       58.5950   65.7820   44.4900 C.3   472  HEM472      0.0000
     40  CBD       59.2750   64.9990   45.6160 C.3   472  HEM472      0.0000
     41  CGD       60.5020   64.2300   45.1340 C.2   472  HEM472      0.0000
     42  O1D       61.5420   64.2350   45.8360 O.co2 472  HEM472      0.0000
     43  O2D       60.4320   63.6180   44.0560 O.co2 472  HEM472      0.0000
@<TRIPOS>BOND
     1    16    14   ar
     2    14    15   ar
     3    14    13    1
     4    13    12    1
     5    12     8    1
     6    11     9    1
     7     8     9   ar
     8     8     7   ar
     9     9    10   ar
    10    43    41   ar
    11     7     2    2
    12     7     6   ar
    13     2    37    1
    14    10     3    2
    15    10     6   ar
    16    39    36    1
    17    39    40    1
    18     3    18    1
    19     6     1    1
    20    37    36    1
    21    37    33    2
    22    36    35    2
    23    41    40    1
    24    41    42   ar
    25    22    19    1
    26    18    19    1
    27    18    17    2
    28    33     1    1
    29    33    34    1
    30    35    38    1
    31    35    34    1
    32     1    17    1
    33     1    25    1
    34    19    20    2
    35    34     5    2
    36    17    21    1
    37     5    29    1
    38    20    21    1
    39    20    23    1
    40    21     4    2
    41    25    29   ar
    42    25    26   ar
    43    29    28   ar
    44    23    24    2
    45     4    26    1
    46    26    27   ar
    47    28    31    1
    48    28    27   ar
    49    31    32    2
    50    27    30    1
