@<TRIPOS>MOLECULE
1fak_GLC_L_1.pdb
 11 11 0 0 0
SMALL
GASTEIGER

@<TRIPOS>ATOM
      1  C1        -3.4960  104.4030   56.1990 C.3   600  GLC600      0.1777
      2  C2        -4.2660  103.3270   56.9740 C.3   600  GLC600      0.2141
      3  C3        -3.6840  101.9230   56.6920 C.3   600  GLC600      0.2173
      4  C4        -3.4930  101.7450   55.1610 C.3   600  GLC600      0.2142
      5  C5        -2.4650  102.8000   54.6150 C.3   600  GLC600      0.1810
      6  C6        -2.2710  102.5450   53.0770 C.3   600  GLC600      0.2141
      7  O2        -4.3090  103.6520   58.3500 O.3   600  GLC600     -0.2176
      8  O3        -4.4960  100.8710   57.1550 O.3   600  GLC600     -0.2175
      9  O4        -3.0520  100.4890   54.7880 O.3   600  GLC600     -0.2176
     10  O5        -2.9840  104.0890   54.9070 O.3   600  GLC600     -0.3481
     11  O6        -2.8730  101.2620   52.7200 O.3   600  GLC600     -0.2176
@<TRIPOS>BOND
     1    11     6    1
     2     6     5    1
     3     5    10    1
     4     5     4    1
     5     9     4    1
     6    10     1    1
     7     4     3    1
     8     1     2    1
     9     3     2    1
    10     3     8    1
    11     2     7    1
