@<TRIPOS>MOLECULE
1fak_FUC_L_1.pdb
 10 10 0 0 0
SMALL
GASTEIGER

@<TRIPOS>ATOM
      1  C1         9.1400  109.7690   64.3420 C.3   601  FUC601      0.1776
      2  C2         9.0020  110.9970   65.2930 C.3   601  FUC601      0.2141
      3  C3         8.2280  110.5970   66.5640 C.3   601  FUC601      0.2172
      4  C4         9.0330  109.4360   67.2480 C.3   601  FUC601      0.2116
      5  C5         9.1680  108.1830   66.3050 C.3   601  FUC601      0.1483
      6  C6        10.2090  107.1690   66.8430 C.3   601  FUC601      0.0349
      7  O2         8.3260  112.0630   64.6340 O.3   601  FUC601     -0.2176
      8  O3         8.1160  111.7370   67.4340 O.3   601  FUC601     -0.2175
      9  O4        10.3440  109.9080   67.4470 O.3   601  FUC601     -0.2177
     10  O5         9.6040  108.5400   64.9770 O.3   601  FUC601     -0.3508
@<TRIPOS>BOND
     1     1    10    1
     2     1     2    1
     3     7     2    1
     4    10     5    1
     5     2     3    1
     6     5     6    1
     7     5     4    1
     8     3     4    1
     9     3     8    1
    10     4     9    1
