@<TRIPOS>MOLECULE
1fao_4IP_A_1.pdb
 28 28 0 0 0
SMALL
GASTEIGER

@<TRIPOS>ATOM
      1  C1        25.9280    6.5440    8.2430 C.3   274  4IP274      0.1917
      2  O1        26.7630    7.6030    7.7540 O.3   274  4IP274     -0.2673
      3  C2        24.9410    7.0920    9.2600 C.3   274  4IP274      0.2120
      4  O2        25.6410    7.6550   10.3600 O.3   274  4IP274     -0.2177
      5  C3        24.0450    5.9750    9.7510 C.3   274  4IP274      0.1890
      6  O3        23.0660    6.5010   10.6580 O.3   274  4IP274     -0.2674
      7  C4        24.8450    4.8640   10.4260 C.3   274  4IP274      0.1865
      8  O4        23.9780    3.7670   10.7620 O.3   274  4IP274     -0.2675
      9  C5        26.0020    4.3490    9.5720 C.3   274  4IP274      0.1890
     10  O5        26.8830    3.5660   10.3910 O.3   274  4IP274     -0.2674
     11  C6        26.7960    5.4440    8.8480 C.3   274  4IP274      0.2120
     12  O6        27.5830    4.8550    7.8210 O.3   274  4IP274     -0.2177
     13  P1        26.3810    8.4170    6.3980 P.3   274  4IP274      0.5327
     14  O1P       27.1890    9.7010    6.4810 O.3   274  4IP274     -0.1145
     15  O2P       24.8780    8.6280    6.4550 O.3   274  4IP274     -0.1145
     16  O3P       26.8040    7.5350    5.2420 O.2   274  4IP274     -0.2224
     17  P3        21.4830    6.3590   10.3300 P.3   274  4IP274      0.5327
     18  O4P       20.7630    7.0130   11.4960 O.3   274  4IP274     -0.1145
     19  O5P       21.2520    7.0410    8.9930 O.2   274  4IP274     -0.2224
     20  O6P       21.2280    4.8560   10.2690 O.3   274  4IP274     -0.1145
     21  P4        23.5020    3.4960   12.2940 P.3   274  4IP274      0.5327
     22  O7P       24.2330    4.4920   13.1770 O.3   274  4IP274     -0.1145
     23  O8P       22.0040    3.7180   12.2810 O.2   274  4IP274     -0.2224
     24  O9P       23.8730    2.0540   12.6080 O.3   274  4IP274     -0.1145
     25  P5        27.6430    2.2530    9.8030 P.3   274  4IP274      0.5327
     26  OPF       28.0640    1.4830   11.0420 O.3   274  4IP274     -0.1145
     27  OPG       26.6090    1.5200    8.9610 O.2   274  4IP274     -0.2224
     28  OPH       28.8090    2.7970    8.9930 O.3   274  4IP274     -0.1145
@<TRIPOS>BOND
     1    16    13    2
     2    13    15    1
     3    13    14    1
     4    13     2    1
     5     2     1    1
     6    12    11    1
     7     1    11    1
     8     1     3    1
     9    11     9    1
    10    27    25    2
    11    28    25    1
    12    19    17    2
    13     3     5    1
    14     3     4    1
    15     9    10    1
    16     9     7    1
    17     5     7    1
    18     5     6    1
    19    25    10    1
    20    25    26    1
    21    20    17    1
    22    17     6    1
    23    17    18    1
    24     7     8    1
    25     8    21    1
    26    23    21    2
    27    21    24    1
    28    21    22    1
