@<TRIPOS>MOLECULE
1fat_NAG_A_1.pdb
 14 14 0 0 0
SMALL
GASTEIGER

@<TRIPOS>ATOM
      1  C1        43.3840  -12.9640   33.4580 C.3   253  NAG253      0.1665
      2  C2        43.5850  -14.4380   33.1960 C.3   253  NAG253      0.1576
      3  C3        44.9870  -14.8320   33.6380 C.3   253  NAG253      0.2069
      4  C4        46.0430  -13.9450   33.0250 C.3   253  NAG253      0.2134
      5  C5        45.6840  -12.4590   33.2460 C.3   253  NAG253      0.1809
      6  C6        46.5930  -11.4820   32.5360 C.3   253  NAG253      0.2141
      7  C7        41.7890  -16.0690   33.4220 C.2   253  NAG253      0.2420
      8  C8        40.8420  -16.8080   34.3490 C.3   253  NAG253      0.0964
      9  N2        42.6220  -15.1930   33.9810 N.am  253  NAG253     -0.2019
     10  O3        45.2490  -16.1700   33.2830 O.3   253  NAG253     -0.2184
     11  O4        47.2790  -14.2530   33.6530 O.3   253  NAG253     -0.2176
     12  O5        44.3710  -12.2120   32.7600 O.3   253  NAG253     -0.3489
     13  O6        47.9030  -11.5310   33.0850 O.3   253  NAG253     -0.2176
     14  O7        41.7630  -16.3260   32.2200 O.2   253  NAG253     -0.2733
@<TRIPOS>BOND
     1    14     7    2
     2     6    13    1
     3     6     5    1
     4    12     5    1
     5    12     1    1
     6     4     5    1
     7     4     3    1
     8     4    11    1
     9     2     1    1
    10     2     3    1
    11     2     9    1
    12    10     3    1
    13     7     9   am
    14     7     8    1
