@<TRIPOS>MOLECULE
1faw_HEM_A_1.pdb
 43 50 0 0 0
SMALL
GASTEIGER

@<TRIPOS>ATOM
      1 FE        -39.3500   36.0160    9.4970 Fe    150  HEM150      0.0000
      2  CHA      -41.5140   34.0230    7.8280 C.2   150  HEM150      0.0000
      3  CHB      -41.8980   38.0490   10.4770 C.2   150  HEM150      0.0000
      4  CHC      -37.1370   38.1350   10.9140 C.2   150  HEM150      0.0000
      5  CHD      -36.7420   34.4640    7.9530 C.2   150  HEM150      0.0000
      6  NA       -41.2660   36.0520    9.1980 N.2   150  HEM150      0.0000
      7  C1A      -42.0230   35.1180    8.4940 C.2   150  HEM150      0.0000
      8  C2A      -43.4170   35.3940    8.6320 C.2   150  HEM150      0.0000
      9  C3A      -43.5570   36.5780    9.2480 C.2   150  HEM150      0.0000
     10  C4A      -42.2040   36.9640    9.6760 C.2   150  HEM150      0.0000
     11  CMA      -44.8570   37.3310    9.4210 C.3   150  HEM150      0.0000
     12  CAA      -44.4410   34.3340    8.5460 C.3   150  HEM150      0.0000
     13  CBA      -45.3540   34.5360    7.3770 C.3   150  HEM150      0.0000
     14  CGA      -46.0720   33.2580    7.0000 C.2   150  HEM150      0.0000
     15  O1A      -46.7990   32.6950    7.8640 O.co2 150  HEM150      0.0000
     16  O2A      -45.8920   32.8210    5.8370 O.co2 150  HEM150      0.0000
     17  NB       -39.5070   37.7000   10.5330 N.ar  150  HEM150      0.0000
     18  C1B      -40.6400   38.4190   10.8690 C.ar  150  HEM150      0.0000
     19  C2B      -40.2910   39.6560   11.5720 C.ar  150  HEM150      0.0000
     20  C3B      -38.9390   39.6940   11.6630 C.ar  150  HEM150      0.0000
     21  C4B      -38.4670   38.4630   11.0500 C.ar  150  HEM150      0.0000
     22  CMB      -41.2330   40.7240   12.0750 C.3   150  HEM150      0.0000
     23  CAB      -38.1190   40.7280   12.0780 C.3   150  HEM150      0.0000
     24  CBB      -38.3080   41.5750   13.2960 C.3   150  HEM150      0.0000
     25  NC       -37.3610   36.2200    9.4860 N.2   150  HEM150      0.0000
     26  C1C      -36.6100   37.1150   10.1870 C.2   150  HEM150      0.0000
     27  C2C      -35.2000   36.9540    9.9680 C.2   150  HEM150      0.0000
     28  C3C      -35.0720   35.9140    9.1110 C.2   150  HEM150      0.0000
     29  C4C      -36.4220   35.5000    8.7920 C.2   150  HEM150      0.0000
     30  CMC      -34.1060   37.8350   10.5700 C.3   150  HEM150      0.0000
     31  CAC      -33.9040   35.2880    8.7100 C.3   150  HEM150      0.0000
     32  CBC      -32.8010   35.9490    7.9350 C.3   150  HEM150      0.0000
     33  ND       -39.1810   34.4730    8.2720 N.ar  150  HEM150      0.0000
     34  C1D      -38.0140   33.9590    7.7170 C.ar  150  HEM150      0.0000
     35  C2D      -38.3000   32.8540    6.8240 C.ar  150  HEM150      0.0000
     36  C3D      -39.6530   32.7450    6.7690 C.ar  150  HEM150      0.0000
     37  C4D      -40.1870   33.7130    7.7050 C.ar  150  HEM150      0.0000
     38  CMD      -37.2770   32.0010    6.0790 C.3   150  HEM150      0.0000
     39  CAD      -40.3960   31.8880    5.7480 C.3   150  HEM150      0.0000
     40  CBD      -41.0380   32.6200    4.5820 C.3   150  HEM150      0.0000
     41  CGD      -41.4810   31.6810    3.4710 C.2   150  HEM150      0.0000
     42  O1D      -42.1600   32.1440    2.5330 O.co2 150  HEM150      0.0000
     43  O2D      -41.1440   30.4800    3.5240 O.co2 150  HEM150      0.0000
@<TRIPOS>BOND
     1    42    41   ar
     2    41    43   ar
     3    41    40    1
     4    40    39    1
     5    39    36    1
     6    16    14   ar
     7    38    35    1
     8    36    35   ar
     9    36    37   ar
    10    35    34   ar
    11    14    13    1
    12    14    15   ar
    13    13    12    1
    14    37     2    2
    15    37    33   ar
    16    34     5    2
    17    34    33   ar
    18     2     7    1
    19    32    31    1
    20     5    29    1
    21    33     1    1
    22     7     8    1
    23     7     6    2
    24    12     8    1
    25     8     9    2
    26    31    28    1
    27    29    28    1
    28    29    25    2
    29    28    27    2
    30     6     1    1
    31     6    10    1
    32     9    11    1
    33     9    10    1
    34    25     1    1
    35    25    26    1
    36     1    17    1
    37    10     3    2
    38    27    26    1
    39    27    30    1
    40    26     4    2
    41     3    18    1
    42    17    18   ar
    43    17    21   ar
    44    18    19   ar
    45     4    21    1
    46    21    20   ar
    47    19    20   ar
    48    19    22    1
    49    20    23    1
    50    23    24    1
