@<TRIPOS>MOLECULE
1fax_DX9_A_1.pdb
 39 42 0 0 0
SMALL
GASTEIGER

@<TRIPOS>ATOM
      1  C12        7.3860    8.0220   24.6130 C.ar  265  DX9265     -0.0042
      2  C13        6.8510    8.5690   23.4630 C.ar  265  DX9265     -0.0213
      3  C11        7.6620    9.4000   22.6650 C.ar  265  DX9265     -0.0042
      4  C10        8.9470    9.7530   23.0930 C.ar  265  DX9265     -0.0003
      5  C7         9.4380    9.2310   24.2950 C.ar  265  DX9265     -0.0000
      6  C6        10.7200    9.5510   24.7430 C.ar  265  DX9265      0.0002
      7  C5        11.1950    8.9950   25.9340 C.ar  265  DX9265      0.0072
      8  C4        10.4250    8.0720   26.6620 C.ar  265  DX9265      0.0774
      9  C9         9.1340    7.8410   26.2190 C.ar  265  DX9265      0.0072
     10  C8         8.6490    8.3480   25.0430 C.ar  265  DX9265     -0.0001
     11  C2        10.9090    7.3820   27.7650 C.2   265  DX9265      0.2674
     12  N2        10.1050    6.5260   28.4000 N.pl3 265  DX9265     -0.2497
     13  N1        12.1710    7.5740   28.1700 N.2   265  DX9265     -0.2884
     14  C14        5.4000    8.2470   23.1480 C.3   265  DX9265      0.0420
     15  C22        3.5350    7.7930   21.6200 C.2   265  DX9265      0.3687
     16  O23        2.9820    6.7090   21.8260 O.co2 265  DX9265     -0.2453
     17  O24        2.9120    8.8320   21.3890 O.co2 265  DX9265     -0.2453
     18  C15        5.0580    7.9040   21.7030 C.3   265  DX9265      0.1299
     19  N28        7.7040    1.8270   17.2590 N.3   265  DX9265     -0.2583
     20  C27        7.4520    2.9440   18.1600 C.3   265  DX9265      0.1171
     21  C26        8.7690    3.1530   18.8680 C.3   265  DX9265      0.1832
     22  C30        9.3440    1.7900   18.7950 C.3   265  DX9265      0.0623
     23  C29        8.9230    1.0600   17.5440 C.3   265  DX9265      0.0771
     24  C31        6.8740    1.5560   16.2570 C.3   265  DX9265      0.1121
     25  N32        7.0060    0.4220   15.5920 N.3   265  DX9265     -0.3097
     26  C33        5.7010    2.4500   15.8530 C.3   265  DX9265      0.0351
     27  C21        5.9360    5.5240   21.9400 C.ar  265  DX9265     -0.0006
     28  C20        6.8210    4.5210   21.5670 C.ar  265  DX9265      0.0366
     29  C17        6.7960    6.9530   20.1780 C.ar  265  DX9265     -0.0006
     30  C18        7.6780    5.9480   19.8020 C.ar  265  DX9265      0.0366
     31  C19        7.6880    4.7380   20.5010 C.ar  265  DX9265      0.1384
     32  O25        8.6120    3.6880   20.1390 O.3   265  DX9265     -0.4777
     33  C16        5.9370    6.7410   21.2500 C.ar  265  DX9265     -0.0113
     34 HN21       10.3570    5.9860   29.1920 H     265  DX9265      0.2883
     35 HN12       12.7390    8.2160   27.6510 H     265  DX9265      0.3009
     36 HN11       12.5750    7.1100   28.9540 H     265  DX9265      0.3009
     37 HN31        7.8800   -0.0060   15.5110 H     265  DX9265      0.1200
     38 HN22        9.1420    6.4720   28.0960 H     265  DX9265      0.2883
     39 HN32        6.1940    0.0590   15.1810 H     265  DX9265      0.1200
@<TRIPOS>BOND
     1    39    25    1
     2    37    25    1
     3    25    24    1
     4    26    24    1
     5    24    19    1
     6    19    23    1
     7    19    20    1
     8    23    22    1
     9    20    21    1
    10    22    21    1
    11    21    32    1
    12    30    29   ar
    13    30    31   ar
    14    32    31    1
    15    29    33   ar
    16    31    28   ar
    17    33    18    1
    18    33    27   ar
    19    17    15   ar
    20    28    27   ar
    21    15    18    1
    22    15    16   ar
    23    18    14    1
    24     3     4   ar
    25     3     2   ar
    26     4     5   ar
    27    14     2    1
    28     2     1   ar
    29     5     6   ar
    30     5    10   ar
    31     1    10   ar
    32     6     7   ar
    33    10     9   ar
    34     7     8   ar
    35     9     8   ar
    36     8    11    1
    37    35    13    1
    38    11    13    2
    39    11    12    1
    40    38    12    1
    41    13    36    1
    42    12    34    1
