@<TRIPOS>MOLECULE
1fay_AMG_A_1.pdb
 13 13 0 0 0
SMALL
GASTEIGER

@<TRIPOS>ATOM
      1  C1       -21.0540    9.7610   14.4360 C.3   400  AMG400      0.2695
      2  C2       -22.5280   10.1750   14.5980 C.3   400  AMG400      0.2406
      3  C3       -23.3080    9.7360   13.3680 C.3   400  AMG400      0.2198
      4  C4       -22.6870   10.3400   12.0970 C.3   400  AMG400      0.2144
      5  C5       -21.2110    9.9410   12.0060 C.3   400  AMG400      0.1835
      6  C6       -20.4930   10.6080   10.8490 C.3   400  AMG400      0.2142
      7  C7       -19.5890    7.8430   14.5750 C.3   400  AMG400      0.1769
      8  O1       -20.9320    8.3660   14.5080 O.3   400  AMG400     -0.3259
      9  O2       -23.0910    9.5890   15.7690 O.3   400  AMG400     -0.2149
     10  O3       -24.6650   10.1180   13.4870 O.3   400  AMG400     -0.2174
     11  O4       -22.7960   11.7530   12.1190 O.3   400  AMG400     -0.2176
     12  O5       -20.5070   10.3080   13.2210 O.3   400  AMG400     -0.3256
     13  O6       -19.2230   10.0080   10.6290 O.3   400  AMG400     -0.2176
@<TRIPOS>BOND
     1    13     6    1
     2     6     5    1
     3     5     4    1
     4     5    12    1
     5     4    11    1
     6     4     3    1
     7    12     1    1
     8     3    10    1
     9     3     2    1
    10     1     8    1
    11     1     2    1
    12     8     7    1
    13     2     9    1
