@<TRIPOS>MOLECULE
1fay_NAG_A_1.pdb
 14 14 0 0 0
SMALL
GASTEIGER

@<TRIPOS>ATOM
      1  C1       -30.9520   17.5660   -6.1820 C.3   501  NAG501      0.1665
      2  C2       -31.1440   17.6280   -7.6790 C.3   501  NAG501      0.1576
      3  C3       -29.7300   17.7600   -8.1950 C.3   501  NAG501      0.2069
      4  C4       -29.0400   18.9820   -7.5720 C.3   501  NAG501      0.2134
      5  C5       -29.1680   18.9970   -6.0440 C.3   501  NAG501      0.1809
      6  C6       -28.7220   20.2860   -5.4070 C.3   501  NAG501      0.2141
      7  C7       -32.7900   16.4860   -9.0350 C.2   501  NAG501      0.2420
      8  C8       -33.3280   15.1610   -9.5710 C.3   501  NAG501      0.0964
      9  N2       -31.7470   16.4200   -8.2060 N.am  501  NAG501     -0.2019
     10  O3       -29.7340   17.8670   -9.6090 O.3   501  NAG501     -0.2184
     11  O4       -27.6510   18.9670   -7.9100 O.3   501  NAG501     -0.2176
     12  O5       -30.5210   18.8100   -5.6910 O.3   501  NAG501     -0.3489
     13  O6       -29.3180   21.4030   -6.0470 O.3   501  NAG501     -0.2176
     14  O7       -33.3380   17.5460   -9.3530 O.2   501  NAG501     -0.2733
@<TRIPOS>BOND
     1    10     3    1
     2     8     7    1
     3    14     7    2
     4     7     9   am
     5     9     2    1
     6     3     2    1
     7     3     4    1
     8    11     4    1
     9     2     1    1
    10     4     5    1
    11     1    12    1
    12    13     6    1
    13     5    12    1
    14     5     6    1
