@<TRIPOS>MOLECULE
1fb7_ROC_A_1.pdb
 49 53 0 0 0
SMALL
GASTEIGER

@<TRIPOS>ATOM
      1  C         40.9720   -0.4440   76.8220 C.2   100  ROC100      0.2949
      2  O         42.0820    0.0840   76.5200 O.2   100  ROC100     -0.2655
      3  N1        39.1250   -1.9400   76.4110 N.2   100  ROC100     -0.4012
      4  C2        40.4260   -1.6400   76.1750 C.2   100  ROC100      0.1857
      5  C3        41.1770   -2.4810   75.3430 C.2   100  ROC100      0.0369
      6  C4        40.5820   -3.5980   74.7780 C.2   100  ROC100      0.0050
      7  C5        38.6310   -4.9860   74.4910 C.2   100  ROC100      0.0019
      8  C6        37.3040   -5.2400   74.7730 C.2   100  ROC100     -0.0041
      9  C7        36.5890   -4.4000   75.5990 C.2   100  ROC100     -0.0187
     10  C8        37.1830   -3.2840   76.1600 C.3   100  ROC100      0.0849
     11  C4A       39.2470   -3.8720   75.0440 C.2   100  ROC100      0.0258
     12  C8A       38.5190   -3.0280   75.8730 C.2   100  ROC100      0.1135
     13  N         40.2040    0.0690   77.7880 N.am  100  ROC100     -0.1913
     14  CA        40.7010    1.0290   78.7700 C.3   100  ROC100      0.1823
     15  C1        40.4870    0.5480   80.2010 C.2   100  ROC100      0.2618
     16  O1        39.3900    0.6590   80.7680 O.2   100  ROC100     -0.2715
     17  CB        40.0140    2.3570   78.5770 C.3   100  ROC100      0.1195
     18  CG        40.8050    3.1090   77.5560 C.2   100  ROC100      0.2630
     19  OD1       40.4910    3.1440   76.3620 O.2   100  ROC100     -0.2716
     20  ND2       41.8980    3.7540   77.8710 N.am  100  ROC100     -0.0877
     21  C9        42.5950    0.1620   82.9610 C.3   100  ROC100      0.1879
     22  O2        43.8680   -0.2420   82.5080 O.3   100  ROC100     -0.2198
     23  CA1       41.5240   -0.5510   82.1160 C.3   100  ROC100      0.1313
     24  N2        41.5810   -0.0150   80.7680 N.am  100  ROC100     -0.2027
     25  CB1       41.7470   -2.0520   82.0490 C.3   100  ROC100      0.0506
     26  CG1       40.7980   -2.7230   81.0860 C.ar  100  ROC100     -0.0204
     27  CD1       39.4540   -2.8460   81.4230 C.ar  100  ROC100     -0.0042
     28  CD2       41.2790   -3.2050   79.8790 C.ar  100  ROC100     -0.0042
     29  CE1       38.5920   -3.4580   80.5380 C.ar  100  ROC100     -0.0003
     30  CE2       40.4000   -3.8140   79.0070 C.ar  100  ROC100     -0.0003
     31  CZ        39.0630   -3.9410   79.3340 C.ar  100  ROC100     -0.0000
     32  N11       41.5900    0.8480   85.0770 N.3   100  ROC100     -0.2643
     33  CM        42.5020   -0.0780   84.4530 C.3   100  ROC100      0.1075
     34  C21       41.1060    0.3280   86.3900 C.3   100  ROC100      0.1365
     35  CC        40.3490   -1.0220   86.3520 C.2   100  ROC100      0.2558
     36  O3        39.5850   -1.3110   85.4250 O.2   100  ROC100     -0.2719
     37  C31       40.1570    1.3600   86.9960 C.3   100  ROC100      0.0254
     38  C3A       40.8940    2.6690   87.2080 C.3   100  ROC100      0.0032
     39  C41       39.9910    3.7230   87.8170 C.3   100  ROC100      0.0001
     40  C51       38.8660    4.1320   86.8750 C.3   100  ROC100      0.0000
     41  C61       39.4680    4.6930   85.5960 C.3   100  ROC100      0.0000
     42  C71       40.3080    3.6080   84.9620 C.3   100  ROC100      0.0014
     43  C7A       41.4460    3.1950   85.8630 C.3   100  ROC100      0.0161
     44  C81       42.2980    2.1200   85.2420 C.3   100  ROC100      0.0725
     45  N3        40.6040   -1.8370   87.3900 N.am  100  ROC100     -0.2077
     46  CD        40.0370   -3.1530   87.5770 C.3   100  ROC100      0.0788
     47  C11       40.5600   -3.7550   88.8530 C.3   100  ROC100      0.0217
     48  C22       40.4290   -4.0330   86.4180 C.3   100  ROC100      0.0217
     49  C32       38.5390   -3.0380   87.6430 C.3   100  ROC100      0.0217
@<TRIPOS>BOND
     1     7     8    1
     2     7    11    2
     3     8     9    2
     4     6    11    1
     5     6     5    2
     6    11    12    1
     7     5     4    1
     8     9    10    1
     9    12    10    1
    10    12     3    2
    11     4     3    2
    12     4     1    1
    13    19    18    2
    14     2     1    2
    15     1    13   am
    16    18    20   am
    17    18    17    1
    18    13    14    1
    19    17    14    1
    20    14    15    1
    21    30    31   ar
    22    30    28   ar
    23    31    29   ar
    24    28    26   ar
    25    15    16    2
    26    15    24   am
    27    29    27   ar
    28    24    23    1
    29    26    27   ar
    30    26    25    1
    31    25    23    1
    32    23    21    1
    33    22    21    1
    34    21    33    1
    35    33    32    1
    36    42    41    1
    37    42    43    1
    38    32    44    1
    39    32    34    1
    40    44    43    1
    41    36    35    2
    42    41    40    1
    43    43    38    1
    44    35    34    1
    45    35    45   am
    46    34    37    1
    47    48    46    1
    48    40    39    1
    49    37    38    1
    50    38    39    1
    51    45    46    1
    52    46    49    1
    53    46    47    1
