@<TRIPOS>MOLECULE
1fbb_RET_A_1.pdb
 20 20 0 0 0
SMALL
GASTEIGER

@<TRIPOS>ATOM
      1  C1        14.9650   10.2230    1.2730 C.3   1216  RET1216     0.0183
      2  C2        14.6320   11.0920    0.0200 C.3   1216  RET1216     0.0044
      3  C3        13.8690   12.3230    0.2960 C.3   1216  RET1216     0.0047
      4  C4        14.6740   13.2540    1.2610 C.3   1216  RET1216     0.0217
      5  C5        15.1790   12.4990    2.4860 C.2   1216  RET1216    -0.0479
      6  C6        15.3280   11.1260    2.5410 C.2   1216  RET1216    -0.0307
      7  C7        15.8380   10.5310    3.8170 C.2   1216  RET1216    -0.0052
      8  C8        16.0690    9.2500    4.1330 C.2   1216  RET1216    -0.0046
      9  C9        16.5820    8.6990    5.3750 C.2   1216  RET1216    -0.0219
     10  C10       16.7140    7.3420    5.4070 C.2   1216  RET1216    -0.0043
     11  C11       17.1880    6.4570    6.4360 C.2   1216  RET1216    -0.0007
     12  C12       17.1950    5.1210    6.1820 C.2   1216  RET1216    -0.0046
     13  C13       17.6180    4.0230    6.9920 C.2   1216  RET1216    -0.0261
     14  C14       17.4620    2.7830    6.3950 C.2   1216  RET1216    -0.0300
     15  C15       17.7690    1.5200    6.9300 C.3   1216  RET1216     0.0304
     16  C16       13.7510    9.3310    1.5750 C.3   1216  RET1216     0.0043
     17  C17       16.1270    9.3320    0.7850 C.3   1216  RET1216     0.0043
     18  C18       15.4960   13.4440    3.6300 C.3   1216  RET1216     0.0260
     19  C19       16.9320    9.6130    6.5160 C.3   1216  RET1216     0.0310
     20  C20       18.1820    4.2480    8.3870 C.3   1216  RET1216     0.0307
@<TRIPOS>BOND
     1     2     3    1
     2     2     1    1
     3     3     4    1
     4    17     1    1
     5     4     5    1
     6     1    16    1
     7     1     6    1
     8     5     6    2
     9     5    18    1
    10     6     7    1
    11     7     8    2
    12     8     9    1
    13     9    10    2
    14     9    19    1
    15    10    11    1
    16    12    11    2
    17    12    13    1
    18    14    15    1
    19    14    13    2
    20    13    20    1
