@<TRIPOS>MOLECULE
1fbc_AHG_A_1.pdb
 23 23 0 0 0
SMALL
GASTEIGER

@<TRIPOS>ATOM
      1  P1        40.8470   89.1260   25.6530 P.3   336  AHG336      0.2107
      2  O1P       41.0910   90.3360   26.4740 O.3   336  AHG336     -0.4374
      3  O2P       41.8310   88.7700   24.5890 O.2   336  AHG336     -0.5173
      4  O3P       40.6770   87.9120   26.6620 O.3   336  AHG336     -0.3436
      5  O1        39.4270   89.2140   24.9070 O.3   336  AHG336     -0.3115
      6  C1        38.1980   89.0050   25.6020 C.3   336  AHG336      0.1811
      7  C2        37.4560   90.3250   25.6920 C.3   336  AHG336      0.1743
      8  C3        36.5680   90.6590   24.4770 C.3   336  AHG336      0.1692
      9  O3        37.1540   90.1580   23.2920 O.3   336  AHG336     -0.3794
     10  C4        35.2270   90.0410   24.8560 C.3   336  AHG336      0.1692
     11  O4        34.0850   90.6360   24.2380 O.3   336  AHG336     -0.3794
     12  C5        35.1870   90.2840   26.3750 C.3   336  AHG336      0.1743
     13  O5        36.5580   90.2450   26.8070 O.3   336  AHG336     -0.3484
     14  C6        34.3920   89.2370   27.1000 C.3   336  AHG336      0.1811
     15  O6        34.2030   89.6710   28.4450 O.3   336  AHG336     -0.3115
     16  P2        32.8340   89.3070   29.2560 P.3   336  AHG336      0.2107
     17  O4P       32.6770   87.7970   29.2160 O.3   336  AHG336     -0.4374
     18  O5P       33.1140   89.8730   30.6410 O.3   336  AHG336     -0.3436
     19  O6P       31.6810   90.0260   28.5740 O.2   336  AHG336     -0.5173
     20 HOP3       41.5030   87.4090   26.3460 H     336  AHG336      0.2176
     21  HO3       37.9310   90.7410   23.1090 H     336  AHG336      0.2105
     22  HO4       33.2740   90.2330   24.6320 H     336  AHG336      0.2105
     23 HOP5       32.4760   89.5040   31.2380 H     336  AHG336      0.2176
@<TRIPOS>BOND
     1    21     9    1
     2     9     8    1
     3    11    22    1
     4    11    10    1
     5     8    10    1
     6     8     7    1
     7     3     1    2
     8    10    12    1
     9     5     6    1
    10     5     1    1
    11     6     7    1
    12     1     2    1
    13     1     4    1
    14     7    13    1
    15    20     4    1
    16    12    13    1
    17    12    14    1
    18    14    15    1
    19    15    16    1
    20    19    16    2
    21    17    16    1
    22    16    18    1
    23    18    23    1
