@<TRIPOS>MOLECULE
1fbd_AHG_A_1.pdb
 23 23 0 0 0
SMALL
GASTEIGER

@<TRIPOS>ATOM
      1  P1        41.2120   89.4960   24.9140 P.3   336  AHG336      0.2107
      2  O1P       41.2270   90.6190   25.8780 O.3   336  AHG336     -0.4374
      3  O2P       42.0170   89.6010   23.6610 O.2   336  AHG336     -0.5173
      4  O3P       41.6310   88.2040   25.7310 O.3   336  AHG336     -0.3436
      5  O1        39.7160   89.1810   24.4230 O.3   336  AHG336     -0.3115
      6  C1        38.6270   89.0490   25.3420 C.3   336  AHG336      0.1811
      7  C2        37.8870   90.3840   25.4180 C.3   336  AHG336      0.1743
      8  C3        36.7310   90.5660   24.4040 C.3   336  AHG336      0.1692
      9  O3        37.0350   89.9050   23.1850 O.3   336  AHG336     -0.3794
     10  C4        35.5260   90.0240   25.1530 C.3   336  AHG336      0.1692
     11  O4        34.2610   90.5600   24.7460 O.3   336  AHG336     -0.3794
     12  C5        35.8330   90.4620   26.6060 C.3   336  AHG336      0.1743
     13  O5        37.2670   90.4710   26.7090 O.3   336  AHG336     -0.3484
     14  C6        35.2560   89.5200   27.6130 C.3   336  AHG336      0.1811
     15  O6        34.3550   90.2530   28.4430 O.3   336  AHG336     -0.3115
     16  P2        33.0230   89.5450   29.0640 P.3   336  AHG336      0.2107
     17  O4P       32.8270   88.2290   28.3290 O.2   336  AHG336     -0.5173
     18  O5P       33.3920   89.3970   30.5310 O.3   336  AHG336     -0.3436
     19  O6P       31.8600   90.4970   28.8690 O.3   336  AHG336     -0.4374
     20 HOP3       42.5440   88.1280   26.0540 H     336  AHG336      0.2176
     21  HO3       37.9930   90.0040   22.9380 H     336  AHG336      0.2105
     22  HO4       33.5580   90.1710   25.3710 H     336  AHG336      0.2105
     23 HOP5       32.5920   89.3990   31.0230 H     336  AHG336      0.2176
@<TRIPOS>BOND
     1    21     9    1
     2     9     8    1
     3     3     1    2
     4     8    10    1
     5     8     7    1
     6     5     1    1
     7     5     6    1
     8    11    10    1
     9    11    22    1
    10     1     4    1
    11     1     2    1
    12    10    12    1
    13     6     7    1
    14     7    13    1
    15     4    20    1
    16    12    13    1
    17    12    14    1
    18    14    15    1
    19    17    16    2
    20    15    16    1
    21    19    16    1
    22    16    18    1
    23    18    23    1
