@<TRIPOS>MOLECULE
1fbe_AHG_A_1.pdb
 23 23 0 0 0
SMALL
GASTEIGER

@<TRIPOS>ATOM
      1  P1        41.1790   90.1560   25.1750 P.3   336  AHG336      0.2107
      2  O1P       41.4760   90.9600   23.9490 O.2   336  AHG336     -0.5173
      3  O2P       42.2360   89.2310   25.7150 O.3   336  AHG336     -0.4374
      4  O3P       40.7080   91.1920   26.3160 O.3   336  AHG336     -0.3436
      5  O1        39.8900   89.2170   24.9260 O.3   336  AHG336     -0.3115
      6  C1        38.7440   89.2560   25.7820 C.3   336  AHG336      0.1811
      7  C2        38.1090   90.6290   25.7050 C.3   336  AHG336      0.1743
      8  C3        37.1500   90.8620   24.5170 C.3   336  AHG336      0.1692
      9  O3        37.5940   90.1460   23.3830 O.3   336  AHG336     -0.3794
     10  C4        35.8020   90.4180   25.0850 C.3   336  AHG336      0.1692
     11  O4        34.6520   91.0040   24.4630 O.3   336  AHG336     -0.3794
     12  C5        35.9040   90.8850   26.5510 C.3   336  AHG336      0.1743
     13  O5        37.3030   90.8010   26.8840 O.3   336  AHG336     -0.3484
     14  C6        35.0900   90.0200   27.4680 C.3   336  AHG336      0.1811
     15  O6        34.4380   90.8630   28.4390 O.3   336  AHG336     -0.3115
     16  P2        33.1730   90.2930   29.3040 P.3   336  AHG336      0.2107
     17  O4P       33.2880   88.7740   29.3180 O.3   336  AHG336     -0.4374
     18  O5P       33.3770   90.9550   30.6590 O.3   336  AHG336     -0.3436
     19  O6P       31.8960   90.7600   28.6280 O.2   336  AHG336     -0.5173
     20 HOP3       40.9790   92.1800   26.2020 H     336  AHG336      0.2176
     21  HO3       38.4640   90.4870   23.0660 H     336  AHG336      0.2105
     22  HO4       33.8310   90.7600   24.9860 H     336  AHG336      0.2105
     23 HOP5       32.5620   90.9780   31.1150 H     336  AHG336      0.2176
@<TRIPOS>BOND
     1    21     9    1
     2     9     8    1
     3     2     1    2
     4    11    22    1
     5    11    10    1
     6     8    10    1
     7     8     7    1
     8     5     1    1
     9     5     6    1
    10    10    12    1
    11     1     3    1
    12     1     4    1
    13     7     6    1
    14     7    13    1
    15    20     4    1
    16    12    13    1
    17    12    14    1
    18    14    15    1
    19    15    16    1
    20    19    16    2
    21    16    17    1
    22    16    18    1
    23    18    23    1
