@<TRIPOS>MOLECULE
1fbf_AHM_A_1.pdb
 23 23 0 0 0
SMALL
GASTEIGER

@<TRIPOS>ATOM
      1  P1        40.5860   89.0320   26.0930 P.3   336  AHM336      0.2107
      2  O1P       41.6690   90.0450   26.1660 O.3   336  AHM336     -0.4374
      3  O2P       40.9380   87.6060   25.8000 O.2   336  AHM336     -0.5173
      4  O3P       39.7860   89.1270   27.4700 O.3   336  AHM336     -0.3436
      5  O1        39.5070   89.4280   24.9830 O.3   336  AHM336     -0.3115
      6  C1        38.6450   90.5530   25.1510 C.3   336  AHM336      0.1811
      7  C2        37.2350   90.0550   25.4050 C.3   336  AHM336      0.1743
      8  C3        36.1370   90.7960   24.6410 C.3   336  AHM336      0.1692
      9  O3        36.0510   90.2910   23.3300 O.3   336  AHM336     -0.3794
     10  C4        34.9100   90.5510   25.5290 C.3   336  AHM336      0.1692
     11  O4        33.9090   91.5720   25.4970 O.3   336  AHM336     -0.3794
     12  C5        35.5250   90.4700   26.9510 C.3   336  AHM336      0.1743
     13  O5        36.9310   90.2880   26.7720 O.3   336  AHM336     -0.3484
     14  C6        34.9520   89.3400   27.7570 C.3   336  AHM336      0.1811
     15  O6        34.1880   89.9030   28.8220 O.3   336  AHM336     -0.3115
     16  P2        32.7530   89.2710   29.2480 P.3   336  AHM336      0.2107
     17  O4P       32.8960   87.7560   29.2300 O.3   336  AHM336     -0.4374
     18  O5P       32.5460   89.8660   30.6270 O.3   336  AHM336     -0.3436
     19  O6P       31.7080   89.7600   28.2540 O.2   336  AHM336     -0.5173
     20 HOP3       39.2780   88.3920   27.5290 H     336  AHM336      0.2176
     21  HO3       36.9150   89.9610   23.0360 H     336  AHM336      0.2105
     22  HO4       33.2390   91.3810   26.1900 H     336  AHM336      0.2105
     23 HOP5       31.6780   89.7040   30.9490 H     336  AHM336      0.2176
@<TRIPOS>BOND
     1    21     9    1
     2     9     8    1
     3     8     7    1
     4     8    10    1
     5     5     6    1
     6     5     1    1
     7     6     7    1
     8     7    13    1
     9    11    10    1
    10    11    22    1
    11    10    12    1
    12     3     1    2
    13     1     2    1
    14     1     4    1
    15    13    12    1
    16    12    14    1
    17     4    20    1
    18    14    15    1
    19    19    16    2
    20    15    16    1
    21    17    16    1
    22    16    18    1
    23    18    23    1
