@<TRIPOS>MOLECULE
1fbg_AHM_A_1.pdb
 23 23 0 0 0
SMALL
GASTEIGER

@<TRIPOS>ATOM
      1  P1        41.9820   89.3020   25.2270 P.3   336  AHM336      0.2107
      2  O1P       43.2310   90.0270   25.5470 O.3   336  AHM336     -0.4374
      3  O2P       41.4090   89.4610   23.8670 O.2   336  AHM336     -0.5173
      4  O3P       42.2450   87.7650   25.5340 O.3   336  AHM336     -0.3436
      5  O1        40.7910   89.7220   26.2250 O.3   336  AHM336     -0.3115
      6  C1        39.9280   90.8130   25.9270 C.3   336  AHM336      0.1811
      7  C2        38.4970   90.3000   25.9290 C.3   336  AHM336      0.1743
      8  C3        37.5740   90.9340   24.8930 C.3   336  AHM336      0.1692
      9  O3        37.7620   90.2930   23.6580 O.3   336  AHM336     -0.3794
     10  C4        36.1900   90.7480   25.5250 C.3   336  AHM336      0.1692
     11  O4        35.1910   91.6750   25.1040 O.3   336  AHM336     -0.3794
     12  C5        36.4930   90.9470   27.0360 C.3   336  AHM336      0.1743
     13  O5        37.8940   90.6430   27.1890 O.3   336  AHM336     -0.3484
     14  C6        35.6650   90.0430   27.8990 C.3   336  AHM336      0.1811
     15  O6        34.3560   90.5980   28.0090 O.3   336  AHM336     -0.3115
     16  P2        33.3240   90.0680   29.1510 P.3   336  AHM336      0.2107
     17  O4P       32.0970   90.9680   29.1100 O.2   336  AHM336     -0.5173
     18  O5P       33.0660   88.6380   28.7120 O.3   336  AHM336     -0.3436
     19  O6P       34.0400   90.1350   30.4860 O.3   336  AHM336     -0.4374
     20 HOP3       42.2460   87.3740   24.6030 H     336  AHM336      0.2176
     21  HO3       38.6790   90.5140   23.3200 H     336  AHM336      0.2105
     22  HO4       34.3930   91.5140   25.7240 H     336  AHM336      0.2105
     23 HOP5       32.4690   88.3020   29.2860 H     336  AHM336      0.2176
@<TRIPOS>BOND
     1    21     9    1
     2     9     8    1
     3     3     1    2
     4    20     4    1
     5     8    10    1
     6     8     7    1
     7    11    10    1
     8    11    22    1
     9     1     4    1
    10     1     2    1
    11     1     5    1
    12    10    12    1
    13     6     7    1
    14     6     5    1
    15     7    13    1
    16    12    13    1
    17    12    14    1
    18    14    15    1
    19    15    16    1
    20    18    16    1
    21    18    23    1
    22    17    16    2
    23    16    19    1
