@<TRIPOS>MOLECULE
1fbh_FBP_A_1.pdb
 25 25 0 0 0
SMALL
GASTEIGER

@<TRIPOS>ATOM
      1  P1        40.8150   88.5140   26.2360 P.3   337  FBP337      0.2108
      2  O1P       41.2350   87.0950   26.3510 O.2   337  FBP337     -0.5173
      3  O2P       41.0990   89.4490   27.3640 O.3   337  FBP337     -0.4374
      4  O3P       41.4610   89.0660   24.8890 O.3   337  FBP337     -0.3436
      5  O1        39.2300   88.6220   25.9890 O.3   337  FBP337     -0.3089
      6  C1        38.5370   89.8730   26.0770 C.3   337  FBP337      0.2073
      7  C2        37.0930   89.6710   25.6300 C.3   337  FBP337      0.2401
      8  O2        36.9670   88.3960   25.0650 O.3   337  FBP337     -0.3600
      9  C3        36.5640   90.7170   24.6430 C.3   337  FBP337      0.1937
     10  O3        36.9740   90.3860   23.3340 O.3   337  FBP337     -0.3776
     11  C4        35.0570   90.6650   24.8990 C.3   337  FBP337      0.1718
     12  O4        34.3300   91.8510   24.5670 O.3   337  FBP337     -0.3794
     13  C5        34.9990   90.4260   26.4300 C.3   337  FBP337      0.1769
     14  O5        36.2540   89.8120   26.7820 O.3   337  FBP337     -0.3278
     15  C6        33.8550   89.5360   26.8260 C.3   337  FBP337      0.1811
     16  O6        33.9430   89.2900   28.2330 O.3   337  FBP337     -0.3115
     17  P2        32.6030   88.9940   29.1150 P.3   337  FBP337      0.2107
     18  O4P       32.1160   87.6050   28.7430 O.2   337  FBP337     -0.5173
     19  O5P       33.1220   89.1180   30.5380 O.3   337  FBP337     -0.3436
     20  O6P       31.5800   90.0680   28.7900 O.3   337  FBP337     -0.4374
     21 HOP3       41.7980   89.9360   25.0890 H     337  FBP337      0.2176
     22  HO2       36.9210   87.7380   25.7770 H     337  FBP337      0.2129
     23  HO3       37.4910   91.1350   22.9910 H     337  FBP337      0.2106
     24  HO4       33.8370   92.1130   25.3440 H     337  FBP337      0.2105
     25 HOP5       32.7610   89.9030   30.9330 H     337  FBP337      0.2176
@<TRIPOS>BOND
     1    23    10    1
     2    10     9    1
     3    12    11    1
     4    12    24    1
     5     9    11    1
     6     9     7    1
     7     4    21    1
     8     4     1    1
     9    11    13    1
    10     8     7    1
    11     8    22    1
    12     7     6    1
    13     7    14    1
    14     5     6    1
    15     5     1    1
    16     1     2    2
    17     1     3    1
    18    13    14    1
    19    13    15    1
    20    15    16    1
    21    16    17    1
    22    18    17    2
    23    20    17    1
    24    17    19    1
    25    19    25    1
