@<TRIPOS>MOLECULE
1fbh_AFP_A_1.pdb
 25 25 0 0 0
SMALL
GASTEIGER

@<TRIPOS>ATOM
      1  P1        40.1000   88.2150   26.1720 P.3   336  AFP336      0.2108
      2  O1P       40.3800   86.8250   25.7520 O.2   336  AFP336     -0.5173
      3  O2P       40.7510   88.7490   27.3990 O.3   336  AFP336     -0.4374
      4  O3P       40.4360   89.1440   24.9200 O.3   336  AFP336     -0.3436
      5  O1        38.5370   88.4310   26.4240 O.3   336  AFP336     -0.3089
      6  C1        37.6680   88.8740   25.3930 C.3   336  AFP336      0.2073
      7  C2        37.1950   90.2700   25.7330 C.3   336  AFP336      0.2401
      8  O2        38.3180   91.0420   26.0730 O.3   336  AFP336     -0.3600
      9  C3        36.4000   90.9780   24.6450 C.3   336  AFP336      0.1937
     10  O3        36.8740   90.5980   23.3680 O.3   336  AFP336     -0.3776
     11  C4        34.9580   90.5490   24.9560 C.3   336  AFP336      0.1718
     12  O4        33.9360   91.4240   24.4890 O.3   336  AFP336     -0.3794
     13  C5        34.9560   90.5200   26.4930 C.3   336  AFP336      0.1769
     14  O5        36.2890   90.1600   26.8590 O.3   336  AFP336     -0.3278
     15  C6        33.9640   89.5230   27.0360 C.3   336  AFP336      0.1811
     16  O6        33.9450   89.6510   28.4640 O.3   336  AFP336     -0.3115
     17  P6        32.6080   89.2810   29.3280 P.3   336  AFP336      0.2107
     18  O4P       32.1590   87.8870   28.9040 O.2   336  AFP336     -0.5173
     19  O5P       33.1250   89.3640   30.7460 O.3   336  AFP336     -0.3436
     20  O6P       31.5410   90.3350   29.0430 O.3   336  AFP336     -0.4374
     21 HOP3       40.5500   90.0430   25.2560 H     336  AFP336      0.2176
     22  HO2       38.5610   90.8530   27.0160 H     336  AFP336      0.2129
     23  HO3       37.0410   89.5510   23.3230 H     336  AFP336      0.2106
     24  HO4       33.4620   91.8560   25.2830 H     336  AFP336      0.2105
     25 HOP5       33.2710   90.2740   31.0010 H     336  AFP336      0.2176
@<TRIPOS>BOND
     1    23    10    1
     2    10     9    1
     3    12    11    1
     4    12    24    1
     5     9    11    1
     6     9     7    1
     7     4    21    1
     8     4     1    1
     9    11    13    1
    10     6     7    1
    11     6     5    1
    12     7     8    1
    13     7    14    1
    14     2     1    2
    15     8    22    1
    16     1     5    1
    17     1     3    1
    18    13    14    1
    19    13    15    1
    20    15    16    1
    21    16    17    1
    22    18    17    2
    23    20    17    1
    24    17    19    1
    25    19    25    1
