@<TRIPOS>MOLECULE
1fbk_RET_A_1.pdb
 20 20 0 0 0
SMALL
GASTEIGER

@<TRIPOS>ATOM
      1  C1        15.0180   10.1980    1.5560 C.3   1216  RET1216     0.0183
      2  C2        14.9280   11.1110    0.2990 C.3   1216  RET1216     0.0044
      3  C3        14.0540   12.2810    0.4320 C.3   1216  RET1216     0.0047
      4  C4        14.5530   13.2100    1.5920 C.3   1216  RET1216     0.0217
      5  C5        14.9430   12.4340    2.8440 C.2   1216  RET1216    -0.0479
      6  C6        15.1700   11.0540    2.8710 C.2   1216  RET1216    -0.0307
      7  C7        15.5560   10.4280    4.1750 C.2   1216  RET1216    -0.0052
      8  C8        15.8280    9.1570    4.4910 C.2   1216  RET1216    -0.0046
      9  C9        16.2180    8.6410    5.7900 C.2   1216  RET1216    -0.0219
     10  C10       16.4400    7.3100    5.8540 C.2   1216  RET1216    -0.0043
     11  C11       16.8390    6.4870    6.9420 C.2   1216  RET1216    -0.0007
     12  C12       16.9510    5.1630    6.7210 C.2   1216  RET1216    -0.0046
     13  C13       17.3220    4.1030    7.5980 C.2   1216  RET1216    -0.0261
     14  C14       17.2930    2.8460    7.0060 C.2   1216  RET1216    -0.0300
     15  C15       17.5800    1.6130    7.5990 C.3   1216  RET1216     0.0304
     16  C16       13.7520    9.3320    1.6200 C.3   1216  RET1216     0.0043
     17  C17       16.2250    9.2990    1.2670 C.3   1216  RET1216     0.0043
     18  C18       15.0600   13.3510    4.0480 C.3   1216  RET1216     0.0260
     19  C19       16.3510    9.5780    6.9610 C.3   1216  RET1216     0.0310
     20  C20       17.6850    4.3730    9.0430 C.3   1216  RET1216     0.0307
@<TRIPOS>BOND
     1     2     3    1
     2     2     1    1
     3     3     4    1
     4    17     1    1
     5     1    16    1
     6     1     6    1
     7     4     5    1
     8     5     6    2
     9     5    18    1
    10     6     7    1
    11     7     8    2
    12     8     9    1
    13     9    10    2
    14     9    19    1
    15    10    11    1
    16    12    11    2
    17    12    13    1
    18    14    13    2
    19    14    15    1
    20    13    20    1
