@<TRIPOS>MOLECULE
1fbl_HTA_A_1.pdb
 27 27 0 0 0
SMALL
GASTEIGER

@<TRIPOS>ATOM
      1  C1        72.0010   82.5240  -10.2530 C.2   900  HTA900      0.0873
      2  C2        73.0380   81.6000   -9.5030 C.3   900  HTA900      0.0603
      3  C3        73.6380   82.2260   -8.2050 C.3   900  HTA900      0.0845
      4  C4        74.8230   81.3350   -7.7600 C.2   900  HTA900      0.2417
      5  C5        72.5400   82.2660   -7.1150 C.3   900  HTA900      0.0095
      6  C6        72.8160   83.2500   -5.9300 C.3   900  HTA900      0.0005
      7  C7        72.9820   84.6960   -6.3840 C.3   900  HTA900      0.0000
      8  C8        71.6700   83.1770   -4.9460 C.3   900  HTA900      0.0000
      9  C9        77.3850   81.2710   -7.3370 C.3   900  HTA900      0.1770
     10  C10       77.8120   81.5750   -5.8750 C.2   900  HTA900      0.2616
     11  C11       78.5120   81.7880   -8.3060 C.3   900  HTA900      0.0574
     12  C12       78.2790   81.1260   -9.6320 C.ar  900  HTA900     -0.0198
     13  C13       77.3310   81.6500  -10.4780 C.ar  900  HTA900     -0.0011
     14  C14       78.9470   79.9590   -9.9740 C.ar  900  HTA900     -0.0011
     15  C15       77.0260   80.9910  -11.6660 C.ar  900  HTA900      0.0366
     16  C16       78.6480   79.3050  -11.1470 C.ar  900  HTA900      0.0366
     17  C17       77.6800   79.8190  -11.9950 C.ar  900  HTA900      0.1387
     18  C18       78.7770   80.6940   -3.7890 C.3   900  HTA900      0.1386
     19  C19       76.5120   79.9960  -14.0240 C.3   900  HTA900      0.2525
     20  N1        70.7520   82.0740  -10.2840 N.am  900  HTA900     -0.2030
     21  N2        76.0600   81.9250   -7.6980 N.am  900  HTA900     -0.1974
     22  N3        78.2830   80.5380   -5.1600 N.am  900  HTA900     -0.2021
     23  O1        69.6580   82.8930  -10.9810 O.3   900  HTA900     -0.4026
     24  O2        72.3370   83.6160  -10.8030 O.2   900  HTA900     -0.5395
     25  O3        74.6340   80.2140   -7.5240 O.2   900  HTA900     -0.2733
     26  O4        77.7430   82.7260   -5.4250 O.2   900  HTA900     -0.2715
     27  O5        77.3700   79.1580  -13.1860 O.3   900  HTA900     -0.4714
@<TRIPOS>BOND
     1    19    27    1
     2    27    17    1
     3    17    15   ar
     4    17    16   ar
     5    15    13   ar
     6    16    14   ar
     7    23    20    1
     8    24     1    2
     9    13    12   ar
    10    20     1   am
    11     1     2    1
    12    14    12   ar
    13    12    11    1
    14     2     3    1
    15    11     9    1
    16     3     4    1
    17     3     5    1
    18     4    21   am
    19     4    25    2
    20    21     9    1
    21     9    10    1
    22     5     6    1
    23     7     6    1
    24     6     8    1
    25    10    26    2
    26    10    22   am
    27    22    18    1
