@<TRIPOS>MOLECULE
1fbm_RTL_B_1.pdb
 21 21 0 0 0
SMALL
GASTEIGER

@<TRIPOS>ATOM
      1  C1        29.2390   47.8000   -1.9220 C.3   951  RTL951      0.0003
      2  C2        28.9030   48.3950   -0.5190 C.3   951  RTL951      0.0000
      3  C3        29.8370   48.0100    0.6180 C.3   951  RTL951      0.0000
      4  C4        30.9540   47.1010    0.1370 C.3   951  RTL951      0.0000
      5  C5        31.4960   47.4840   -1.2560 C.3   951  RTL951      0.0003
      6  C6        30.7540   47.8990   -2.3400 C.3   951  RTL951      0.0043
      7  C7        31.2540   47.2950   -3.6040 C.3   951  RTL951      0.0254
      8  C8        32.3640   47.8120   -4.2770 C.2   951  RTL951     -0.0346
      9  C9        32.7730   47.1160   -5.5070 C.2   951  RTL951     -0.0482
     10  C10       33.8520   47.7870   -6.0120 C.3   951  RTL951      0.0217
     11  C11       34.2860   47.1070   -7.2360 C.3   951  RTL951      0.0043
     12  C12       35.3740   47.7250   -7.8060 C.3   951  RTL951      0.0004
     13  C13       35.8410   46.9840   -8.9890 C.3   951  RTL951      0.0026
     14  C14       36.9270   47.6230   -9.5430 C.3   951  RTL951      0.0355
     15  C15       37.3720   46.8840  -10.7320 C.3   951  RTL951      0.1821
     16  O1        38.4460   47.4980  -11.2990 O.3   951  RTL951     -0.2204
     17  C16       28.5690   48.8340   -2.7680 C.3   951  RTL951      0.0000
     18  C17       28.5080   46.4700   -2.0600 C.3   951  RTL951      0.0000
     19  C18       33.0100   47.3970   -1.2340 C.3   951  RTL951      0.0000
     20  C19       31.8870   45.8980   -5.7960 C.3   951  RTL951      0.0260
     21  C20       36.2760   45.5520   -8.6320 C.3   951  RTL951      0.0001
@<TRIPOS>BOND
     1    16    15    1
     2    15    14    1
     3    14    13    1
     4    13    21    1
     5    13    12    1
     6    12    11    1
     7    11    10    1
     8    10     9    1
     9    20     9    1
    10     9     8    2
    11     8     7    1
    12     7     6    1
    13    17     1    1
    14     6     1    1
    15     6     5    1
    16    18     1    1
    17     1     2    1
    18     5    19    1
    19     5     4    1
    20     2     3    1
    21     4     3    1
