@<TRIPOS>MOLECULE
1fbo_GLO_A_1.pdb
 12 11 0 0 0
SMALL
GASTEIGER

@<TRIPOS>ATOM
      1  C1        73.0190   95.5650   43.6680 C.3   2101  GLO2101     0.2175
      2  C2        74.2160   95.1090   44.4870 C.3   2101  GLO2101     0.2175
      3  C3        75.1560   96.2750   44.7990 C.3   2101  GLO2101     0.2175
      4  C4        76.6110   95.8350   44.9970 C.3   2101  GLO2101     0.2175
      5  C5        77.4930   97.0830   45.0180 C.3   2101  GLO2101     0.2175
      6  C6        78.9680   96.7510   45.1220 C.3   2101  GLO2101     0.2175
      7  O1        72.1380   94.4830   43.3960 O.3   2101  GLO2101    -0.2175
      8  O2        73.7530   94.5330   45.7010 O.3   2101  GLO2101    -0.2175
      9  O3        74.7040   96.9420   45.9690 O.3   2101  GLO2101    -0.2175
     10  O4        76.7550   95.1430   46.2540 O.3   2101  GLO2101    -0.2175
     11  O5        77.2500   97.8550   43.8520 O.3   2101  GLO2101    -0.2175
     12  O6        79.3630   95.8440   44.1080 O.3   2101  GLO2101    -0.2175
@<TRIPOS>BOND
     1     7     1    1
     2     1     2    1
     3    11     5    1
     4    12     6    1
     5     2     3    1
     6     2     8    1
     7     3     4    1
     8     3     9    1
     9     4     5    1
    10     4    10    1
    11     5     6    1
