@<TRIPOS>MOLECULE
1fbo_GLC_A_1.pdb
 11 11 0 0 0
SMALL
GASTEIGER

@<TRIPOS>ATOM
      1  C1        77.1640   93.8170   46.2310 C.3   2100  GLC2100     0.1777
      2  C2        77.7110   93.4440   47.6230 C.3   2100  GLC2100     0.2141
      3  C3        77.9580   91.9320   47.7470 C.3   2100  GLC2100     0.2173
      4  C4        76.7010   91.1660   47.3310 C.3   2100  GLC2100     0.2142
      5  C5        76.3050   91.5950   45.9170 C.3   2100  GLC2100     0.1810
      6  C6        75.0680   90.8790   45.4090 C.3   2100  GLC2100     0.2141
      7  O2        78.9260   94.1440   47.8550 O.3   2100  GLC2100    -0.2176
      8  O3        78.3000   91.6060   49.0880 O.3   2100  GLC2100    -0.2175
      9  O4        76.9510   89.7710   47.3610 O.3   2100  GLC2100    -0.2176
     10  O5        76.0210   93.0090   45.8970 O.3   2100  GLC2100    -0.3481
     11  O6        73.9850   91.0160   46.3200 O.3   2100  GLC2100    -0.2176
@<TRIPOS>BOND
     1     6     5    1
     2     6    11    1
     3    10     5    1
     4    10     1    1
     5     5     4    1
     6     1     2    1
     7     4     9    1
     8     4     3    1
     9     2     3    1
    10     2     7    1
    11     3     8    1
