@<TRIPOS>MOLECULE
1fbp_AMP_A_1.pdb
 23 25 0 0 0
SMALL
GASTEIGER

@<TRIPOS>ATOM
      1  P         36.1780   90.5020  -13.4680 P.3   337  AMP337      0.5327
      2  O1P       35.5800   89.7810  -12.2510 O.3   337  AMP337     -0.1145
      3  O2P       37.3410   91.3470  -12.9820 O.3   337  AMP337     -0.1145
      4  O3P       36.4670   89.2760  -14.4210 O.2   337  AMP337     -0.2224
      5  O5'       35.1400   91.4320  -13.9090 O.3   337  AMP337     -0.2675
      6  C5'       34.9880   92.9060  -13.3310 C.3   337  AMP337      0.1860
      7  C4'       33.8510   93.6670  -14.0950 C.3   337  AMP337      0.1823
      8  O4'       32.6020   93.4310  -13.2180 O.3   337  AMP337     -0.3135
      9  C3'       33.9300   95.0380  -13.9890 C.3   337  AMP337      0.2184
     10  O3'       33.3030   95.5860  -15.2820 O.3   337  AMP337     -0.2174
     11  C2'       33.2520   95.7040  -12.7240 C.3   337  AMP337      0.2570
     12  O2'       32.5610   96.8880  -13.1250 O.3   337  AMP337     -0.2130
     13  C1'       32.0270   94.7080  -12.8400 C.3   337  AMP337      0.3186
     14  N9        31.5730   94.3890  -11.4350 N.pl3 337  AMP337     -0.1439
     15  C8        30.6070   95.0870  -10.7050 C.3   337  AMP337      0.3377
     16  N7        30.2390   94.4250   -9.6140 N.2   337  AMP337     -0.2095
     17  C5        31.0170   93.3020   -9.6150 C.2   337  AMP337      0.2526
     18  C6        31.0600   92.1560   -8.7320 C.2   337  AMP337      0.4393
     19  N6        30.3230   92.0400   -7.6540 N.pl3 337  AMP337      0.2180
     20  N1        31.8910   91.1560   -9.1380 N.2   337  AMP337      0.0021
     21  C2        32.6990   91.2630  -10.2350 C.3   337  AMP337      0.5254
     22  N3        32.7120   92.2640  -11.0810 N.2   337  AMP337     -0.0055
     23  C4        31.8360   93.2250  -10.7500 C.2   337  AMP337      0.3518
@<TRIPOS>BOND
     1    10     9    1
     2     4     1    2
     3     7     9    1
     4     7     6    1
     5     7     8    1
     6     9    11    1
     7     5     1    1
     8     5     6    1
     9     1     3    1
    10     1     2    1
    11     8    13    1
    12    12    11    1
    13    13    11    1
    14    13    14    1
    15    14    23    1
    16    14    15    1
    17    22    23    2
    18    22    21    1
    19    23    17    1
    20    15    16    1
    21    21    20    1
    22    17    16    2
    23    17    18    1
    24    20    18    2
    25    18    19    1
