@<TRIPOS>MOLECULE
1fbp_F6P_A_1.pdb
 16 16 0 0 0
SMALL
GASTEIGER

@<TRIPOS>ATOM
      1  O1        38.5410  110.7640   12.4190 O.3   336  F6P336     -0.2148
      2  C1        39.4700  111.3470   11.5460 C.3   336  F6P336      0.2434
      3  C2        40.9030  111.2670   12.1250 C.3   336  F6P336      0.2807
      4  O2        41.8000  111.8380   11.2110 O.3   336  F6P336     -0.1896
      5  C3        41.3780  109.8260   12.4480 C.3   336  F6P336      0.2409
      6  O3        41.8150  109.1210   11.2980 O.3   336  F6P336     -0.2149
      7  C4        42.4530  110.0540   13.4630 C.3   336  F6P336      0.2167
      8  O4        42.6980  108.9450   14.3170 O.3   336  F6P336     -0.2175
      9  C5        41.9640  111.3390   14.2280 C.3   336  F6P336      0.1808
     10  O5        40.9680  111.9180   13.3630 O.3   336  F6P336     -0.3254
     11  C6        43.0630  112.2450   14.4930 C.3   336  F6P336      0.1859
     12  O6        42.5230  113.3910   15.2460 O.3   336  F6P336     -0.2675
     13  P         43.5720  114.4620   15.8290 P.3   336  F6P336      0.5327
     14  O1P       44.3330  115.0500   14.6540 O.2   336  F6P336     -0.2224
     15  O2P       42.6630  115.4550   16.5060 O.3   336  F6P336     -0.1145
     16  O3P       44.4980  113.7210   16.7870 O.3   336  F6P336     -0.1145
@<TRIPOS>BOND
     1     4     3    1
     2     6     5    1
     3     2     3    1
     4     2     1    1
     5     3     5    1
     6     3    10    1
     7     5     7    1
     8    10     9    1
     9     7     9    1
    10     7     8    1
    11     9    11    1
    12    11    12    1
    13    14    13    2
    14    12    13    1
    15    13    15    1
    16    13    16    1
