@<TRIPOS>MOLECULE
1fbw_GLC_A_1.pdb
 11 11 0 0 0
SMALL
GASTEIGER

@<TRIPOS>ATOM
      1  C1        57.7710   72.7100   65.7980 C.3   3093  GLC3093     0.1777
      2  C2        56.6780   73.0020   66.8410 C.3   3093  GLC3093     0.2141
      3  C3        56.9340   72.1730   68.1090 C.3   3093  GLC3093     0.2173
      4  C4        57.0060   70.6980   67.7340 C.3   3093  GLC3093     0.2142
      5  C5        58.0840   70.4920   66.6760 C.3   3093  GLC3093     0.1810
      6  C6        58.1700   69.0410   66.2290 C.3   3093  GLC3093     0.2141
      7  O2        56.6750   74.3850   67.1640 O.3   3093  GLC3093    -0.2176
      8  O3        55.8900   72.3780   69.0500 O.3   3093  GLC3093    -0.2175
      9  O4        57.3090   69.9250   68.8880 O.3   3093  GLC3093    -0.2176
     10  O5        57.8130   71.3040   65.5020 O.3   3093  GLC3093    -0.3481
     11  O6        56.9640   68.6250   65.6090 O.3   3093  GLC3093    -0.2176
@<TRIPOS>BOND
     1    10     1    1
     2    10     5    1
     3    11     6    1
     4     1     2    1
     5     6     5    1
     6     5     4    1
     7     2     7    1
     8     2     3    1
     9     4     3    1
    10     4     9    1
    11     3     8    1
