@<TRIPOS>MOLECULE
1fby_REA_A_1.pdb
 22 22 0 0 0
SMALL
GASTEIGER

@<TRIPOS>ATOM
      1  C1        14.2130   30.4790   50.8050 C.3   500  REA500      0.0183
      2  C2        14.7130   29.9250   52.1980 C.3   500  REA500      0.0044
      3  C3        13.9570   28.7540   52.8250 C.3   500  REA500      0.0047
      4  C4        13.8280   27.5970   51.8700 C.3   500  REA500      0.0217
      5  C5        13.5940   27.9310   50.3720 C.2   500  REA500     -0.0479
      6  C6        13.8150   29.2350   49.8460 C.2   500  REA500     -0.0307
      7  C7        13.6410   29.5930   48.3980 C.2   500  REA500     -0.0052
      8  C8        14.4050   29.2040   47.3560 C.2   500  REA500     -0.0046
      9  C9        14.3980   29.4700   45.9690 C.2   500  REA500     -0.0219
     10  C10       15.3060   28.8340   45.1860 C.2   500  REA500     -0.0043
     11  C11       16.4060   27.9110   45.5160 C.2   500  REA500     -0.0006
     12  C12       17.1480   27.2680   44.5950 C.2   500  REA500     -0.0041
     13  C13       18.2800   26.3220   44.9170 C.2   500  REA500     -0.0153
     14  C14       18.7600   25.6650   43.8740 C.2   500  REA500      0.0819
     15  C15       19.7340   24.5580   43.6550 C.2   500  REA500      0.3876
     16  C16       15.3900   31.3900   50.3120 C.3   500  REA500      0.0043
     17  C17       13.0170   31.3980   51.0510 C.3   500  REA500      0.0043
     18  C18       13.1780   26.6270   49.7040 C.3   500  REA500      0.0260
     19  C19       13.3730   30.4150   45.3910 C.3   500  REA500      0.0310
     20  C20       18.7560   26.1070   46.3480 C.3   500  REA500      0.0312
     21  O1        19.4040   23.7550   42.7040 O.co2 500  REA500     -0.2406
     22  O2        20.6230   24.2170   44.5640 O.co2 500  REA500     -0.2406
@<TRIPOS>BOND
     1    21    15   ar
     2    15    14    1
     3    15    22   ar
     4    14    13    2
     5    12    13    1
     6    12    11    2
     7    13    20    1
     8    10    11    1
     9    10     9    2
    10    19     9    1
    11     9     8    1
    12     8     7    2
    13     7     6    1
    14    18     5    1
    15     6     5    2
    16     6     1    1
    17    16     1    1
    18     5     4    1
    19     1    17    1
    20     1     2    1
    21     4     3    1
    22     2     3    1
