@<TRIPOS>MOLECULE
1fbz_CC1_A_1.pdb
 45 48 0 0 0
SMALL
GASTEIGER

@<TRIPOS>ATOM
      1  C1        19.8800   16.1840   15.0390 C.3   150  CC1150      0.1172
      2  N1        20.4050   17.5070   15.1900 N.am  150  CC1150     -0.2013
      3  C2        20.0620   18.5280   14.4010 C.2   150  CC1150      0.2618
      4  CO        20.6560   19.8600   14.7280 C.3   150  CC1150      0.1770
      5  N2        21.3060   20.4620   13.5690 N.am  150  CC1150     -0.1974
      6  C12       22.6070   20.8380   13.6270 C.2   150  CC1150      0.2423
      7  C13       23.1770   21.4440   12.3620 C.3   150  CC1150      0.0964
      8  O4        23.3340   20.7120   14.6370 O.2   150  CC1150     -0.2733
      9  C4        19.5430   20.7690   15.2670 C.3   150  CC1150      0.0574
     10  C5        20.2670   22.0430   15.5670 C.ar  150  CC1150     -0.0198
     11  C6        20.2150   23.1160   14.6760 C.ar  150  CC1150     -0.0014
     12  C8        20.9160   24.3010   14.9640 C.ar  150  CC1150      0.0311
     13  P2        20.8130   25.6760   13.7570 P.3   150  CC1150      0.1396
     14  OR1       20.0490   26.8010   14.3610 O.3   150  CC1150     -0.3542
     15  OR2       22.1910   26.1230   13.4190 O.3   150  CC1150     -0.3542
     16  OR3       20.1330   25.1910   12.5270 O.2   150  CC1150     -0.4557
     17  C10       21.6790   24.4120   16.1580 C.ar  150  CC1150      0.0314
     18  P1        22.6130   25.9440   16.5820 P.3   150  CC1150      0.1396
     19  OR4       23.6120   26.2390   15.5300 O.2   150  CC1150     -0.4557
     20  OR5       21.6650   27.0880   16.6830 O.3   150  CC1150     -0.3542
     21  OR6       23.3000   25.7480   17.8810 O.3   150  CC1150     -0.3542
     22  C9        21.7120   23.3210   17.0380 C.ar  150  CC1150      0.0025
     23  C7        21.0120   22.1450   16.7420 C.ar  150  CC1150     -0.0041
     24  O3        19.4030   18.4070   13.4000 O.2   150  CC1150     -0.2715
     25  C11       20.5780   15.3480   16.1440 C.3   150  CC1150      0.0262
     26  C30       20.1930   13.8400   16.1970 C.3   150  CC1150      0.0025
     27  C28       19.7650   13.3110   14.7990 C.3   150  CC1150      0.0047
     28  C31       18.2730   13.6300   14.4370 C.3   150  CC1150      0.0262
     29  C19       17.6480   14.8920   15.0670 C.ar  150  CC1150     -0.0215
     30  C18       16.2680   14.8550   15.3810 C.ar  150  CC1150      0.0325
     31  C17       15.6140   15.9690   15.9620 C.ar  150  CC1150      0.1426
     32  O5        14.2640   15.9590   16.2780 O.3   150  CC1150     -0.4753
     33  C20       13.3860   14.8270   16.0530 C.3   150  CC1150      0.2053
     34  C21       12.5800   14.3770   17.3070 C.3   150  CC1150      0.0438
     35  C22       12.7410   12.8830   17.6370 C.3   150  CC1150      0.0037
     36  C23       11.8950   12.5070   18.8790 C.3   150  CC1150      0.0001
     37  C24       12.3160   13.3350   20.1070 C.3   150  CC1150      0.0000
     38  C25       12.2150   14.8550   19.8250 C.3   150  CC1150      0.0001
     39  C26       12.9760   15.2560   18.5410 C.3   150  CC1150      0.0037
     40  C16       16.3660   17.1400   16.2350 C.ar  150  CC1150      0.0903
     41  C15       17.7390   17.1740   15.9240 C.ar  150  CC1150      0.0047
     42  C14       18.3900   16.0800   15.3490 C.ar  150  CC1150     -0.0062
     43  C27       15.7050   18.3600   16.8620 C.2   150  CC1150      0.2871
     44  N3        16.3120   19.5530   16.8190 N.am  150  CC1150     -0.0836
     45  O6        14.6170   18.2200   17.4070 O.2   150  CC1150     -0.2666
@<TRIPOS>BOND
     1     7     6    1
     2    16    13    2
     3    24     3    2
     4    15    13    1
     5     5     6   am
     6     5     4    1
     7     6     8    2
     8    13    14    1
     9    13    12    1
    10     3     4    1
    11     3     2   am
    12    28    27    1
    13    28    29    1
    14    11    12   ar
    15    11    10   ar
    16     4     9    1
    17    27    26    1
    18    12    17   ar
    19     1     2    1
    20     1    42    1
    21     1    25    1
    22    29    42   ar
    23    29    30   ar
    24     9    10    1
    25    42    41   ar
    26    30    31   ar
    27    19    18    2
    28    10    23   ar
    29    41    40   ar
    30    31    40   ar
    31    31    32    1
    32    33    32    1
    33    33    34    1
    34    25    26    1
    35    17    18    1
    36    17    22   ar
    37    40    43    1
    38    18    20    1
    39    18    21    1
    40    23    22   ar
    41    44    43   am
    42    43    45    2
    43    34    35    1
    44    34    39    1
    45    35    36    1
    46    39    38    1
    47    36    37    1
    48    38    37    1
