@<TRIPOS>MOLECULE
1fc0_NBG_A_1.pdb
 15 15 0 0 0
SMALL
GASTEIGER

@<TRIPOS>ATOM
      1  C1        50.1680   60.2690 -106.0150 C.3   861  NBG861      0.2446
      2  C2        49.9760   59.1280 -107.0640 C.3   861  NBG861      0.2326
      3  C3        51.2580   58.2600 -107.3030 C.3   861  NBG861      0.2190
      4  C4        52.5450   59.1180 -107.3810 C.3   861  NBG861      0.2144
      5  C5        52.6370   60.0540 -106.1460 C.3   861  NBG861      0.1828
      6  C6        53.8650   60.9720 -106.1840 C.3   861  NBG861      0.2142
      7  C7        48.4820   61.8650 -105.3230 C.2   861  NBG861      0.2440
      8  C8        47.3760   62.8050 -105.7270 C.3   861  NBG861      0.0965
      9  N1        49.2100   61.3140 -106.3040 N.am  861  NBG861     -0.1751
     10  O3        51.1160   57.4930 -108.5040 O.3   861  NBG861     -0.2174
     11  O2        48.8720   58.2830 -106.7110 O.3   861  NBG861     -0.2157
     12  O4        53.6850   58.2700 -107.4630 O.3   861  NBG861     -0.2176
     13  O5        51.4630   60.8900 -106.1180 O.3   861  NBG861     -0.3315
     14  O6        53.8290   61.8460 -107.3230 O.3   861  NBG861     -0.2176
     15  O7        48.6780   61.6380 -104.1410 O.2   861  NBG861     -0.2733
@<TRIPOS>BOND
     1    10     3    1
     2    12     4    1
     3     4     3    1
     4     4     5    1
     5    14     6    1
     6     3     2    1
     7     2    11    1
     8     2     1    1
     9     9     1    1
    10     9     7   am
    11     6     5    1
    12     5    13    1
    13    13     1    1
    14     8     7    1
    15     7    15    2
