@<TRIPOS>MOLECULE
1fc0_PLP_A_1.pdb
 15 15 0 0 0
SMALL
GASTEIGER

@<TRIPOS>ATOM
      1  N1        52.9750   54.6670  -98.0730 N.ar  860  PLP860     -0.2452
      2  C2        54.1910   54.4940  -97.4810 C.ar  860  PLP860      0.0978
      3  C2A       54.2510   54.3760  -95.9700 C.3   860  PLP860      0.0555
      4  C3        55.3170   54.4720  -98.2530 C.ar  860  PLP860      0.2049
      5  O3        56.5190   54.2200  -97.6690 O.3   860  PLP860     -0.2857
      6  C4        55.2180   54.6400  -99.6480 C.ar  860  PLP860      0.0182
      7  C4A       56.3930   54.5780 -100.4450 C.3   860  PLP860      0.0342
      8  C5        53.9270   54.8230 -100.2130 C.ar  860  PLP860      0.0261
      9  C6        52.8430   54.8300  -99.4110 C.ar  860  PLP860      0.0965
     10  C5A       53.6540   54.9710 -101.7090 C.3   860  PLP860      0.1815
     11  O4P       53.3690   53.6850 -102.2470 O.3   860  PLP860     -0.2653
     12  P         52.5950   53.3240 -103.5950 P.3   860  PLP860      0.5329
     13  O1P       51.2820   54.0110 -103.4600 O.3   860  PLP860     -0.1145
     14  O2P       52.4890   51.8510 -103.5050 O.3   860  PLP860     -0.1145
     15  O3P       53.4870   53.8350 -104.6340 O.2   860  PLP860     -0.2224
@<TRIPOS>BOND
     1    15    12    2
     2    12    14    1
     3    12    13    1
     4    12    11    1
     5    11    10    1
     6    10     8    1
     7     7     6    1
     8     8     6   ar
     9     8     9   ar
    10     6     4   ar
    11     9     1   ar
    12     4     5    1
    13     4     2   ar
    14     1     2   ar
    15     2     3    1
