@<TRIPOS>MOLECULE
1fc1_MAN_A_1.pdb
 11 11 0 0 0
SMALL
GASTEIGER

@<TRIPOS>ATOM
      1  C1        48.9150  134.7230   29.8560 C.3     4  MAN4        0.1777
      2  C2        47.3950  134.5090   29.7940 C.3     4  MAN4        0.2141
      3  C3        46.9590  133.3560   30.7190 C.3     4  MAN4        0.2173
      4  C4        47.7710  132.1180   30.4050 C.3     4  MAN4        0.2142
      5  C5        49.2690  132.3950   30.4970 C.3     4  MAN4        0.1810
      6  C6        50.0380  131.1720   30.0270 C.3     4  MAN4        0.2141
      7  O2        47.0650  134.2050   28.4450 O.3     4  MAN4       -0.2176
      8  O3        45.6010  132.9760   30.4880 O.3     4  MAN4       -0.2175
      9  O4        47.3680  131.0660   31.2830 O.3     4  MAN4       -0.2176
     10  O5        49.5670  133.4750   29.6150 O.3     4  MAN4       -0.3481
     11  O6        51.4210  131.3760   30.2840 O.3     4  MAN4       -0.2176
@<TRIPOS>BOND
     1     7     2    1
     2    10     1    1
     3    10     5    1
     4     2     1    1
     5     2     3    1
     6     6    11    1
     7     6     5    1
     8     4     5    1
     9     4     3    1
    10     4     9    1
    11     8     3    1
