@<TRIPOS>MOLECULE
1fc1_FUC_A_1.pdb
 10 10 0 0 0
SMALL
GASTEIGER

@<TRIPOS>ATOM
      1  C1        56.1580  138.5120   23.7050 C.3     2  FUC2        0.1776
      2  C2        57.6840  138.6340   23.9090 C.3     2  FUC2        0.2141
      3  C3        58.2490  139.9190   23.2660 C.3     2  FUC2        0.2172
      4  C4        57.8590  139.9660   21.7840 C.3     2  FUC2        0.2116
      5  C5        56.3300  139.9420   21.6690 C.3     2  FUC2        0.1483
      6  C6        55.8810  139.9290   20.1980 C.3     2  FUC2        0.0349
      7  O2        58.3190  137.4950   23.3030 O.3     2  FUC2       -0.2176
      8  O3        57.7160  141.0810   23.9160 O.3     2  FUC2       -0.2175
      9  O4        58.3850  141.1440   21.1630 O.3     2  FUC2       -0.2177
     10  O5        55.8490  138.7610   22.3260 O.3     2  FUC2       -0.3508
@<TRIPOS>BOND
     1     6     5    1
     2     9     4    1
     3     5     4    1
     4     5    10    1
     5     4     3    1
     6    10     1    1
     7     3     2    1
     8     3     8    1
     9     7     2    1
    10     1     2    1
