@<TRIPOS>MOLECULE
1fc1_GAL_A_1.pdb
 11 11 0 0 0
SMALL
GASTEIGER

@<TRIPOS>ATOM
      1  C1        57.3600  125.7120   35.2980 C.3     7  GAL7        0.1777
      2  C2        58.8520  125.7430   34.8940 C.3     7  GAL7        0.2141
      3  C3        59.4800  124.3990   35.2400 C.3     7  GAL7        0.2173
      4  C4        59.3480  124.1310   36.7410 C.3     7  GAL7        0.2142
      5  C5        57.8840  124.2350   37.1850 C.3     7  GAL7        0.1810
      6  C6        57.7630  124.1390   38.7180 C.3     7  GAL7        0.2141
      7  O2        59.0670  125.9360   33.4910 O.3     7  GAL7       -0.2176
      8  O3        60.8470  124.4000   34.8020 O.3     7  GAL7       -0.2175
      9  O4        60.1010  125.1060   37.4610 O.3     7  GAL7       -0.2176
     10  O5        57.3250  125.4710   36.7080 O.3     7  GAL7       -0.3481
     11  O6        58.2130  122.8510   39.1960 O.3     7  GAL7       -0.2176
@<TRIPOS>BOND
     1     7     2    1
     2     8     3    1
     3     2     3    1
     4     2     1    1
     5     3     4    1
     6     1    10    1
     7    10     5    1
     8     4     5    1
     9     4     9    1
    10     5     6    1
    11     6    11    1
