@<TRIPOS>MOLECULE
1fc2_FUC_D_1.pdb
 10 10 0 0 0
SMALL
GASTEIGER

@<TRIPOS>ATOM
      1  C1        -8.8130    0.6720   36.1910 C.3     2  FUC2        0.1776
      2  C2        -8.8070    0.3100   37.6910 C.3     2  FUC2        0.2141
      3  C3        -8.9340   -1.2100   37.9180 C.3     2  FUC2        0.2172
      4  C4       -10.1610   -1.7510   37.1710 C.3     2  FUC2        0.2116
      5  C5       -10.0710   -1.4010   35.6760 C.3     2  FUC2        0.1483
      6  C6       -11.3300   -1.8400   34.9070 C.3     2  FUC2        0.0349
      7  O2        -9.9060    0.9710   38.3350 O.3     2  FUC2       -0.2176
      8  O3        -7.7630   -1.8990   37.4570 O.3     2  FUC2       -0.2175
      9  O4       -10.2560   -3.1710   37.3460 O.3     2  FUC2       -0.2177
     10  O5        -9.9170    0.0180   35.5540 O.3     2  FUC2       -0.3508
@<TRIPOS>BOND
     1     6     5    1
     2    10     5    1
     3    10     1    1
     4     5     4    1
     5     1     2    1
     6     4     9    1
     7     4     3    1
     8     8     3    1
     9     2     3    1
    10     2     7    1
