@<TRIPOS>MOLECULE
1fc2_MAN_D_1.pdb
 11 11 0 0 0
SMALL
GASTEIGER

@<TRIPOS>ATOM
      1  C1        -3.4660    7.1020   30.3460 C.3     4  MAN4        0.1777
      2  C2        -3.3710    7.3680   28.8240 C.3     4  MAN4        0.2141
      3  C3        -2.6830    8.7180   28.5710 C.3     4  MAN4        0.2173
      4  C4        -3.4700    9.8220   29.2810 C.3     4  MAN4        0.2142
      5  C5        -3.5500    9.5340   30.7830 C.3     4  MAN4        0.1810
      6  C6        -4.3930   10.6030   31.4900 C.3     4  MAN4        0.2141
      7  O2        -4.6870    7.4090   28.2360 O.3     4  MAN4       -0.2176
      8  O3        -2.7170    8.9860   27.1740 O.3     4  MAN4       -0.2175
      9  O4        -2.8610   11.0990   29.0490 O.3     4  MAN4       -0.2176
     10  O5        -4.1210    8.2230   30.9750 O.3     4  MAN4       -0.3481
     11  O6        -4.4160   10.3150   32.8860 O.3     4  MAN4       -0.2176
@<TRIPOS>BOND
     1     8     3    1
     2     7     2    1
     3     3     2    1
     4     3     4    1
     5     2     1    1
     6     9     4    1
     7     4     5    1
     8     1    10    1
     9     5    10    1
    10     5     6    1
    11     6    11    1
