@<TRIPOS>MOLECULE
1fc2_GAL_D_1.pdb
 11 11 0 0 0
SMALL
GASTEIGER

@<TRIPOS>ATOM
      1  C1        -3.0970   16.7390   39.7180 C.3     7  GAL7        0.1777
      2  C2        -4.0200   16.5110   40.9360 C.3     7  GAL7        0.2141
      3  C3        -4.2770   17.8800   41.5880 C.3     7  GAL7        0.2173
      4  C4        -2.9640   18.5590   42.0190 C.3     7  GAL7        0.2142
      5  C5        -1.9390   18.5970   40.8700 C.3     7  GAL7        0.1810
      6  C6        -0.5400   18.9510   41.3890 C.3     7  GAL7        0.2141
      7  O2        -5.2900   15.9390   40.5880 O.3     7  GAL7       -0.2176
      8  O3        -5.1540   17.7410   42.7140 O.3     7  GAL7       -0.2175
      9  O4        -2.4190   17.8450   43.1280 O.3     7  GAL7       -0.2176
     10  O5        -1.8840   17.3190   40.2280 O.3     7  GAL7       -0.3481
     11  O6        -0.5380   20.2560   41.9850 O.3     7  GAL7       -0.2176
@<TRIPOS>BOND
     1     1    10    1
     2     1     2    1
     3    10     5    1
     4     7     2    1
     5     5     6    1
     6     5     4    1
     7     2     3    1
     8     6    11    1
     9     3     4    1
    10     3     8    1
    11     4     9    1
