@<TRIPOS>MOLECULE
1fc4_PLP_A_1.pdb
 15 15 0 0 0
SMALL
GASTEIGER

@<TRIPOS>ATOM
      1  N1         8.3430   41.8930   19.2730 N.ar  1201  PLP1201    -0.2452
      2  C2         8.4190   42.4480   17.9540 C.ar  1201  PLP1201     0.0978
      3  C2A        9.2340   41.5840   16.9580 C.3   1201  PLP1201     0.0555
      4  C3         7.8330   43.6530   17.6120 C.ar  1201  PLP1201     0.2049
      5  O3         7.9760   44.1440   16.3440 O.3   1201  PLP1201    -0.2857
      6  C4         7.0890   44.3860   18.6720 C.ar  1201  PLP1201     0.0182
      7  C4A        6.4290   45.7430   18.3220 C.3   1201  PLP1201     0.0342
      8  C5         7.0100   43.7860   20.0260 C.ar  1201  PLP1201     0.0261
      9  C6         7.6550   42.5340   20.3000 C.ar  1201  PLP1201     0.0965
     10  C5A        6.2620   44.4610   21.1520 C.3   1201  PLP1201     0.1815
     11  O4P        4.8960   43.8950   21.4280 O.3   1201  PLP1201    -0.2653
     12  P          4.1140   44.6170   22.5600 P.3   1201  PLP1201     0.5329
     13  O1P        3.2530   45.7610   21.9440 O.2   1201  PLP1201    -0.2224
     14  O2P        5.1200   45.2160   23.6020 O.3   1201  PLP1201    -0.1145
     15  O3P        3.1830   43.5870   23.2740 O.3   1201  PLP1201    -0.1145
@<TRIPOS>BOND
     1     5     4    1
     2     3     2    1
     3     4     2   ar
     4     4     6   ar
     5     2     1   ar
     6     7     6    1
     7     6     8   ar
     8     1     9   ar
     9     8     9   ar
    10     8    10    1
    11    10    11    1
    12    11    12    1
    13    13    12    2
    14    12    15    1
    15    12    14    1
