@<TRIPOS>MOLECULE
1fcb_FMN_A_1.pdb
 31 33 0 0 0
SMALL
GASTEIGER

@<TRIPOS>ATOM
      1  N1        69.8450   57.4490    1.4900 N.2   570  FMN570     -0.2887
      2  C2        71.1530   57.2770    1.7850 C.1   570  FMN570      0.3669
      3  O2        72.0380   58.0940    1.7280 O.2   570  FMN570     -0.1744
      4  N3        71.5170   55.9580    2.1040 N.2   570  FMN570     -0.2300
      5  C4        70.7220   54.8690    2.1830 C.1   570  FMN570      0.2513
      6  O4        71.1690   53.8370    2.6270 O.2   570  FMN570     -0.2057
      7  C4A       69.2910   55.1410    1.9670 C.2   570  FMN570      0.2706
      8  N5        68.3890   54.1810    2.0700 N.2   570  FMN570     -0.3841
      9  C5A       67.1140   54.3820    1.6260 C.2   570  FMN570      0.1452
     10  C6        66.1630   53.3640    1.5240 C.2   570  FMN570      0.0252
     11  C7        64.8800   53.5500    1.0800 C.2   570  FMN570     -0.0375
     12  C7M       63.8370   52.4610    1.0350 C.3   570  FMN570      0.0268
     13  C8        64.5410   54.8260    0.5800 C.3   570  FMN570      0.0417
     14  C8M       63.1420   55.1560    0.0800 C.3   570  FMN570      0.0091
     15  C9        65.4510   55.8580    0.6480 C.2   570  FMN570     -0.0049
     16  C9A       66.7500   55.6720    1.1140 C.2   570  FMN570      0.0795
     17  N10       67.6770   56.6750    1.1710 N.pl3 570  FMN570     -0.2545
     18  C10       68.9850   56.4740    1.5460 C.2   570  FMN570      0.2449
     19  C1'       67.3050   58.0370    0.7500 C.3   570  FMN570      0.1336
     20  C2'       67.6030   58.4090   -0.6940 C.3   570  FMN570      0.2048
     21  O2'       68.8190   58.0220   -1.3300 O.3   570  FMN570     -0.2185
     22  C3'       66.7580   59.4700   -1.3870 C.3   570  FMN570      0.2165
     23  O3'       67.3050   60.6450   -0.7500 O.3   570  FMN570     -0.2175
     24  C4'       65.2610   59.3700   -1.5580 C.3   570  FMN570      0.2147
     25  O4'       64.9130   58.0510   -1.9220 O.3   570  FMN570     -0.2176
     26  C5'       64.8880   60.5020   -2.5020 C.3   570  FMN570      0.1892
     27  O5'       63.4900   60.4590   -2.5810 O.3   570  FMN570     -0.2674
     28  P         62.3720   59.6420   -3.3660 P.3   570  FMN570      0.5327
     29  O1P       61.0320   60.3300   -3.2290 O.3   570  FMN570     -0.1145
     30  O2P       62.3390   58.2090   -2.9000 O.3   570  FMN570     -0.1145
     31  O3P       62.7860   59.6710   -4.8210 O.2   570  FMN570     -0.2224
@<TRIPOS>BOND
     1    31    28    2
     2    28    29    1
     3    28    30    1
     4    28    27    1
     5    27    26    1
     6    26    24    1
     7    25    24    1
     8    24    22    1
     9    22    23    1
    10    22    20    1
    11    21    20    1
    12    20    19    1
    13    14    13    1
    14    13    15    1
    15    13    11    1
    16    15    16    2
    17    19    17    1
    18    12    11    1
    19    11    10    2
    20    16    17    1
    21    16     9    1
    22    17    18    1
    23     1    18    2
    24     1     2    2
    25    10     9    1
    26    18     7    1
    27     9     8    2
    28     3     2    2
    29     2     4    2
    30     7     8    2
    31     7     5    1
    32     4     5    2
    33     5     6    2
