@<TRIPOS>MOLECULE
1fcb_HEM_A_1.pdb
 43 50 0 0 0
SMALL
GASTEIGER

@<TRIPOS>ATOM
      1  CHA       68.5130   44.8780    8.2210 C.2   560  HEM560      0.0000
      2  CHB       73.2960   44.7920    8.7330 C.2   560  HEM560      0.0000
      3  CHC       72.8740   40.7650   11.2910 C.2   560  HEM560      0.0000
      4  CHD       68.1160   40.5780   10.5410 C.2   560  HEM560      0.0000
      5  C1A       69.8540   45.2220    8.1080 C.ar  560  HEM560      0.0000
      6  C2A       70.4080   46.3260    7.3460 C.ar  560  HEM560      0.0000
      7  C3A       71.7400   46.3120    7.4930 C.ar  560  HEM560      0.0000
      8  C4A       72.0380   45.1650    8.3120 C.ar  560  HEM560      0.0000
      9  CMA       72.7830   47.2860    6.8910 C.3   560  HEM560      0.0000
     10  CAA       69.5640   47.3010    6.5040 C.2   560  HEM560      0.0000
     11  CBA       69.6050   48.7200    6.9360 C.2   560  HEM560      0.0000
     12  CGA       68.6370   49.7950    6.5500 C.2   560  HEM560      0.0000
     13  O1A       69.2080   50.8990    6.6070 O.co2 560  HEM560      0.0000
     14  O2A       67.4780   49.6230    6.1740 O.co2 560  HEM560      0.0000
     15  C1B       73.6270   43.7030    9.5180 C.2   560  HEM560      0.0000
     16  C2B       74.9680   43.3300    9.9380 C.2   560  HEM560      0.0000
     17  C3B       74.8600   42.1980   10.6210 C.2   560  HEM560      0.0000
     18  C4B       73.4530   41.7970   10.6090 C.2   560  HEM560      0.0000
     19  CMB       76.1590   44.1900    9.5290 C.3   560  HEM560      0.0000
     20  CAB       75.9190   41.3090   11.2800 C.2   560  HEM560      0.0000
     21  CBB       77.0950   41.8830   11.5190 C.2   560  HEM560      0.0000
     22  C1C       71.5670   40.3920   11.3600 C.ar  560  HEM560      0.0000
     23  C2C       71.0780   39.1740   11.9850 C.ar  560  HEM560      0.0000
     24  C3C       69.7540   39.1160   11.7460 C.ar  560  HEM560      0.0000
     25  C4C       69.3980   40.2770   10.9730 C.ar  560  HEM560      0.0000
     26  CMC       71.9550   38.1420   12.7360 C.3   560  HEM560      0.0000
     27  CAC       68.8190   37.9840   12.2580 C.2   560  HEM560      0.0000
     28  CBC       67.6110   38.3570   12.7010 C.2   560  HEM560      0.0000
     29  C1D       67.8590   41.7390    9.8130 C.2   560  HEM560      0.0000
     30  C2D       66.5520   42.0830    9.3010 C.2   560  HEM560      0.0000
     31  C3D       66.6260   43.2440    8.6760 C.2   560  HEM560      0.0000
     32  C4D       68.0000   43.7030    8.7780 C.2   560  HEM560      0.0000
     33  CMD       65.3100   41.1660    9.5180 C.3   560  HEM560      0.0000
     34  CAD       65.5010   44.0470    7.9370 C.3   560  HEM560      0.0000
     35  CBD       64.6480   44.6920    9.0400 C.3   560  HEM560      0.0000
     36  CGD       63.5810   45.6520    8.6190 C.2   560  HEM560      0.0000
     37  O1D       62.3970   45.2940    8.9030 O.co2 560  HEM560      0.0000
     38  O2D       63.8700   46.7270    8.0390 O.co2 560  HEM560      0.0000
     39  NA        70.8710   44.5200    8.6870 N.ar  560  HEM560      0.0000
     40  NB        72.7000   42.7570    9.9500 N.2   560  HEM560      0.0000
     41  NC        70.5400   41.0230   10.7230 N.ar  560  HEM560      0.0000
     42  ND        68.7280   42.7860    9.4950 N.2   560  HEM560      0.0000
     43 FE         70.7470   42.7000    9.5970 Fe    560  HEM560      0.0000
@<TRIPOS>BOND
     1    14    12   ar
     2    10    11    2
     3    10     6    1
     4    12    13   ar
     5    12    11    1
     6     9     7    1
     7     6     7   ar
     8     6     5   ar
     9     7     8   ar
    10    34    31    1
    11    34    35    1
    12    38    36   ar
    13     5     1    2
    14     5    39   ar
    15     1    32    1
    16     8    39   ar
    17     8     2    2
    18    36    37   ar
    19    36    35    1
    20    31    32    1
    21    31    30    2
    22    39    43    1
    23     2    15    1
    24    32    42    2
    25    30    33    1
    26    30    29    1
    27    42    43    1
    28    42    29    1
    29    15    16    1
    30    15    40    2
    31    19    16    1
    32    43    40    1
    33    43    41    1
    34    29     4    2
    35    16    17    2
    36    40    18    1
    37     4    25    1
    38    18    17    1
    39    18     3    2
    40    17    20    1
    41    41    25   ar
    42    41    22   ar
    43    25    24   ar
    44    20    21    2
    45     3    22    1
    46    22    23   ar
    47    24    23   ar
    48    24    27    1
    49    23    26    1
    50    27    28    2
