@<TRIPOS>MOLECULE
1fcd_HEM_C_1.pdb
 43 50 0 0 0
SMALL
GASTEIGER

@<TRIPOS>ATOM
      1 FE         12.7570   -1.9160   32.8950 Fe    901  HEM901      0.0000
      2  CHA       11.6350   -4.6850   34.4640 C.2   901  HEM901      0.0000
      3  CHB       11.6320   -0.0250   35.4980 C.2   901  HEM901      0.0000
      4  CHC       13.7810    0.8970   31.3330 C.2   901  HEM901      0.0000
      5  CHD       13.5650   -3.7170   30.2170 C.2   901  HEM901      0.0000
      6  NA        11.7960   -2.2860   34.5980 N.2   901  HEM901      0.0000
      7  C1A       11.4380   -3.5000   35.1130 C.2   901  HEM901      0.0000
      8  C2A       10.9970   -3.3830   36.4790 C.2   901  HEM901      0.0000
      9  C3A       11.0710   -2.0800   36.8180 C.2   901  HEM901      0.0000
     10  C4A       11.4960   -1.3930   35.6130 C.2   901  HEM901      0.0000
     11  CMA       10.8420   -1.4600   38.1940 C.3   901  HEM901      0.0000
     12  CAA       10.5110   -4.5230   37.3430 C.3   901  HEM901      0.0000
     13  CBA        9.0160   -4.7010   37.2450 C.3   901  HEM901      0.0000
     14  CGA        8.4830   -5.9130   37.9830 C.2   901  HEM901      0.0000
     15  O1A        9.1220   -6.3330   38.9420 O.co2 901  HEM901      0.0000
     16  O2A        7.4260   -6.4440   37.6080 O.co2 901  HEM901      0.0000
     17  NB        12.7310    0.0100   33.3180 N.ar  901  HEM901      0.0000
     18  C1B       12.1840    0.6300   34.4230 C.ar  901  HEM901      0.0000
     19  C2B       12.2950    2.0720   34.3370 C.ar  901  HEM901      0.0000
     20  C3B       12.9140    2.3470   33.1690 C.ar  901  HEM901      0.0000
     21  C4B       13.2050    1.0510   32.5660 C.ar  901  HEM901      0.0000
     22  CMB       11.7750    3.0650   35.3610 C.3   901  HEM901      0.0000
     23  CAB       13.0980    3.7000   32.5280 C.3   901  HEM901      0.0000
     24  CBB       14.2240    4.5410   33.0890 C.3   901  HEM901      0.0000
     25  NC        13.5580   -1.4920   31.1580 N.2   901  HEM901      0.0000
     26  C1C       13.9520   -0.2850   30.6670 C.2   901  HEM901      0.0000
     27  C2C       14.5180   -0.4010   29.3420 C.2   901  HEM901      0.0000
     28  C3C       14.4260   -1.7100   29.0310 C.2   901  HEM901      0.0000
     29  C4C       13.8380   -2.3680   30.1620 C.2   901  HEM901      0.0000
     30  CMC       15.0450    0.7380   28.4790 C.3   901  HEM901      0.0000
     31  CAC       14.6680   -2.3890   27.7080 C.3   901  HEM901      0.0000
     32  CBC       16.0620   -2.2450   27.1410 C.3   901  HEM901      0.0000
     33  ND        12.6160   -3.7940   32.4470 N.ar  901  HEM901      0.0000
     34  C1D       13.0320   -4.3840   31.2900 C.ar  901  HEM901      0.0000
     35  C2D       12.9790   -5.8010   31.3860 C.ar  901  HEM901      0.0000
     36  C3D       12.5420   -6.1180   32.6290 C.ar  901  HEM901      0.0000
     37  C4D       12.2160   -4.8350   33.2320 C.ar  901  HEM901      0.0000
     38  CMD       13.3920   -6.7070   30.2770 C.3   901  HEM901      0.0000
     39  CAD       12.6930   -7.4340   33.3770 C.3   901  HEM901      0.0000
     40  CBD       13.9490   -7.4650   34.2680 C.3   901  HEM901      0.0000
     41  CGD       15.2780   -7.9360   33.6490 C.2   901  HEM901      0.0000
     42  O1D       15.4670   -9.1330   33.4610 O.co2 901  HEM901      0.0000
     43  O2D       16.1860   -7.1350   33.3830 O.co2 901  HEM901      0.0000
@<TRIPOS>BOND
     1    32    31    1
     2    31    28    1
     3    30    27    1
     4    28    27    2
     5    28    29    1
     6    27    26    1
     7    29     5    1
     8    29    25    2
     9     5    34    2
    10    38    35    1
    11    26    25    1
    12    26     4    2
    13    25     1    1
    14    34    35   ar
    15    34    33   ar
    16     4    21    1
    17    35    36   ar
    18    33     1    1
    19    33    37   ar
    20    23    24    1
    21    23    20    1
    22    21    20   ar
    23    21    17   ar
    24    36    37   ar
    25    36    39    1
    26     1    17    1
    27     1     6    1
    28    20    19   ar
    29    37     2    2
    30    17    18   ar
    31    39    40    1
    32    43    41   ar
    33    42    41   ar
    34    41    40    1
    35    19    18   ar
    36    19    22    1
    37    18     3    1
    38     2     7    1
    39     6     7    2
    40     6    10    1
    41     7     8    1
    42     3    10    2
    43    10     9    1
    44     8     9    2
    45     8    12    1
    46     9    11    1
    47    13    12    1
    48    13    14    1
    49    16    14   ar
    50    14    15   ar
