@<TRIPOS>MOLECULE
1fce_MGL_A_1.pdb
 26 26 0 0 0
SMALL
GASTEIGER

@<TRIPOS>ATOM
      1  C1        65.7690   82.6400   53.3090 C.3   2097  MGL2097     0.1876
      2  C2        65.9490   82.5540   54.8210 C.3   2097  MGL2097     0.1342
      3  C3        65.2470   81.2900   55.3170 C.3   2097  MGL2097     0.1174
      4  C4        63.7920   81.3300   54.8840 C.3   2097  MGL2097     0.1502
      5  C5        63.6480   81.5810   53.3930 C.3   2097  MGL2097     0.1163
      6  C6        62.1960   81.8330   53.0260 C.3   2097  MGL2097     0.0731
      7  C7        66.4380   83.9170   51.3730 C.3   2097  MGL2097     0.0395
      8  O1        66.4100   83.7670   52.8080 O.3   2097  MGL2097    -0.3520
      9  O2        67.3300   82.5190   55.1470 O.3   2097  MGL2097    -0.3841
     10  O3        65.3230   81.2260   56.7320 O.3   2097  MGL2097    -0.3863
     11  O4        63.1680   80.0820   55.1830 O.3   2097  MGL2097    -0.2256
     12  O5        64.3880   82.7500   53.0010 O.3   2097  MGL2097    -0.3404
     13  O6        61.4100   80.6920   53.2970 O.3   2097  MGL2097    -0.3924
     14  H1        66.1880   81.7570   52.8050 H     2097  MGL2097     0.0937
     15  H2        65.5010   83.4300   55.2990 H     2097  MGL2097     0.0671
     16  H3        65.7680   80.4140   54.8960 H     2097  MGL2097     0.0649
     17  H4        63.3200   82.1730   55.4090 H     2097  MGL2097     0.0682
     18  H5        64.0100   80.7200   52.8290 H     2097  MGL2097     0.0648
     19  H61       62.1040   82.1030   51.9730 H     2097  MGL2097     0.0584
     20  H62       61.8080   82.6820   53.6120 H     2097  MGL2097     0.0584
     21  H71       65.4520   84.1930   50.9780 H     2097  MGL2097     0.0525
     22  H72       66.7780   83.0070   50.8710 H     2097  MGL2097     0.0525
     23  H73       67.1600   84.6940   51.1120 H     2097  MGL2097     0.0525
     24  HO2       67.4250   82.4440   56.0980 H     2097  MGL2097     0.2101
     25  HO3       65.2790   80.3080   57.0050 H     2097  MGL2097     0.2100
     26  HO6       60.6590   80.6690   52.6960 H     2097  MGL2097     0.2095
@<TRIPOS>BOND
     1    22     7    1
     2    21     7    1
     3    23     7    1
     4     7     8    1
     5    19     6    1
     6    26    13    1
     7    14     1    1
     8     8     1    1
     9    18     5    1
    10    12     1    1
    11    12     5    1
    12     6    13    1
    13     6     5    1
    14     6    20    1
    15     1     2    1
    16     5     4    1
    17     2     9    1
    18     2    15    1
    19     2     3    1
    20     4    11    1
    21     4     3    1
    22     4    17    1
    23    16     3    1
    24     9    24    1
    25     3    10    1
    26    10    25    1
