@<TRIPOS>MOLECULE
1fce_BGC_A_1.pdb
 22 22 0 0 0
SMALL
GASTEIGER

@<TRIPOS>ATOM
      1  C2        58.7460   71.3510   63.0450 C.3   2094  BGC2094     0.1121
      2  C3        57.5580   70.6320   63.6670 C.3   2094  BGC2094     0.1118
      3  C4        57.4000   71.1250   65.1030 C.3   2094  BGC2094     0.1117
      4  C5        57.2540   72.6590   65.1390 C.3   2094  BGC2094     0.1105
      5  C6        57.3100   73.1660   66.5790 C.3   2094  BGC2094     0.0729
      6  C1        58.4950   72.8450   63.0750 C.3   2094  BGC2094     0.1161
      7  O2        58.9470   70.9360   61.6960 O.3   2094  BGC2094    -0.3865
      8  O3        57.7770   69.2270   63.6550 O.3   2094  BGC2094    -0.3865
      9  O4        56.2590   70.5170   65.7020 O.3   2094  BGC2094    -0.3865
     10  O5        58.3390   73.3070   64.4230 O.3   2094  BGC2094    -0.3631
     11  O6        57.2720   74.5890   66.6330 O.3   2094  BGC2094    -0.3924
     12  H2        59.6530   71.1220   63.6200 H     2094  BGC2094     0.0647
     13  H3        56.6460   70.8550   63.0960 H     2094  BGC2094     0.0647
     14  H4        58.2900   70.8300   65.6820 H     2094  BGC2094     0.0647
     15  H5        56.3050   72.9730   64.6860 H     2094  BGC2094     0.0646
     16 H6C1       58.2300   72.8180   67.0710 H     2094  BGC2094     0.0584
     17 H6C2       56.4620   72.7610   67.1480 H     2094  BGC2094     0.0584
     18  H1        57.5900   73.0920   62.4970 H     2094  BGC2094     0.0650
     19  HB        59.1160   69.9970   61.6800 H     2094  BGC2094     0.2100
     20  HC        57.0360   68.7870   64.0670 H     2094  BGC2094     0.2100
     21  HD        55.4740   70.7840   65.2110 H     2094  BGC2094     0.2100
     22  H6        56.3970   74.8690   66.9220 H     2094  BGC2094     0.2095
@<TRIPOS>BOND
     1    19     7    1
     2     7     1    1
     3    18     6    1
     4     1     6    1
     5     1    12    1
     6     1     2    1
     7     6    10    1
     8    13     2    1
     9     8     2    1
    10     8    20    1
    11     2     3    1
    12    10     4    1
    13    15     4    1
    14     3     4    1
    15     3    14    1
    16     3     9    1
    17     4     5    1
    18    21     9    1
    19     5    11    1
    20     5    16    1
    21     5    17    1
    22    11    22    1
