@<TRIPOS>MOLECULE
1fce_SGC_A_1.pdb
 21 21 0 0 0
SMALL
GASTEIGER

@<TRIPOS>ATOM
      1  C1        62.4570   80.0000   56.3530 C.3   2096  SGC2096     0.1160
      2  C2        61.6490   78.7190   56.3330 C.3   2096  SGC2096     0.1107
      3  O2        60.6790   78.7960   55.2910 O.3   2096  SGC2096    -0.3865
      4  C3        60.9490   78.4930   57.6650 C.3   2096  SGC2096     0.0986
      5  O3        60.4350   77.1640   57.7200 O.3   2096  SGC2096    -0.3879
      6  C4        61.8740   78.6970   58.8590 C.3   2096  SGC2096     0.0722
      7  C5        62.7750   79.9550   58.6920 C.3   2096  SGC2096     0.0972
      8  O5        63.4010   79.9600   57.4040 O.3   2096  SGC2096    -0.3646
      9  C6        63.9000   80.0330   59.7390 C.3   2096  SGC2096     0.0716
     10  O6        64.9140   80.9630   59.3710 O.3   2096  SGC2096    -0.3924
     11  S4        60.8230   78.8420   60.4010 S.3   2096  SGC2096    -0.0840
     12  H1        61.7990   80.8750   56.4480 H     2096  SGC2096     0.0650
     13  H2        62.3200   77.8680   56.1610 H     2096  SGC2096     0.0646
     14  H2O       61.1290   78.8600   54.4460 H     2096  SGC2096     0.2100
     15  H3        60.1130   79.2070   57.7390 H     2096  SGC2096     0.0632
     16  H3O       59.8380   77.1070   58.4650 H     2096  SGC2096     0.2099
     17  H4        62.4960   77.8120   59.0220 H     2096  SGC2096     0.0473
     18  H5        62.1880   80.8860   58.7660 H     2096  SGC2096     0.0631
     19  H62       63.4770   80.3380   60.7040 H     2096  SGC2096     0.0583
     20  H61       64.3620   79.0530   59.8780 H     2096  SGC2096     0.0583
     21  H6        64.5040   81.7540   59.0150 H     2096  SGC2096     0.2095
@<TRIPOS>BOND
     1    14     3    1
     2     3     2    1
     3    13     2    1
     4     2     1    1
     5     2     4    1
     6     1    12    1
     7     1     8    1
     8     8     7    1
     9     4     5    1
    10     4    15    1
    11     4     6    1
    12     5    16    1
    13     7    18    1
    14     7     6    1
    15     7     9    1
    16     6    17    1
    17     6    11    1
    18    21    10    1
    19    10     9    1
    20     9    20    1
    21     9    19    1
