@<TRIPOS>MOLECULE
1fcj_PLP_A_1.pdb
 15 15 0 0 0
SMALL
GASTEIGER

@<TRIPOS>ATOM
      1  N1         3.8500   30.0750   17.3760 N.ar  3001  PLP3001    -0.2452
      2  C2         4.8430   29.5560   16.6160 C.ar  3001  PLP3001     0.0978
      3  C2A        4.5680   29.2280   15.1480 C.3   3001  PLP3001     0.0555
      4  C3         6.0990   29.3610   17.1570 C.ar  3001  PLP3001     0.2049
      5  O3         7.1230   28.8900   16.3590 O.3   3001  PLP3001    -0.2857
      6  C4         6.3380   29.6890   18.4760 C.ar  3001  PLP3001     0.0182
      7  C4A        7.7370   29.4670   19.0890 C.3   3001  PLP3001     0.0342
      8  C5         5.2980   30.2230   19.2410 C.ar  3001  PLP3001     0.0261
      9  C6         4.0750   30.4090   18.6770 C.ar  3001  PLP3001     0.0965
     10  C5A        5.4340   30.4600   20.7340 C.3   3001  PLP3001     0.1815
     11  O4P        6.4720   31.3720   21.0660 O.3   3001  PLP3001    -0.2653
     12  P          7.1930   31.2350   22.4860 P.3   3001  PLP3001     0.5329
     13  O1P        6.1670   30.9320   23.5220 O.3   3001  PLP3001    -0.1145
     14  O2P        8.1000   29.9480   22.3270 O.2   3001  PLP3001    -0.2224
     15  O3P        8.0840   32.4150   22.6550 O.3   3001  PLP3001    -0.1145
@<TRIPOS>BOND
     1     3     2    1
     2     5     4    1
     3     2     4   ar
     4     2     1   ar
     5     4     6   ar
     6     1     9   ar
     7     6     7    1
     8     6     8   ar
     9     9     8   ar
    10     8    10    1
    11    10    11    1
    12    11    12    1
    13    14    12    2
    14    12    15    1
    15    12    13    1
