@<TRIPOS>MOLECULE
1fcm_CXU_A_1.pdb
 29 31 0 0 0
SMALL
GASTEIGER

@<TRIPOS>ATOM
      1 CL         22.4560    9.6230   13.7740 Cl    961  CXU961     -0.0822
      2  C1        26.2100    5.1670   15.9680 C.2   961  CXU961      0.2311
      3  O1        25.3260    4.4460   16.4150 O.2   961  CXU961     -0.2863
      4  C2        25.8990    6.5450   15.3360 C.3   961  CXU961      0.1859
      5  N2        24.5110    6.6290   14.7740 N.am  961  CXU961     -0.1929
      6  C3        26.2840    7.6130   16.4240 C.3   961  CXU961      0.1479
      7  S4        25.0970    8.9920   16.7070 S.3   961  CXU961     -0.1212
      8  C5        24.9880    8.7150   18.5190 C.3   961  CXU961      0.0658
      9  C6        25.3550    7.1870   18.5840 C.3   961  CXU961      0.1857
     10  N7        26.5140    7.0170   17.7420 N.3   961  CXU961     -0.1957
     11  C8        25.5670    6.5400   19.9590 C.2   961  CXU961      0.3811
     12  C21       24.2700    6.3470   13.6500 C.2   961  CXU961      0.2695
     13  O21       25.1780    6.1820   12.7950 O.2   961  CXU961     -0.2682
     14  C22       22.8520    6.1820   13.2070 C.ar  961  CXU961      0.1087
     15  C23       22.2840    5.5470   12.1590 C.ar  961  CXU961      0.1592
     16  O24       20.9850    5.5810   12.0420 O.2   961  CXU961     -0.3576
     17  N25       20.5320    6.3340   13.1500 N.ar  961  CXU961     -0.0772
     18  C26       21.5850    6.6900   13.8380 C.ar  961  CXU961      0.1278
     19  C27       23.1240    4.8180   11.1340 C.3   961  CXU961      0.0755
     20  C28       21.2080    7.5250   15.0620 C.ar  961  CXU961      0.0316
     21  C29       21.5720    8.8990   15.1230 C.ar  961  CXU961      0.0592
     22  C30       21.2430    9.7050   16.2440 C.ar  961  CXU961      0.0114
     23  C31       20.5380    9.1280   17.3470 C.ar  961  CXU961      0.0009
     24  C32       20.1670    7.7350   17.3050 C.ar  961  CXU961      0.0001
     25  C33       20.5030    6.9320   16.1590 C.ar  961  CXU961      0.0024
     26  C51       23.5320    9.0460   18.9820 C.3   961  CXU961      0.0129
     27  C52       25.9660    9.6800   19.2510 C.3   961  CXU961      0.0129
     28  O81       26.6480    6.8080   20.6310 O.co2 961  CXU961     -0.2441
     29  O82       24.6680    5.7120   20.3900 O.co2 961  CXU961     -0.2441
@<TRIPOS>BOND
     1    19    15    1
     2    16    15   ar
     3    16    17   ar
     4    15    14   ar
     5    13    12    2
     6    17    18   ar
     7    14    12    1
     8    14    18   ar
     9    12     5   am
    10     1    21    1
    11    18    20    1
    12     5     4    1
    13    20    21   ar
    14    20    25   ar
    15    21    22   ar
    16     4     2    1
    17     4     6    1
    18     2     3    2
    19    25    24   ar
    20    22    23   ar
    21     6     7    1
    22     6    10    1
    23     7     8    1
    24    24    23   ar
    25    10     9    1
    26     8     9    1
    27     8    26    1
    28     8    27    1
    29     9    11    1
    30    11    29   ar
    31    11    28   ar
