@<TRIPOS>MOLECULE
1fcn_LOR_A_1.pdb
 24 25 0 0 0
SMALL
GASTEIGER

@<TRIPOS>ATOM
      1 CL         22.1280   10.3610   16.5040 Cl    961  LOR961     -0.1083
      2  C1        26.7220    5.1980   16.2680 C.2   961  LOR961      0.2307
      3  O1        25.9350    4.4640   16.8680 O.2   961  LOR961     -0.2863
      4  C2        26.2320    6.5710   15.6960 C.3   961  LOR961      0.1817
      5  N2        24.9290    6.3970   14.9030 N.am  961  LOR961     -0.1956
      6  C3        26.0700    7.6080   16.8580 C.3   961  LOR961      0.1306
      7  C4        26.1800    9.0060   16.2890 C.3   961  LOR961      0.0282
      8  C5        24.8810    9.4890   15.6420 C.3   961  LOR961      0.0246
      9  C6        23.5010    9.3230   16.6840 C.3   961  LOR961      0.1260
     10  C7        23.5910    8.1660   17.7760 C.2   961  LOR961      0.1480
     11  C8        22.5160    7.8260   18.7850 C.2   961  LOR961      0.4018
     12  N8        24.8680    7.3700   17.7520 N.2   961  LOR961     -0.2668
     13  C21       24.9240    5.7580   13.7100 C.2   961  LOR961      0.2635
     14  O21       25.9680    5.2510   13.2530 O.2   961  LOR961     -0.2714
     15  C22       23.6130    5.6060   12.9100 C.3   961  LOR961      0.1915
     16  N22       23.5410    4.3260   12.4020 N.3   961  LOR961     -0.1182
     17  C23       23.5120    6.5490   11.7660 C.ar  961  LOR961      0.0038
     18  C24       24.4810    6.4960   10.6890 C.ar  961  LOR961     -0.0024
     19  C25       24.3740    7.3950    9.5950 C.ar  961  LOR961     -0.0003
     20  C26       23.2960    8.3670    9.5430 C.ar  961  LOR961     -0.0000
     21  C27       22.3220    8.4150   10.6270 C.ar  961  LOR961     -0.0003
     22  C28       22.4320    7.4990   11.7430 C.ar  961  LOR961     -0.0024
     23  O81       22.8770    7.9050   20.0140 O.co2 961  LOR961     -0.2392
     24  O82       21.0800    7.3670   18.3310 O.co2 961  LOR961     -0.2392
@<TRIPOS>BOND
     1    20    19   ar
     2    20    21   ar
     3    19    18   ar
     4    21    22   ar
     5    18    17   ar
     6    22    17   ar
     7    17    15    1
     8    16    15    1
     9    15    13    1
    10    14    13    2
    11    13     5   am
    12     5     4    1
    13     8     7    1
    14     8     9    1
    15     4     2    1
    16     4     6    1
    17     2     3    2
    18     7     6    1
    19     1     9    1
    20     9    10    1
    21     6    12    1
    22    12    10    2
    23    10    11    1
    24    24    11   ar
    25    11    23   ar
