@<TRIPOS>MOLECULE
1fco_MOX_A_1.pdb
 29 30 0 0 0
SMALL
GASTEIGER

@<TRIPOS>ATOM
      1  C1        26.1300    5.0360   16.6860 C.2   961  MOX961      0.2597
      2  O1        25.3890    4.1780   17.1010 O.2   961  MOX961     -0.2836
      3  C2        25.5710    6.3730   16.2670 C.3   961  MOX961      0.2774
      4  N2        24.4240    6.1970   15.2960 N.am  961  MOX961     -0.1699
      5  C3        25.0290    7.2000   17.6260 C.3   961  MOX961      0.2730
      6  O4        26.2380    7.6650   18.3050 O.3   961  MOX961     -0.3261
      7  C5        26.0620    8.7690   19.2450 C.3   961  MOX961      0.1726
      8  C6        25.3610    9.9100   18.5710 C.2   961  MOX961      0.0312
      9  C7        24.2990    9.5840   17.5250 C.2   961  MOX961      0.1565
     10  C8        23.4060   10.6430   16.8900 C.2   961  MOX961      0.4045
     11  N8        24.1640    8.3290   17.1290 N.2   961  MOX961     -0.2327
     12  C9        25.6000   11.1900   19.0180 C.2   961  MOX961     -0.0003
     13  C21       24.4690    5.3140   14.2350 C.2   961  MOX961      0.2584
     14  O21       25.4880    4.6320   14.0480 O.2   961  MOX961     -0.2723
     15  C22       23.2500    5.1840   13.2340 C.3   961  MOX961      0.2032
     16  C23       23.4810    5.9830   11.9960 C.ar  961  MOX961     -0.0028
     17  C24       23.0920    5.4560   10.7220 C.ar  961  MOX961      0.0000
     18  C25       23.3020    6.2400    9.5330 C.ar  961  MOX961      0.0417
     19  C26       23.9030    7.5590    9.6200 C.ar  961  MOX961      0.1957
     20  O26       24.1110    8.3340    8.4390 O.3   961  MOX961     -0.2866
     21  C27       24.2920    8.0790   10.8810 C.ar  961  MOX961      0.0417
     22  C28       24.0840    7.2980   12.0790 C.ar  961  MOX961      0.0000
     23  C29       21.9580    5.6790   13.8600 C.2   961  MOX961      0.3771
     24  O30       20.9040    5.0270   13.7050 O.co2 961  MOX961     -0.2448
     25  O31       21.9290    6.7640   14.4940 O.co2 961  MOX961     -0.2448
     26  O61       26.6550    7.1330   15.6550 O.3   961  MOX961     -0.3279
     27  C62       26.2500    8.3160   14.8890 C.3   961  MOX961      0.1766
     28  O81       22.4600   10.2940   16.0350 O.co2 961  MOX961     -0.2389
     29  O82       23.6070   11.8790   17.1720 O.co2 961  MOX961     -0.2389
@<TRIPOS>BOND
     1    20    19    1
     2    18    19   ar
     3    18    17   ar
     4    19    21   ar
     5    17    16   ar
     6    21    22   ar
     7    16    22   ar
     8    16    15    1
     9    15    23    1
    10    15    13    1
    11    24    23   ar
    12    23    25   ar
    13    14    13    2
    14    13     4   am
    15    27    26    1
    16     4     3    1
    17    26     3    1
    18    28    10   ar
    19     3     1    1
    20     3     5    1
    21     1     2    2
    22    10    29   ar
    23    10     9    1
    24    11     9    2
    25    11     5    1
    26     9     8    1
    27     5     6    1
    28     6     7    1
    29     8    12    2
    30     8     7    1
