@<TRIPOS>MOLECULE
1fcp_LIL_A_1.pdb
 31 30 0 0 0
SMALL
GASTEIGER

@<TRIPOS>ATOM
      1  C1E       53.2260   73.2750   50.5610 C.2   903  LIL903      0.2099
      2  C2E       53.6290   74.6430   50.0200 C.3   903  LIL903      0.1018
      3  C3E       53.3330   74.8190   48.5180 C.3   903  LIL903      0.1256
      4  C4E       51.8320   74.8650   48.2290 C.3   903  LIL903      0.0301
      5  C5E       51.4440   75.7860   47.0810 C.3   903  LIL903      0.0025
      6  C6E       51.2510   77.2330   47.5360 C.3   903  LIL903      0.0001
      7  C7E       50.9550   78.1880   46.3740 C.3   903  LIL903      0.0000
      8  C8E       50.6930   79.5970   46.9020 C.3   903  LIL903      0.0000
      9  C9E       50.4780   80.6340   45.7910 C.3   903  LIL903      0.0000
     10  C0S       49.2010   80.3560   45.0150 C.3   903  LIL903      0.0000
     11  C1S       48.5400   81.6360   44.5130 C.3   903  LIL903      0.0000
     12  C2S       49.2640   82.2430   43.3280 C.3   903  LIL903      0.0000
     13  C3S       48.4960   83.4380   42.7770 C.3   903  LIL903      0.0000
     14  C4S       49.0830   83.9210   41.4570 C.3   903  LIL903      0.0000
     15  C5S       48.3180   85.1170   40.9100 C.3   903  LIL903      0.0000
     16  O1E       52.5710   72.4950   49.8790 O.2   903  LIL903     -0.2882
     17  O2E       53.9760   73.7850   47.7360 O.3   903  LIL903     -0.3306
     18  C1F       54.3210   74.1650   46.3820 C.3   903  LIL903      0.2688
     19  C2F       55.1930   75.3980   46.4080 C.3   903  LIL903      0.0644
     20  C3F       55.4240   75.9870   45.0290 C.3   903  LIL903      0.0053
     21  C4F       54.1230   76.0880   44.2790 C.3   903  LIL903      0.0002
     22  C5F       54.1340   77.2820   43.3480 C.3   903  LIL903      0.0000
     23  C6F       52.7630   77.5480   42.7700 C.3   903  LIL903      0.0000
     24  C7F       52.7350   78.8940   42.0810 C.3   903  LIL903      0.0000
     25  C8F       51.3310   79.2590   41.6690 C.3   903  LIL903      0.0000
     26  C9F       51.2800   80.6460   41.0510 C.3   903  LIL903      0.0000
     27  C0T       51.9920   80.7040   39.7090 C.3   903  LIL903      0.0000
     28  C1T       51.7710   82.0550   39.0450 C.3   903  LIL903      0.0000
     29  C2T       52.2990   82.0660   37.6240 C.3   903  LIL903      0.0000
     30  C3T       51.9490   83.3630   36.9130 C.3   903  LIL903      0.0000
     31  O1F       54.6530   73.2140   45.6760 O.3   903  LIL903     -0.1899
@<TRIPOS>BOND
     1    30    29    1
     2    29    28    1
     3    28    27    1
     4    27    26    1
     5    15    14    1
     6    26    25    1
     7    14    13    1
     8    25    24    1
     9    24    23    1
    10    23    22    1
    11    13    12    1
    12    12    11    1
    13    22    21    1
    14    21    20    1
    15    11    10    1
    16    10     9    1
    17    20    19    1
    18    31    18    1
    19     9     8    1
    20     7     8    1
    21     7     6    1
    22    18    19    1
    23    18    17    1
    24     5     6    1
    25     5     4    1
    26    17     3    1
    27     4     3    1
    28     3     2    1
    29    16     1    2
    30     2     1    1
