@<TRIPOS>MOLECULE
1fcp_FCI_A_1.pdb
 46 51 0 0 0
SMALL
GASTEIGER

@<TRIPOS>ATOM
      1  C1        83.1350   69.4730   55.6450 C.1   750  FCI750      0.0000
      2  C2        83.8870   73.4180   60.8110 C.1   750  FCI750      0.0000
      3  C3        82.2600   71.5500   49.9690 C.3   750  FCI750      0.0000
      4  C4        79.8170   70.3140   55.4120 C.1   750  FCI750      0.0000
      5  C5        83.5670   71.1390   58.9310 C.1   750  FCI750      0.0000
      6  C6        78.5670   74.4010   51.4470 C.3   750  FCI750      0.0000
      7  C7        80.0170   73.0590   57.0220 C.1   750  FCI750      0.0000
      8  C8        81.6740   75.4580   59.1940 C.1   750  FCI750      0.0000
      9  C9        82.9760   75.3020   52.8830 C.3   750  FCI750      0.0000
     10  C10       81.9390   69.3450   54.7010 C.3   750  FCI750      0.0000
     11  C11       84.0490   71.9520   61.1530 C.3   750  FCI750      0.0000
     12  C13       78.8900   71.5320   55.4870 C.3   750  FCI750      0.0000
     13  C14       83.9850   70.2470   57.7760 C.3   750  FCI750      0.0000
     14  C16       80.7760   74.3780   57.2170 C.3   750  FCI750      0.0000
     15  C17       82.4020   75.2950   60.5180 C.3   750  FCI750      0.0000
     16  C18       82.4010   69.2490   53.2430 C.3   750  FCI750      0.0000
     17  C21       78.0980   71.7030   54.1780 C.3   750  FCI750      0.0000
     18  C24       81.7830   74.6200   56.0820 C.3   750  FCI750      0.0000
     19  C25       81.2900   68.8080   52.3120 C.3   750  FCI750      0.0000
     20  C27       77.0540   72.8320   54.2090 C.3   750  FCI750      0.0000
     21  C29       83.0180   73.7300   56.0900 C.3   750  FCI750      0.0000
     22  C30       81.4330   69.3350   50.8890 C.3   750  FCI750      0.0000
     23  C32       77.6110   74.2160   53.7990 C.3   750  FCI750      0.0000
     24  C34       83.9130   73.9950   54.8770 C.3   750  FCI750      0.0000
     25 FE         81.1790   73.4100   51.7820 Fe    750  FCI750      0.0000
     26  N1        81.0140   70.4800   54.8550 N.2   750  FCI750      0.0000
     27  N2        84.3610   71.1370   59.9950 N.2   750  FCI750      0.0000
     28  N3        79.6350   72.7580   55.7810 N.2   750  FCI750      0.0000
     29  N4        81.4630   74.3480   58.4990 N.2   750  FCI750      0.0000
     30  N5        81.5750   70.7990   50.8340 N.4   750  FCI750      0.0000
     31  N6        78.6430   74.1310   52.7450 N.4   750  FCI750      0.0000
     32  N7        82.9170   70.0880   56.8030 N.2   750  FCI750      0.0000
     33  N8        83.1320   74.2100   53.6490 N.4   750  FCI750      0.0000
     34  N9        82.6510   73.9030   60.8350 N.2   750  FCI750      0.0000
     35  O1        84.2300   69.0090   55.3340 O.2   750  FCI750      0.0000
     36  O2        84.8660   74.1010   60.5300 O.2   750  FCI750      0.0000
     37  O3        82.2340   72.8140   50.1410 O.3   750  FCI750      0.0000
     38  O4        79.4470   69.2290   55.8620 O.2   750  FCI750      0.0000
     39  O5        82.5400   71.8170   58.8620 O.2   750  FCI750      0.0000
     40  O6        79.6280   74.2140   50.7400 O.3   750  FCI750      0.0000
     41  O7        79.7740   72.3310   57.9900 O.2   750  FCI750      0.0000
     42  O8        82.1910   75.2030   51.8660 O.3   750  FCI750      0.0000
     43  O10       80.8860   71.4640   51.8340 O.3   750  FCI750      0.0000
     44  O11       79.8750   73.7150   53.2160 O.3   750  FCI750      0.0000
     45  O14       82.4780   73.0870   53.2450 O.3   750  FCI750      0.0000
     46  O17       81.3080   76.5660   58.8000 O.2   750  FCI750      0.0000
@<TRIPOS>BOND
     1     3    37    1
     2     3    30    1
     3    37    25    1
     4    40     6    1
     5    40    25    1
     6    30    22    1
     7    30    43    1
     8    22    19    1
     9     6    31    1
    10    25    43    1
    11    25    42    1
    12    25    44    1
    13    25    45    1
    14    42     9    1
    15    19    16    1
    16    31    44    1
    17    31    23    1
    18     9    33    1
    19    16    10    1
    20    45    33    1
    21    33    24    1
    22    23    20    1
    23    17    20    1
    24    17    12    1
    25    10    26    1
    26    10     1    1
    27    26     4    2
    28    24    21    1
    29    35     1    2
    30     4    12    1
    31     4    38    2
    32    12    28    1
    33     1    32    2
    34    28     7    2
    35    18    21    1
    36    18    14    1
    37    32    13    1
    38     7    14    1
    39     7    41    2
    40    14    29    1
    41    13     5    1
    42    29     8    2
    43    46     8    2
    44    39     5    2
    45     5    27    2
    46     8    15    1
    47    27    11    1
    48    15    34    1
    49    36     2    2
    50     2    34    2
    51     2    11    1
