@<TRIPOS>MOLECULE
1fcp_LIM_A_1.pdb
 17 16 0 0 0
SMALL
GASTEIGER

@<TRIPOS>ATOM
      1  C1J       52.6300   77.0540   59.6340 C.2   906  LIM906      0.2100
      2  C2J       51.8840   77.9430   60.6030 C.3   906  LIM906      0.1050
      3  C3J       52.3380   79.4000   60.5270 C.3   906  LIM906      0.1598
      4  C4J       51.4550   80.2880   61.4090 C.3   906  LIM906      0.0334
      5  C5J       51.6080   81.7920   61.1780 C.3   906  LIM906      0.0026
      6  C6J       51.2250   82.1620   59.7580 C.3   906  LIM906      0.0001
      7  C7J       51.0000   83.6650   59.5710 C.3   906  LIM906      0.0000
      8  C8J       50.4470   83.9020   58.1710 C.3   906  LIM906      0.0000
      9  C9J       49.7770   85.2520   57.9920 C.3   906  LIM906      0.0000
     10  C0X       49.1430   85.3150   56.6020 C.3   906  LIM906      0.0000
     11  C1X       48.2570   86.5370   56.4080 C.3   906  LIM906      0.0000
     12  C2X       49.0660   87.7920   56.1760 C.3   906  LIM906      0.0000
     13  C3X       48.1580   89.0100   56.0810 C.3   906  LIM906      0.0000
     14  C4X       47.0390   88.8280   55.0500 C.3   906  LIM906      0.0000
     15  C5X       47.5820   88.7150   53.6360 C.3   906  LIM906      0.0000
     16  O1J       52.8260   77.4350   58.4770 O.2   906  LIM906     -0.2882
     17  O2J       53.7060   79.5020   60.9450 O.3   906  LIM906     -0.2227
@<TRIPOS>BOND
     1    15    14    1
     2    14    13    1
     3    13    12    1
     4    12    11    1
     5    11    10    1
     6    10     9    1
     7     9     8    1
     8     8     7    1
     9    16     1    2
    10     7     6    1
    11     1     2    1
    12     6     5    1
    13     3     2    1
    14     3    17    1
    15     3     4    1
    16     5     4    1
