@<TRIPOS>MOLECULE
1fcp_GP4_A_1.pdb
 15 15 0 0 0
SMALL
GASTEIGER

@<TRIPOS>ATOM
      1  C1A       54.7710   71.5570   54.8430 C.3   901  GP4901      0.1638
      2  C2A       54.4380   72.4660   53.6280 C.3   901  GP4901      0.1541
      3  C3A       54.0380   71.7850   52.2980 C.3   901  GP4901      0.2019
      4  C4A       54.7930   70.4570   52.0990 C.3   901  GP4901      0.1875
      5  C5A       54.6210   69.6210   53.3540 C.3   901  GP4901      0.1782
      6  C6A       55.2540   68.2420   53.1370 C.3   901  GP4901      0.2140
      7  N2A       53.6140   73.6200   53.9690 N.3   901  GP4901     -0.1275
      8  O3A       54.3560   72.6700   51.2070 O.3   901  GP4901     -0.2188
      9  O4A       54.2440   69.7380   50.9710 O.3   901  GP4901     -0.2675
     10  O5A       55.2120   67.4940   54.3660 O.3   901  GP4901     -0.2176
     11  O6A       55.2560   70.2600   54.4770 O.3   901  GP4901     -0.3493
     12  O7A       54.6470   68.6280   48.8750 O.2   901  GP4901     -0.2224
     13  P4A       55.2350   69.5710   49.8630 P.3   901  GP4901      0.5327
     14  O8A       55.4590   70.9100   49.2590 O.3   901  GP4901     -0.1145
     15  O9A       56.4820   69.0140   50.4420 O.3   901  GP4901     -0.1145
@<TRIPOS>BOND
     1    12    13    2
     2    14    13    1
     3    13    15    1
     4    13     9    1
     5     9     4    1
     6     8     3    1
     7     4     3    1
     8     4     5    1
     9     3     2    1
    10     6     5    1
    11     6    10    1
    12     5    11    1
    13     2     7    1
    14     2     1    1
    15    11     1    1
