@<TRIPOS>MOLECULE
1fcp_GP1_A_1.pdb
 16 16 0 0 0
SMALL
GASTEIGER

@<TRIPOS>ATOM
      1  C1B       54.3870   73.7620   59.7540 C.3   902  GP1902      0.2651
      2  C2B       53.3740   74.7820   59.1730 C.3   902  GP1902      0.1812
      3  C3B       52.1240   74.0790   58.6460 C.3   902  GP1902      0.2071
      4  C4B       52.5470   73.0190   57.6190 C.3   902  GP1902      0.2133
      5  C5B       53.6160   72.0590   58.1990 C.3   902  GP1902      0.1834
      6  C6B       54.1220   71.1030   57.1110 C.3   902  GP1902      0.2142
      7  N2B       53.0470   75.8720   60.0910 N.3   902  GP1902     -0.1247
      8  O1B       53.8550   73.1040   60.9250 O.3   902  GP1902     -0.2428
      9  O3B       51.2540   75.0440   58.0260 O.3   902  GP1902     -0.2186
     10  O4B       51.4000   72.2660   57.1900 O.3   902  GP1902     -0.2176
     11  O5B       53.7070   71.5470   55.8010 O.3   902  GP1902     -0.2176
     12  O6B       54.7290   72.7920   58.7410 O.3   902  GP1902     -0.3261
     13  O7B       56.1020   72.2070   61.0960 O.2   902  GP1902     -0.2223
     14  P4B       54.9490   72.7260   61.8820 P.3   902  GP1902      0.5345
     15  O8B       55.3210   73.9420   62.6430 O.3   902  GP1902     -0.1145
     16  O9B       54.4080   71.6790   62.7830 O.3   902  GP1902     -0.1145
@<TRIPOS>BOND
     1    11     6    1
     2     6     5    1
     3    10     4    1
     4     4     5    1
     5     4     3    1
     6     9     3    1
     7     5    12    1
     8     3     2    1
     9    12     1    1
    10     2     1    1
    11     2     7    1
    12     1     8    1
    13     8    14    1
    14    13    14    2
    15    14    15    1
    16    14    16    1
