@<TRIPOS>MOLECULE
1fcs_HEM_A_1.pdb
 43 50 0 0 0
SMALL
GASTEIGER

@<TRIPOS>ATOM
      1 FE         35.1770    4.4400    9.9930 Fe    155  HEM155      0.0000
      2  CHA       37.9560    2.8300   11.6500 C.2   155  HEM155      0.0000
      3  CHB       37.0770    5.4920    7.7840 C.2   155  HEM155      0.0000
      4  CHC       32.6720    6.4720    9.2720 C.2   155  HEM155      0.0000
      5  CHD       33.4130    3.5500   13.0020 C.2   155  HEM155      0.0000
      6  NA        37.1300    4.2210    9.9040 N.ar  155  HEM155      0.0000
      7  C1A       38.1530    3.4850   10.4640 C.ar  155  HEM155      0.0000
      8  C2A       39.3740    3.5100    9.6400 C.ar  155  HEM155      0.0000
      9  C3A       39.0370    4.2500    8.5740 C.ar  155  HEM155      0.0000
     10  C4A       37.6700    4.7030    8.7400 C.ar  155  HEM155      0.0000
     11  CMA       39.8450    4.5150    7.2900 C.3   155  HEM155      0.0000
     12  CAA       40.6240    2.5880    9.6950 C.3   155  HEM155      0.0000
     13  CBA       40.5510    1.3300    8.7900 C.3   155  HEM155      0.0000
     14  CGA       39.2440    0.5990    8.8710 C.2   155  HEM155      0.0000
     15  O1A       38.9510    0.0260    9.9380 O.co2 155  HEM155      0.0000
     16  O2A       38.4830    0.6880    7.8840 O.co2 155  HEM155      0.0000
     17  NB        34.8520    5.5800    8.6920 N.2   155  HEM155      0.0000
     18  C1B       35.7810    5.9300    7.7520 C.2   155  HEM155      0.0000
     19  C2B       35.1760    6.8240    6.7610 C.2   155  HEM155      0.0000
     20  C3B       33.9620    7.1060    7.2230 C.2   155  HEM155      0.0000
     21  C4B       33.8160    6.4490    8.5040 C.2   155  HEM155      0.0000
     22  CMB       35.7880    7.3800    5.4570 C.3   155  HEM155      0.0000
     23  CAB       32.8700    7.9140    6.5180 C.2   155  HEM155      0.0000
     24  CBB       33.0420    9.2050    6.2430 C.2   155  HEM155      0.0000
     25  NC        33.4810    4.9400   11.0180 N.ar  155  HEM155      0.0000
     26  C1C       32.5510    5.7930   10.4640 C.ar  155  HEM155      0.0000
     27  C2C       31.3760    5.9040   11.3070 C.ar  155  HEM155      0.0000
     28  C3C       31.5670    5.0740   12.3600 C.ar  155  HEM155      0.0000
     29  C4C       32.8320    4.3970   12.1060 C.ar  155  HEM155      0.0000
     30  CMC       30.2130    6.8430   10.9460 C.3   155  HEM155      0.0000
     31  CAC       30.6920    4.7670   13.5900 C.2   155  HEM155      0.0000
     32  CBC       29.7160    5.5660   14.0010 C.2   155  HEM155      0.0000
     33  ND        35.5900    3.4340   11.9050 N.2   155  HEM155      0.0000
     34  C1D       34.6990    3.1210   12.9110 C.2   155  HEM155      0.0000
     35  C2D       35.2920    2.3070   13.9470 C.2   155  HEM155      0.0000
     36  C3D       36.5490    2.1060   13.5350 C.2   155  HEM155      0.0000
     37  C4D       36.7660    2.8680   12.3300 C.2   155  HEM155      0.0000
     38  CMD       34.5980    1.8900   15.2620 C.3   155  HEM155      0.0000
     39  CAD       37.6870    1.3850   14.2450 C.3   155  HEM155      0.0000
     40  CBD       38.1230    2.3230   15.3820 C.3   155  HEM155      0.0000
     41  CGD       39.2190    1.7500   16.2300 C.2   155  HEM155      0.0000
     42  O1D       39.1380    0.6590   16.8450 O.co2 155  HEM155      0.0000
     43  O2D       40.2260    2.4240   16.1690 O.co2 155  HEM155      0.0000
@<TRIPOS>BOND
     1    22    19    1
     2    24    23    2
     3    23    20    1
     4    19    20    2
     5    19    18    1
     6    20    21    1
     7    11     9    1
     8    18     3    1
     9    18    17    2
    10     3    10    2
    11    16    14   ar
    12    21    17    1
    13    21     4    2
    14     9    10   ar
    15     9     8   ar
    16    17     1    1
    17    10     6   ar
    18    13    14    1
    19    13    12    1
    20    14    15   ar
    21     4    26    1
    22     8    12    1
    23     8     7   ar
    24     6     1    1
    25     6     7   ar
    26     1    25    1
    27     1    33    1
    28     7     2    2
    29    26    25   ar
    30    26    27   ar
    31    30    27    1
    32    25    29   ar
    33    27    28   ar
    34     2    37    1
    35    33    37    2
    36    33    34    1
    37    29    28   ar
    38    29     5    1
    39    37    36    1
    40    28    31    1
    41    34     5    2
    42    34    35    1
    43    36    35    2
    44    36    39    1
    45    31    32    2
    46    35    38    1
    47    39    40    1
    48    40    41    1
    49    43    41   ar
    50    41    42   ar
