@<TRIPOS>MOLECULE
1fcv_GCU_A_1.pdb
 12 12 0 0 0
SMALL
GASTEIGER

@<TRIPOS>ATOM
      1  C1         8.4330   31.1160  -13.2840 C.3   401  GCU401      0.1783
      2  C2         9.3230   32.3570  -13.3430 C.3   401  GCU401      0.2141
      3  C3         9.2770   33.0500  -14.6830 C.3   401  GCU401      0.2178
      4  C4         9.4940   32.0500  -15.8080 C.3   401  GCU401      0.2227
      5  C5         8.6470   30.7900  -15.5690 C.3   401  GCU401      0.2512
      6  C6         8.8300   29.7230  -16.5790 C.2   401  GCU401      0.3940
      7  O2         8.9470   33.2800  -12.3330 O.3   401  GCU401     -0.2176
      8  O3        10.3080   34.0450  -14.7900 O.3   401  GCU401     -0.2175
      9  O4         9.0280   32.6720  -17.0100 O.3   401  GCU401     -0.2171
     10  O5         8.9240   30.2350  -14.2960 O.3   401  GCU401     -0.3403
     11  O6A        8.7860   28.5580  -16.1300 O.co2 401  GCU401     -0.2429
     12  O6B        8.9740   30.2290  -17.7120 O.co2 401  GCU401     -0.2429
@<TRIPOS>BOND
     1    12     6   ar
     2     9     4    1
     3     6    11   ar
     4     6     5    1
     5     4     5    1
     6     4     3    1
     7     5    10    1
     8     8     3    1
     9     3     2    1
    10    10     1    1
    11     2     1    1
    12     2     7    1
