@<TRIPOS>MOLECULE
1fcv_NAG_A_1.pdb
 14 14 0 0 0
SMALL
GASTEIGER

@<TRIPOS>ATOM
      1  C1         6.0060   29.5500   -9.5800 C.3   402  NAG402      0.1665
      2  C2         6.8170   30.5040  -10.4620 C.3   402  NAG402      0.1576
      3  C3         7.6040   29.7200  -11.4980 C.3   402  NAG402      0.2069
      4  C4         8.4260   28.6230  -10.8060 C.3   402  NAG402      0.2134
      5  C5         7.5580   27.7570   -9.9130 C.3   402  NAG402      0.1809
      6  C6         8.3090   26.7210   -9.1130 C.3   402  NAG402      0.2141
      7  C7         6.0440   32.8490  -10.7750 C.2   402  NAG402      0.2420
      8  C8         5.0620   33.8030  -11.4330 C.3   402  NAG402      0.0964
      9  N2         5.9100   31.5150  -11.0280 N.am  402  NAG402     -0.2019
     10  O3         8.5690   30.5410  -12.1110 O.3   402  NAG402     -0.2184
     11  O4         9.0040   27.7810  -11.8070 O.3   402  NAG402     -0.2176
     12  O5         6.8750   28.6010   -8.9830 O.3   402  NAG402     -0.3489
     13  O6         9.0610   27.2290   -8.0140 O.3   402  NAG402     -0.2176
     14  O7         6.9060   33.3110  -10.0560 O.2   402  NAG402     -0.2733
@<TRIPOS>BOND
     1    10     3    1
     2    11     4    1
     3     3     4    1
     4     3     2    1
     5     8     7    1
     6     9     7   am
     7     9     2    1
     8     4     5    1
     9     7    14    2
    10     2     1    1
    11     5     6    1
    12     5    12    1
    13     1    12    1
    14     6    13    1
