@<TRIPOS>MOLECULE
1fcx_184_A_1.pdb
 29 32 0 0 0
SMALL
GASTEIGER

@<TRIPOS>ATOM
      1  C1        34.8120   18.3020   88.3100 C.2   450  184450      0.3878
      2  C2        35.6880   17.3620   87.6370 C.ar  450  184450      0.0798
      3  C3        35.7540   16.0480   88.1900 C.ar  450  184450      0.0066
      4  C4        36.5760   15.0880   87.6060 C.ar  450  184450      0.0002
      5  C5        37.3590   15.3820   86.4520 C.ar  450  184450     -0.0002
      6  C10       37.2920   16.6660   85.9170 C.ar  450  184450      0.0002
      7  C11       36.4480   17.6410   86.5260 C.ar  450  184450      0.0066
      8  C15       42.6820   13.8490   81.6850 C.ar  450  184450     -0.0270
      9  C16       43.0400   13.2180   80.3560 C.3   450  184450      0.0186
     10  C17       44.4770   13.5720   79.9670 C.3   450  184450      0.0044
     11  C18       44.9220   14.9440   80.2750 C.3   450  184450      0.0044
     12  C19       44.8200   15.2950   81.7390 C.3   450  184450      0.0186
     13  C20       43.4990   14.7970   82.3090 C.ar  450  184450     -0.0268
     14  C23       42.0230   13.6600   79.3050 C.3   450  184450      0.0044
     15  C24       43.0550   11.6870   80.4240 C.3   450  184450      0.0044
     16  C25       44.8160   16.8220   81.6780 C.3   450  184450      0.0044
     17  C26       45.9950   14.8610   82.6600 C.3   450  184450      0.0044
     18  O1        34.4210   18.1730   89.4200 O.co2 450  184450     -0.2406
     19  O2        34.4720   19.3250   87.5700 O.co2 450  184450     -0.2406
     20  C6        38.1860   14.4020   85.8600 C.ar  450  184450     -0.0015
     21  C7        38.9520   14.6930   84.7340 C.ar  450  184450      0.0119
     22  C8        38.8660   15.9890   84.2030 C.ar  450  184450     -0.0015
     23  C9        38.0520   16.9820   84.7780 C.ar  450  184450     -0.0002
     24  C13       41.1700   14.0730   83.5500 C.ar  450  184450      0.0116
     25  C14       41.4920   13.4880   82.3290 C.ar  450  184450     -0.0061
     26  C21       43.1310   15.3500   83.5270 C.ar  450  184450     -0.0048
     27  C22       41.9870   14.9980   84.1470 C.ar  450  184450     -0.0018
     28  C12       39.8360   13.5480   84.0920 C.3   450  184450      0.1966
     29  O3        39.9280   12.5170   85.0740 O.3   450  184450     -0.2134
@<TRIPOS>BOND
     1    14     9    1
     2    10    11    1
     3    10     9    1
     4    11    12    1
     5     9    15    1
     6     9     8    1
     7    16    12    1
     8     8    13   ar
     9     8    25   ar
    10    12    13    1
    11    12    17    1
    12    13    26   ar
    13    25    24   ar
    14    26    27   ar
    15    24    28    1
    16    24    27   ar
    17    28    21    1
    18    28    29    1
    19    22    21   ar
    20    22    23   ar
    21    21    20   ar
    22    23     6   ar
    23    20     5   ar
    24     6     5   ar
    25     6     7   ar
    26     5     4   ar
    27     7     2   ar
    28    19     1   ar
    29     4     3   ar
    30     2     3   ar
    31     2     1    1
    32     1    18   ar
