@<TRIPOS>MOLECULE
1fcy_564_A_1.pdb
 29 32 0 0 0
SMALL
GASTEIGER

@<TRIPOS>ATOM
      1  C1        34.6330   18.3790   88.3370 C.2   450  564450      0.3878
      2  C2        35.5520   17.4410   87.7130 C.ar  450  564450      0.0798
      3  C3        35.6220   16.1120   88.2530 C.ar  450  564450      0.0066
      4  C4        36.5060   15.2120   87.6690 C.ar  450  564450      0.0002
      5  C5        37.3130   15.5740   86.5590 C.ar  450  564450      0.0001
      6  C10       37.2340   16.8700   86.0530 C.ar  450  564450      0.0002
      7  C11       36.3560   17.8050   86.6300 C.ar  450  564450      0.0066
      8  C15       42.7800   13.8630   81.8470 C.ar  450  564450     -0.0267
      9  C16       43.1920   13.0000   80.6640 C.3   450  564450      0.0186
     10  C17       44.6050   13.3080   80.2110 C.3   450  564450      0.0044
     11  C18       45.0020   14.7270   80.2690 C.3   450  564450      0.0044
     12  C19       44.8770   15.3370   81.6410 C.3   450  564450      0.0186
     13  C20       43.5400   14.9400   82.3100 C.ar  450  564450     -0.0268
     14  C23       42.2110   13.2960   79.5200 C.3   450  564450      0.0044
     15  C24       43.1640   11.5340   81.0310 C.3   450  564450      0.0044
     16  C25       44.8570   16.8250   81.3310 C.3   450  564450      0.0044
     17  C26       46.0300   15.0210   82.6060 C.3   450  564450      0.0044
     18  O1        34.1880   18.1160   89.4160 O.co2 450  564450     -0.2406
     19  O2        34.3400   19.4520   87.6620 O.co2 450  564450     -0.2406
     20  C6        38.2000   14.6500   85.9490 C.ar  450  564450      0.0032
     21  C7        39.0090   14.9880   84.8700 C.ar  450  564450      0.0390
     22  C8        38.8870   16.3130   84.3900 C.ar  450  564450      0.0032
     23  C9        38.0310   17.2340   84.9560 C.ar  450  564450      0.0001
     24  C13       41.1550   14.3290   83.5980 C.ar  450  564450      0.0386
     25  C14       41.5880   13.5660   82.4990 C.ar  450  564450     -0.0014
     26  C21       43.1150   15.6960   83.4000 C.ar  450  564450     -0.0045
     27  C22       41.9660   15.3780   84.0030 C.ar  450  564450      0.0028
     28  C12       39.9170   13.9910   84.2450 C.2   450  564450      0.1955
     29  O3        39.5140   12.7970   84.3100 O.2   450  564450     -0.2866
@<TRIPOS>BOND
     1    14     9    1
     2    10    11    1
     3    10     9    1
     4    11    12    1
     5     9    15    1
     6     9     8    1
     7    16    12    1
     8    12    13    1
     9    12    17    1
    10     8    13   ar
    11     8    25   ar
    12    13    26   ar
    13    25    24   ar
    14    26    27   ar
    15    24    27   ar
    16    24    28    1
    17    28    29    2
    18    28    21    1
    19    22    21   ar
    20    22    23   ar
    21    21    20   ar
    22    23     6   ar
    23    20     5   ar
    24     6     5   ar
    25     6     7   ar
    26     5     4   ar
    27     7     2   ar
    28    19     1   ar
    29     4     3   ar
    30     2     3   ar
    31     2     1    1
    32     1    18   ar
