@<TRIPOS>MOLECULE
1fcz_156_A_1.pdb
 27 29 0 0 0
SMALL
GASTEIGER

@<TRIPOS>ATOM
      1  C1        34.7480   18.1560   88.4120 C.2   450  156450      0.3878
      2  C2        35.7910   17.5340   87.6320 C.ar  450  156450      0.0798
      3  C3        36.7020   18.0550   86.7590 C.ar  450  156450      0.0066
      4  C4        37.6590   17.3780   86.0560 C.ar  450  156450      0.0002
      5  C5        37.7900   16.0100   86.2830 C.ar  450  156450      0.0001
      6  C8        38.6810   15.1990   85.5140 C.2   450  156450      0.0033
      7  C9        38.9030   13.9020   85.5560 C.2   450  156450      0.0420
      8  C6        36.9940   15.4510   87.2620 C.ar  450  156450      0.0002
      9  C7        36.0880   16.1610   88.0620 C.ar  450  156450      0.0066
     10  C10       39.8460   13.1440   84.6980 C.2   450  156450      0.1956
     11  C11       41.0460   13.7290   84.0750 C.ar  450  156450      0.0386
     12  C12       41.5000   13.2540   82.8490 C.ar  450  156450     -0.0014
     13  C13       42.6370   13.7640   82.1980 C.ar  450  156450     -0.0267
     14  C14       43.0510   13.1680   80.8440 C.3   450  156450      0.0186
     15  C15       44.5010   13.6010   80.5050 C.3   450  156450      0.0044
     16  C16       44.7060   15.0800   80.7250 C.3   450  156450      0.0044
     17  C17       44.5920   15.4510   82.2180 C.3   450  156450      0.0186
     18  C18       43.3480   14.8110   82.8230 C.ar  450  156450     -0.0268
     19  C19       42.8760   15.2680   84.0460 C.ar  450  156450     -0.0045
     20  C20       41.7720   14.7590   84.6630 C.ar  450  156450      0.0028
     21  C21       42.0810   13.6990   79.8090 C.3   450  156450      0.0044
     22  C22       43.0100   11.6560   80.8730 C.3   450  156450      0.0044
     23  C23       44.4830   16.9790   82.2380 C.3   450  156450      0.0044
     24  C24       45.8510   15.0530   82.9860 C.3   450  156450      0.0044
     25  O1        34.4060   19.3090   87.8470 O.co2 450  156450     -0.2406
     26  O2        34.2180   17.7630   89.4120 O.co2 450  156450     -0.2406
     27  O3        39.5140   11.9680   84.4180 O.2   450  156450     -0.2866
@<TRIPOS>BOND
     1    21    14    1
     2    15    16    1
     3    15    14    1
     4    16    17    1
     5    14    22    1
     6    14    13    1
     7    13    18   ar
     8    13    12   ar
     9    17    23    1
    10    17    18    1
    11    17    24    1
    12    18    19   ar
    13    12    11   ar
    14    19    20   ar
    15    11    20   ar
    16    11    10    1
    17    27    10    2
    18    10     7    1
    19     6     7    2
    20     6     5    1
    21     4     5   ar
    22     4     3   ar
    23     5     8   ar
    24     3     2   ar
    25     8     9   ar
    26     2     9   ar
    27     2     1    1
    28    25     1   ar
    29     1    26   ar
