@<TRIPOS>MOLECULE
1fd0_254_A_1.pdb
 30 33 0 0 0
SMALL
GASTEIGER

@<TRIPOS>ATOM
      1  C1        34.5290   18.2070   88.4740 C.2   450  254450      0.3878
      2  C2        35.5050   17.2840   87.8740 C.ar  450  254450      0.0798
      3  C3        35.5970   15.9690   88.4400 C.ar  450  254450      0.0066
      4  C4        36.5130   15.0790   87.8920 C.ar  450  254450      0.0002
      5  C5        37.3450   15.4230   86.8080 C.ar  450  254450      0.0001
      6  C10       37.2450   16.7270   86.2600 C.ar  450  254450      0.0002
      7  C11       36.3270   17.6400   86.8010 C.ar  450  254450      0.0066
      8  C15       42.8340   14.1030   82.0500 C.ar  450  254450     -0.0267
      9  C16       43.2380   13.3710   80.7710 C.3   450  254450      0.0186
     10  C17       44.6680   13.7450   80.3470 C.3   450  254450      0.0044
     11  C18       44.9870   15.1890   80.4830 C.3   450  254450      0.0044
     12  C19       44.8750   15.6980   81.9340 C.3   450  254450      0.0186
     13  C20       43.6020   15.1700   82.5710 C.ar  450  254450     -0.0268
     14  C23       42.2530   13.7000   79.6710 C.3   450  254450      0.0044
     15  C24       43.2180   11.8570   81.0480 C.3   450  254450      0.0044
     16  C25       44.7610   17.2230   81.7530 C.3   450  254450      0.0044
     17  C26       46.0920   15.3970   82.8230 C.3   450  254450      0.0044
     18  O1        33.9460   17.8990   89.4960 O.co2 450  254450     -0.2406
     19  O2        34.3440   19.3010   87.8490 O.co2 450  254450     -0.2406
     20  C6        38.2610   14.4850   86.2710 C.ar  450  254450      0.0016
     21  C7        39.0980   14.7970   85.2080 C.ar  450  254450      0.0210
     22  C8        38.9400   16.1130   84.7060 C.ar  450  254450      0.0016
     23  C9        38.0800   17.0570   85.1760 C.ar  450  254450      0.0001
     24  C13       41.3030   14.3980   83.9430 C.ar  450  254450      0.0206
     25  C14       41.6950   13.7340   82.7510 C.ar  450  254450     -0.0030
     26  C21       43.1920   15.8040   83.7470 C.ar  450  254450     -0.0045
     27  C22       42.0870   15.4270   84.4090 C.ar  450  254450      0.0013
     28  C12       40.0980   13.8980   84.5460 C.2   450  254450      0.1240
     29  N1        39.9290   12.5750   84.4770 N.2   450  254450     -0.0294
     30  O3        38.8160   12.0060   85.0150 O.2   450  254450     -0.1432
@<TRIPOS>BOND
     1    14     9    1
     2    10    11    1
     3    10     9    1
     4    11    12    1
     5     9    15    1
     6     9     8    1
     7    16    12    1
     8    12    13    1
     9    12    17    1
    10     8    13   ar
    11     8    25   ar
    12    13    26   ar
    13    25    24   ar
    14    26    27   ar
    15    24    27   ar
    16    24    28    1
    17    29    28    2
    18    29    30    1
    19    28    21    1
    20    22    23   ar
    21    22    21   ar
    22    23     6   ar
    23    21    20   ar
    24     6     7   ar
    25     6     5   ar
    26    20     5   ar
    27     7     2   ar
    28     5     4   ar
    29    19     1   ar
    30     2     3   ar
    31     2     1    1
    32     4     3   ar
    33     1    18   ar
