@<TRIPOS>MOLECULE
1fd7_AI1_D_1.pdb
 28 30 0 0 0
SMALL
GASTEIGER

@<TRIPOS>ATOM
      1  C1       -12.9710    9.7470    4.2680 C.3   104  AI1104      0.3218
      2  O1       -14.1080    8.8690    4.4820 O.3   104  AI1104     -0.4505
      3  C2       -12.0860    9.5260    3.0070 C.3   104  AI1104      0.2542
      4  O2       -12.8610    9.3430    1.8140 O.3   104  AI1104     -0.2135
      5  C3       -11.4180    8.1240    3.1480 C.3   104  AI1104      0.2211
      6  O3       -10.4600    8.1150    2.0930 O.3   104  AI1104     -0.2173
      7  C4       -10.5950    8.1520    4.4700 C.3   104  AI1104      0.2145
      8  O4        -9.4480    8.9710    4.3330 O.3   104  AI1104     -0.2176
      9  C5       -11.4830    8.4770    5.6770 C.3   104  AI1104      0.1846
     10  O5       -12.1790    9.7350    5.4680 O.3   104  AI1104     -0.3157
     11  C6       -10.6190    8.6010    6.9700 C.3   104  AI1104      0.2142
     12  O6       -11.4150    8.6940    8.1190 O.3   104  AI1104     -0.2176
     13  C1'      -15.0200    9.1870    5.5610 C.ar  104  AI1104      0.1415
     14  C2'      -14.8370   10.2530    6.4510 C.ar  104  AI1104      0.0370
     15  C3'      -15.8140   10.4480    7.4500 C.ar  104  AI1104      0.0033
     16  C4'      -16.9280    9.5440    7.4990 C.ar  104  AI1104      0.0048
     17  C5'      -17.1210    8.4620    6.5990 C.ar  104  AI1104      0.0581
     18  C6'      -16.1040    8.3160    5.6230 C.ar  104  AI1104      0.0416
     19  C7'      -18.2020    7.5270    6.5850 C.2   104  AI1104      0.2652
     20  O1'      -18.5250    6.9610    5.4550 O.2   104  AI1104     -0.2684
     21  N1'      -18.8720    7.2320    7.6080 N.am  104  AI1104     -0.1968
     22  C1B      -20.0120    6.3050    7.7700 C.3   104  AI1104      0.1418
     23  C2B      -20.2700    6.0290    9.2390 C.ar  104  AI1104     -0.0006
     24  C3B      -20.1420    4.7790    9.8080 C.ar  104  AI1104     -0.0026
     25  C4B      -20.3590    4.5470   11.1680 C.ar  104  AI1104     -0.0003
     26  C5B      -20.7340    5.6240   11.9500 C.ar  104  AI1104     -0.0000
     27  C6B      -20.8890    6.9010   11.3940 C.ar  104  AI1104     -0.0003
     28  C7B      -20.6460    7.0860   10.0540 C.ar  104  AI1104     -0.0026
@<TRIPOS>BOND
     1     4     3    1
     2     6     5    1
     3     3     5    1
     4     3     1    1
     5     5     7    1
     6     1     2    1
     7     1    10    1
     8     8     7    1
     9     7     9    1
    10     2    13    1
    11    20    19    2
    12    10     9    1
    13    13    18   ar
    14    13    14   ar
    15    18    17   ar
    16     9    11    1
    17    14    15   ar
    18    19    17    1
    19    19    21   am
    20    17    16   ar
    21    11    12    1
    22    15    16   ar
    23    21    22    1
    24    22    23    1
    25    23    24   ar
    26    23    28   ar
    27    24    25   ar
    28    28    27   ar
    29    25    26   ar
    30    27    26   ar
