@<TRIPOS>MOLECULE
1fdh_HEM_A_1.pdb
 43 50 0 0 0
SMALL
GASTEIGER

@<TRIPOS>ATOM
      1  CHA        8.8630    8.7520  -18.4170 C.2   142  HEM142      0.0000
      2  CHB       10.3620   10.9460  -14.3890 C.2   142  HEM142      0.0000
      3  CHC        8.4820    7.3740  -11.7430 C.2   142  HEM142      0.0000
      4  CHD        6.9820    5.1800  -15.7730 C.2   142  HEM142      0.0000
      5  C1A        9.4340    9.6590  -17.5550 C.2   142  HEM142      0.0000
      6  C2A       10.1090   10.8840  -17.9500 C.2   142  HEM142      0.0000
      7  C3A       10.5240   11.4900  -16.8370 C.2   142  HEM142      0.0000
      8  C4A       10.1190   10.6620  -15.7130 C.2   142  HEM142      0.0000
      9  CMA       11.2770   12.8020  -16.7760 C.3   142  HEM142      0.0000
     10  CAA       10.3150   11.3940  -19.3610 C.3   142  HEM142      0.0000
     11  CBA        9.4450   12.5980  -19.5440 C.3   142  HEM142      0.0000
     12  CGA        9.5890   13.0650  -20.9940 C.2   142  HEM142      0.0000
     13  O1A        9.5750   12.2510  -21.9060 O.co2 142  HEM142      0.0000
     14  O2A        9.7160   14.2070  -21.2470 O.co2 142  HEM142      0.0000
     15  C1B        9.9820   10.1680  -13.3200 C.ar  142  HEM142      0.0000
     16  C2B       10.2430   10.4750  -11.9230 C.ar  142  HEM142      0.0000
     17  C3B        9.7230    9.4880  -11.1920 C.ar  142  HEM142      0.0000
     18  C4B        9.1230    8.5350  -12.1110 C.ar  142  HEM142      0.0000
     19  CMB       10.9690   11.6880  -11.3790 C.3   142  HEM142      0.0000
     20  CAB        9.7620    9.3950   -9.6810 C.2   142  HEM142      0.0000
     21  CBB       10.9150    9.1750   -9.0500 C.2   142  HEM142      0.0000
     22  C1C        7.9110    6.4670  -12.6070 C.2   142  HEM142      0.0000
     23  C2C        7.2350    5.2420  -12.2110 C.2   142  HEM142      0.0000
     24  C3C        6.8210    4.6360  -13.3240 C.2   142  HEM142      0.0000
     25  C4C        7.2250    5.4640  -14.4480 C.2   142  HEM142      0.0000
     26  CMC        7.0290    4.7320  -10.8000 C.3   142  HEM142      0.0000
     27  CAC        6.0670    3.3240  -13.3860 C.2   142  HEM142      0.0000
     28  CBC        6.7220    2.1660  -13.2990 C.2   142  HEM142      0.0000
     29  C1D        7.3620    5.9580  -16.8420 C.ar  142  HEM142      0.0000
     30  C2D        7.1010    5.6510  -18.2380 C.ar  142  HEM142      0.0000
     31  C3D        7.6210    6.6380  -18.9690 C.ar  142  HEM142      0.0000
     32  C4D        8.2220    7.5910  -18.0500 C.ar  142  HEM142      0.0000
     33  CMD        6.3750    4.4380  -18.7820 C.3   142  HEM142      0.0000
     34  CAD        7.5820    6.7310  -20.4800 C.3   142  HEM142      0.0000
     35  CBD        8.9920    6.8480  -20.9680 C.3   142  HEM142      0.0000
     36  CGD        8.9980    6.5290  -22.4650 C.2   142  HEM142      0.0000
     37  O1D        9.6930    5.6830  -22.8950 O.co2 142  HEM142      0.0000
     38  O2D        8.2760    7.1530  -23.2290 O.co2 142  HEM142      0.0000
     39  NA         9.4520    9.5450  -16.1780 N.2   142  HEM142      0.0000
     40  NB         9.2940    8.9730  -13.4090 N.ar  142  HEM142      0.0000
     41  NC         7.8920    6.5810  -13.9830 N.2   142  HEM142      0.0000
     42  ND         8.0500    7.1530  -16.7520 N.ar  142  HEM142      0.0000
     43 FE          8.1330    8.3210  -15.0140 Fe    142  HEM142      0.0000
@<TRIPOS>BOND
     1    38    36   ar
     2    37    36   ar
     3    36    35    1
     4    13    12   ar
     5    14    12   ar
     6    12    11    1
     7    35    34    1
     8    34    31    1
     9    11    10    1
    10    10     6    1
    11    31    30   ar
    12    31    32   ar
    13    33    30    1
    14     1    32    2
    15     1     5    1
    16    30    29   ar
    17    32    42   ar
    18     6     5    1
    19     6     7    2
    20     5    39    2
    21    29    42   ar
    22    29     4    2
    23     7     9    1
    24     7     8    1
    25    42    43    1
    26    39     8    1
    27    39    43    1
    28     4    25    1
    29     8     2    2
    30    43    41    1
    31    43    40    1
    32    25    41    2
    33    25    24    1
    34     2    15    1
    35    41    22    1
    36    40    15   ar
    37    40    18   ar
    38    27    24    1
    39    27    28    2
    40    24    23    2
    41    15    16   ar
    42    22    23    1
    43    22     3    2
    44    23    26    1
    45    18     3    1
    46    18    17   ar
    47    16    19    1
    48    16    17   ar
    49    17    20    1
    50    20    21    2
