@<TRIPOS>MOLECULE
1fdi_MGD_A_1.pdb
 47 52 0 0 0
SMALL
GASTEIGER

@<TRIPOS>ATOM
      1  PB        78.9840   31.6050   21.3260 P.3   801  MGD801      0.2189
      2  O1B       77.8400   32.5060   21.2050 O.2   801  MGD801     -0.5170
      3  O2B       78.9890   30.5720   22.4030 O.3   801  MGD801     -0.4371
      4  O3B       80.2030   32.5850   21.4970 O.3   801  MGD801     -0.2703
      5  O3A       81.1810   34.8210   21.6220 O.3   801  MGD801     -0.3109
      6  PA        80.5170   33.8190   20.5650 P.3   801  MGD801      0.2189
      7  O1A       81.4440   33.4440   19.4600 O.2   801  MGD801     -0.5170
      8  O2A       79.1850   34.2950   20.1980 O.3   801  MGD801     -0.4371
      9  O5'       79.3230   30.9690   19.8890 O.3   801  MGD801     -0.3112
     10  C5'       79.8170   29.6500   19.9210 C.3   801  MGD801      0.1813
     11  C4'       79.8200   28.8680   18.6420 C.3   801  MGD801      0.1799
     12  O4'       80.3900   27.6350   18.9810 O.3   801  MGD801     -0.3326
     13  C3'       78.4630   28.5380   18.0040 C.3   801  MGD801      0.2158
     14  O3'       78.6180   28.5890   16.5820 O.3   801  MGD801     -0.2175
     15  C2'       78.2110   27.0920   18.4370 C.3   801  MGD801      0.2310
     16  O2'       77.3660   26.3150   17.5390 O.3   801  MGD801     -0.2158
     17  C1'       79.6540   26.6300   18.3360 C.3   801  MGD801      0.2293
     18  N9        79.9160   25.3380   18.9800 N.pl3 801  MGD801     -0.2354
     19  C8        79.3950   24.8230   20.1540 C.3   801  MGD801      0.2246
     20  N7        80.0190   23.7510   20.5870 N.2   801  MGD801     -0.2322
     21  C5        81.0010   23.5480   19.6230 C.2   801  MGD801      0.2182
     22  C6        81.9710   22.5770   19.5350 C.1   801  MGD801      0.2372
     23  O6        82.0980   21.7410   20.4070 O.2   801  MGD801     -0.2069
     24  N1        82.7860   22.6550   18.4310 N.2   801  MGD801     -0.2485
     25  C2        82.6900   23.6080   17.4550 C.1   801  MGD801      0.2531
     26  N2        83.4050   23.4330   16.3400 N.pl3 801  MGD801     -0.0226
     27  N3        81.7690   24.5750   17.5470 N.2   801  MGD801     -0.3074
     28  C4        80.9570   24.4940   18.6320 C.2   801  MGD801      0.2300
     29  C10       80.3400   35.3400   22.6540 C.3   801  MGD801      0.1837
     30  C11       80.6570   36.7820   22.9920 C.3   801  MGD801      0.1762
     31  O11       79.5490   37.6230   22.8160 O.3   801  MGD801     -0.3271
     32  C12       81.0550   36.9240   24.4430 C.2   801  MGD801      0.0473
     33  S12       81.5930   35.5310   25.3870 S.3   801  MGD801     -0.0526
     34  C13       80.9380   38.1510   25.0880 C.2   801  MGD801      0.0449
     35  S13       81.3620   38.2350   26.7970 S.3   801  MGD801     -0.0530
     36  C14       80.4060   39.3640   24.3510 C.3   801  MGD801      0.1850
     37  N15       79.2450   39.8250   25.0800 N.2   801  MGD801     -0.2411
     38  C16       78.5530   40.8050   24.4270 C.2   801  MGD801      0.2467
     39  C17       77.8320   41.7870   25.1790 C.1   801  MGD801      0.2441
     40  O17       77.7850   41.7570   26.4180 O.2   801  MGD801     -0.2063
     41  N18       77.1310   42.7320   24.4300 N.2   801  MGD801     -0.2474
     42  C19       77.1050   42.7380   23.0530 C.1   801  MGD801      0.2608
     43  N19       76.2470   43.5280   22.3980 N.pl3 801  MGD801     -0.0220
     44  N20       77.7990   41.8280   22.3870 N.2   801  MGD801     -0.2682
     45  C21       78.5160   40.8590   23.0070 C.1   801  MGD801      0.1293
     46  N22       79.1690   39.9370   22.2350 N.2   801  MGD801     -0.1763
     47  C23       79.9960   38.9680   22.9460 C.3   801  MGD801      0.2573
@<TRIPOS>BOND
     1    26    25    1
     2    14    13    1
     3    25    27    2
     4    25    24    2
     5    16    15    1
     6    27    28    2
     7    13    15    1
     8    13    11    1
     9    17    15    1
    10    17    18    1
    11    17    12    1
    12    24    22    2
    13    28    18    1
    14    28    21    1
    15    11    12    1
    16    11    10    1
    17    18    19    1
    18     7     6    2
    19    22    21    1
    20    22    23    2
    21    21    20    2
    22     9    10    1
    23     9     1    1
    24    19    20    1
    25     8     6    1
    26     6     4    1
    27     6     5    1
    28     2     1    2
    29     1     4    1
    30     1     3    1
    31     5    29    1
    32    46    47    1
    33    46    45    2
    34    44    45    2
    35    44    42    2
    36    43    42    1
    37    29    30    1
    38    31    47    1
    39    31    30    1
    40    47    36    1
    41    30    32    1
    42    45    38    1
    43    42    41    2
    44    36    37    1
    45    36    34    1
    46    38    37    2
    47    38    39    1
    48    41    39    2
    49    32    34    2
    50    32    33    1
    51    34    35    1
    52    39    40    2
