@<TRIPOS>MOLECULE
1fdj_G3P_B_1.pdb
 10 9 0 0 0
SMALL
GASTEIGER

@<TRIPOS>ATOM
      1  O1       117.5500   15.9990    0.3070 O.2   6003  G3P6003    -0.2854
      2  C1       118.1480   16.8960   -0.2440 C.2   6003  G3P6003     0.2426
      3  C2       117.6800   18.3570   -0.3410 C.3   6003  G3P6003     0.2459
      4  O2       118.0760   18.9010   -1.6350 O.3   6003  G3P6003    -0.2119
      5  C3       118.2360   19.2140    0.7280 C.3   6003  G3P6003     0.1946
      6  O1P      117.1430   19.6950    1.4820 O.3   6003  G3P6003    -0.2670
      7  O4P      116.0670   20.6690    3.6230 O.3   6003  G3P6003    -0.1145
      8  O2P      118.6550   20.5310    3.3680 O.2   6003  G3P6003    -0.2224
      9  O3P      117.2060   18.3710    3.7050 O.3   6003  G3P6003    -0.1145
     10  P        117.2620   19.8230    3.0450 P.3   6003  G3P6003     0.5327
@<TRIPOS>BOND
     1     4     3    1
     2     3     2    1
     3     3     5    1
     4     2     1    2
     5     5     6    1
     6     6    10    1
     7    10     8    2
     8    10     7    1
     9    10     9    1
