@<TRIPOS>MOLECULE
1fdj_2FP_A_1.pdb
 20 19 0 0 0
SMALL
GASTEIGER

@<TRIPOS>ATOM
      1  P1       162.6990    2.5320  -25.0790 P.3   5001  2FP5001     0.5330
      2  O1       162.1150    3.8090  -24.3090 O.3   5001  2FP5001    -0.2621
      3  C1       161.7030    3.7430  -22.9400 C.3   5001  2FP5001     0.2203
      4  C2       160.5690    2.7550  -22.6730 C.2   5001  2FP5001     0.2137
      5  O2       159.7590    2.4630  -23.5860 O.2   5001  2FP5001    -0.2906
      6  C3       160.3710    2.2170  -21.2180 C.3   5001  2FP5001     0.2439
      7  O3       159.5650    1.0310  -21.3400 O.3   5001  2FP5001    -0.2122
      8  C4       161.6730    1.9190  -20.3640 C.3   5001  2FP5001     0.2220
      9  O4       162.6000    3.0120  -20.2770 O.3   5001  2FP5001    -0.2171
     10  C5       162.5540    0.7200  -20.8290 C.3   5001  2FP5001     0.2151
     11  O5       162.0090    0.0080  -21.9440 O.3   5001  2FP5001    -0.2176
     12  C6       162.8070   -0.2160  -19.6410 C.3   5001  2FP5001     0.1892
     13  O6       164.1190   -0.0340  -19.1100 O.3   5001  2FP5001    -0.2674
     14  O11      164.2120    2.6970  -25.3360 O.3   5001  2FP5001    -0.1145
     15  O12      162.6410    1.2580  -24.2460 O.3   5001  2FP5001    -0.1145
     16  O13      161.9810    2.2890  -26.4200 O.2   5001  2FP5001    -0.2224
     17  P6       164.3650    0.6000  -17.6560 P.3   5001  2FP5001     0.5327
     18  O61      164.3240    2.1670  -17.7670 O.2   5001  2FP5001    -0.2224
     19  O62      163.2460    0.2460  -16.6420 O.3   5001  2FP5001    -0.1145
     20  O63      165.7010    0.1180  -17.0100 O.3   5001  2FP5001    -0.1145
@<TRIPOS>BOND
     1    16     1    2
     2    14     1    1
     3     1     2    1
     4     1    15    1
     5     2     3    1
     6     5     4    2
     7     3     4    1
     8     4     6    1
     9    11    10    1
    10     7     6    1
    11     6     8    1
    12    10     8    1
    13    10    12    1
    14     8     9    1
    15    12    13    1
    16    13    17    1
    17    18    17    2
    18    17    20    1
    19    17    19    1
