@<TRIPOS>MOLECULE
1fdk_GLE_A_1.pdb
 26 25 0 0 0
SMALL
GASTEIGER

@<TRIPOS>ATOM
      1  C1        33.7570    3.2820   66.2860 C.3   150  GLE150      0.1745
      2  O1        34.4000    2.3000   67.1280 O.3   150  GLE150     -0.3511
      3  C2        32.2780    3.3060   66.6670 C.3   150  GLE150      0.1806
      4  O2        31.6450    4.6220   66.9060 O.3   150  GLE150     -0.3114
      5  C3        31.6990    1.8760   66.9920 C.3   150  GLE150      0.1749
      6  O3        30.4800    1.3530   66.3750 O.3   150  GLE150     -0.3430
      7  C31       29.7320    0.8230   67.4500 C.3   150  GLE150      0.2459
      8  C32       29.9480   -0.7330   67.6510 C.3   150  GLE150      0.4248
      9  F31       30.9590   -1.3210   66.6720 F     150  GLE150     -0.1674
     10  F32       28.6590   -1.4770   67.4340 F     150  GLE150     -0.1674
     11  F33       30.4160   -1.0610   69.0660 F     150  GLE150     -0.1674
     12  P2        30.4840    5.0710   65.8720 P.3   150  GLE150      0.2141
     13  O21       29.7050    6.3570   66.5720 O.3   150  GLE150     -0.4373
     14  O22       31.1600    5.5930   64.6540 O.2   150  GLE150     -0.5172
     15  C2P       28.1620    4.5360   65.2630 C.3   150  GLE150      0.1815
     16  O23       29.4280    3.9300   65.4680 O.3   150  GLE150     -0.3114
     17  C11       35.8300    2.2190   66.9310 C.3   150  GLE150      0.1423
     18  C12       36.1580    0.7520   66.7120 C.3   150  GLE150      0.0321
     19  C13       37.6960    0.5130   66.6850 C.3   150  GLE150      0.0026
     20  C14       38.1530   -0.1040   65.3360 C.3   150  GLE150      0.0001
     21  C15       39.0190    0.9260   64.4550 C.3   150  GLE150      0.0000
     22  C16       38.3900    1.1520   63.0040 C.3   150  GLE150      0.0000
     23  C17       39.1980    0.3950   61.9270 C.3   150  GLE150      0.0000
     24  C18       40.1400    1.3640   61.1890 C.3   150  GLE150      0.0000
     25  C19       41.6340    1.0770   61.5090 C.3   150  GLE150      0.0000
     26  C20       42.4310    0.6530   60.2420 C.3   150  GLE150      0.0000
@<TRIPOS>BOND
     1    26    25    1
     2    24    25    1
     3    24    23    1
     4    23    22    1
     5    22    21    1
     6    21    20    1
     7    14    12    2
     8    15    16    1
     9    20    19    1
    10    16    12    1
    11    12    13    1
    12    12     4    1
    13     1     3    1
    14     1     2    1
    15     6     5    1
    16     6     7    1
    17     3     4    1
    18     3     5    1
    19     9     8    1
    20    19    18    1
    21    18    17    1
    22    17     2    1
    23    10     8    1
    24     7     8    1
    25     8    11    1
