@<TRIPOS>MOLECULE
1fdo_MGD_A_1.pdb
 47 52 0 0 0
SMALL
GASTEIGER

@<TRIPOS>ATOM
      1  PB        79.0570   31.4830   21.1330 P.3   801  MGD801      0.2189
      2  O1B       77.9210   32.3010   20.7180 O.2   801  MGD801     -0.5170
      3  O2B       78.8850   30.5320   22.2690 O.3   801  MGD801     -0.4371
      4  O3B       80.1670   32.5860   21.3960 O.3   801  MGD801     -0.2703
      5  O3A       80.7940   35.0570   21.5010 O.3   801  MGD801     -0.3109
      6  PA        80.4860   33.8570   20.4830 P.3   801  MGD801      0.2189
      7  O1A       81.7150   33.6110   19.6860 O.2   801  MGD801     -0.5170
      8  O2A       79.2800   34.1520   19.7320 O.3   801  MGD801     -0.4371
      9  O5'       79.6480   30.6980   19.8620 O.3   801  MGD801     -0.3112
     10  C5'       79.9400   29.3020   19.9540 C.3   801  MGD801      0.1813
     11  C4'       79.9790   28.7270   18.5480 C.3   801  MGD801      0.1799
     12  O4'       80.6300   27.4670   18.5760 O.3   801  MGD801     -0.3326
     13  C3'       78.5740   28.4950   17.9690 C.3   801  MGD801      0.2158
     14  O3'       78.5800   28.5930   16.5370 O.3   801  MGD801     -0.2175
     15  C2'       78.3170   27.0390   18.3940 C.3   801  MGD801      0.2310
     16  O2'       77.3450   26.4420   17.5150 O.3   801  MGD801     -0.2158
     17  C1'       79.7140   26.4550   18.1890 C.3   801  MGD801      0.2293
     18  N9        80.0180   25.2530   18.9600 N.pl3 801  MGD801     -0.2354
     19  C8        79.5110   24.7290   20.1420 C.3   801  MGD801      0.2246
     20  N7        80.1190   23.6280   20.5550 N.2   801  MGD801     -0.2322
     21  C5        81.0780   23.4160   19.5780 C.2   801  MGD801      0.2182
     22  C6        82.0330   22.4050   19.4300 C.1   801  MGD801      0.2372
     23  O6        82.1390   21.4180   20.1510 O.2   801  MGD801     -0.2069
     24  N1        82.8030   22.5580   18.3070 N.2   801  MGD801     -0.2485
     25  C2        82.6930   23.5710   17.4000 C.1   801  MGD801      0.2531
     26  N2        83.5110   23.5230   16.3710 N.pl3 801  MGD801     -0.0226
     27  N3        81.7970   24.5370   17.5190 N.2   801  MGD801     -0.3074
     28  C4        81.0240   24.4060   18.6120 C.2   801  MGD801      0.2300
     29  C10       80.1880   35.3560   22.7330 C.3   801  MGD801      0.1837
     30  C11       80.6850   36.7880   23.0010 C.3   801  MGD801      0.1762
     31  O11       79.7200   37.7730   22.7180 O.3   801  MGD801     -0.3271
     32  C12       81.1360   36.9890   24.4270 C.2   801  MGD801      0.0473
     33  S12       81.5660   35.6230   25.4450 S.3   801  MGD801     -0.0526
     34  C13       81.1160   38.2560   24.9970 C.2   801  MGD801      0.0449
     35  S13       81.7290   38.4070   26.6520 S.3   801  MGD801     -0.0530
     36  C14       80.6170   39.4600   24.2190 C.3   801  MGD801      0.1850
     37  N15       79.4630   39.9830   24.9170 N.2   801  MGD801     -0.2411
     38  C16       78.7200   40.8820   24.2010 C.2   801  MGD801      0.2467
     39  C17       77.9320   41.8270   24.8820 C.1   801  MGD801      0.2441
     40  O17       77.9360   41.8980   26.1050 O.2   801  MGD801     -0.2063
     41  N18       77.1800   42.6910   24.1110 N.2   801  MGD801     -0.2474
     42  C19       77.1750   42.6650   22.7420 C.1   801  MGD801      0.2608
     43  N19       76.3350   43.4700   22.0810 N.pl3 801  MGD801     -0.0220
     44  N20       77.9310   41.7770   22.1100 N.2   801  MGD801     -0.2682
     45  C21       78.7020   40.8740   22.7790 C.1   801  MGD801      0.1293
     46  N22       79.4450   39.9890   22.0500 N.2   801  MGD801     -0.1763
     47  C23       80.2820   39.0580   22.7980 C.3   801  MGD801      0.2573
@<TRIPOS>BOND
     1    26    25    1
     2    14    13    1
     3    25    27    2
     4    25    24    2
     5    16    15    1
     6    27    28    2
     7    13    15    1
     8    13    11    1
     9    17    15    1
    10    17    12    1
    11    17    18    1
    12    24    22    2
    13    11    12    1
    14    11    10    1
    15    28    18    1
    16    28    21    1
    17    18    19    1
    18    22    21    1
    19    22    23    2
    20    21    20    2
    21     7     6    2
    22     8     6    1
    23     9    10    1
    24     9     1    1
    25    19    20    1
    26     6     4    1
    27     6     5    1
    28     2     1    2
    29     1     4    1
    30     1     3    1
    31     5    29    1
    32    46    45    2
    33    46    47    1
    34    43    42    1
    35    44    42    2
    36    44    45    2
    37    31    47    1
    38    31    30    1
    39    29    30    1
    40    42    41    2
    41    45    38    1
    42    47    36    1
    43    30    32    1
    44    41    39    2
    45    38    39    1
    46    38    37    2
    47    36    37    1
    48    36    34    1
    49    32    34    2
    50    32    33    1
    51    39    40    2
    52    34    35    1
