@<TRIPOS>MOLECULE
1fdq_HXA_A_1.pdb
 24 23 0 0 0
SMALL
GASTEIGER

@<TRIPOS>ATOM
      1  C1         7.0540   13.4820   -0.1610 C.2   133  HXA133      0.3652
      2  O1         8.2420   13.4820   -0.4650 O.co2 133  HXA133     -0.2456
      3  O2         6.4390   14.5480    0.4130 O.co2 133  HXA133     -0.2456
      4  C2         6.0960   12.3080   -0.3900 C.3   133  HXA133      0.1187
      5  C3         6.7060   10.9930    0.1580 C.3   133  HXA133      0.0375
      6  C4         7.0460    9.9960   -0.9350 C.2   133  HXA133     -0.0298
      7  C5         6.5630    8.7570   -1.0950 C.2   133  HXA133     -0.0260
      8  C6         5.5490    8.0660   -0.2000 C.3   133  HXA133      0.0513
      9  C7         5.2110    6.6420   -0.6090 C.2   133  HXA133     -0.0257
     10  C8         4.2290    5.8940   -0.0870 C.2   133  HXA133     -0.0257
     11  C9         3.2340    6.2990    0.9860 C.3   133  HXA133      0.0513
     12  C10        1.9680    6.8880    0.3890 C.2   133  HXA133     -0.0257
     13  C11        1.1480    7.7930    0.9360 C.2   133  HXA133     -0.0257
     14  C12        1.2540    8.4760    2.2870 C.3   133  HXA133      0.0513
     15  C13        1.2220    9.9850    2.1460 C.2   133  HXA133     -0.0257
     16  C14        2.2310   10.8480    2.3310 C.2   133  HXA133     -0.0257
     17  C15        3.6570   10.5270    2.7260 C.3   133  HXA133      0.0513
     18  C16        3.8380   10.3100    4.2170 C.2   133  HXA133     -0.0257
     19  C17        4.9550    9.8920    4.8260 C.2   133  HXA133     -0.0257
     20  C18        6.2810    9.5280    4.1870 C.3   133  HXA133      0.0513
     21  C19        6.3280    8.0740    3.7530 C.2   133  HXA133     -0.0260
     22  C20        7.3790    7.2460    3.7920 C.2   133  HXA133     -0.0304
     23  C21        8.7660    7.5750    4.3090 C.3   133  HXA133      0.0257
     24  C22        9.6350    6.3170    4.4370 C.3   133  HXA133      0.0050
@<TRIPOS>BOND
     1     7     6    2
     2     7     8    1
     3     6     5    1
     4     9     8    1
     5     9    10    2
     6     2     1   ar
     7     4     1    1
     8     4     5    1
     9     1     3   ar
    10    10    11    1
    11    12    13    2
    12    12    11    1
    13    13    14    1
    14    15    14    1
    15    15    16    2
    16    16    17    1
    17    17    18    1
    18    21    22    2
    19    21    20    1
    20    22    23    1
    21    20    19    1
    22    18    19    2
    23    23    24    1
