@<TRIPOS>MOLECULE
1fds_EST_A_1.pdb
 20 23 0 0 0
SMALL
GASTEIGER

@<TRIPOS>ATOM
      1  C1        46.3620    8.5240   41.7270 C.ar  350  EST350     -0.0013
      2  C2        47.1350    9.3980   42.4730 C.ar  350  EST350      0.0417
      3  C3        47.5220    9.0380   43.7510 C.ar  350  EST350      0.1954
      4  O3        48.2480    9.9390   44.5090 O.3   350  EST350     -0.2866
      5  C4        47.1450    7.8000   44.2840 C.ar  350  EST350      0.0375
      6  C5        46.3550    6.9050   43.5330 C.ar  350  EST350     -0.0230
      7  C6        45.8420    5.6230   44.1800 C.3   350  EST350      0.0261
      8  C7        44.9710    4.7300   43.2740 C.3   350  EST350      0.0050
      9  C8        45.2930    4.8930   41.7880 C.3   350  EST350      0.0044
     10  C9        45.1060    6.3610   41.3870 C.3   350  EST350      0.0220
     11  C10       45.9590    7.2810   42.2330 C.ar  350  EST350     -0.0263
     12  C11       45.3320    6.5310   39.8890 C.3   350  EST350      0.0044
     13  C12       44.5120    5.6120   39.0040 C.3   350  EST350      0.0028
     14  C13       44.7350    4.1640   39.3840 C.3   350  EST350      0.0282
     15  C14       44.3770    4.0000   40.8830 C.3   350  EST350      0.0028
     16  C15       44.2850    2.4920   41.0530 C.3   350  EST350      0.0027
     17  C16       43.6320    1.9810   39.7190 C.3   350  EST350      0.0329
     18  C17       43.7300    3.1830   38.7420 C.3   350  EST350      0.1519
     19  O17       43.9740    2.7690   37.3840 O.3   350  EST350     -0.2232
     20  C18       46.1680    3.6930   39.0460 C.3   350  EST350      0.0025
@<TRIPOS>BOND
     1    19    18    1
     2    18    14    1
     3    18    17    1
     4    13    14    1
     5    13    12    1
     6    20    14    1
     7    14    15    1
     8    17    16    1
     9    12    10    1
    10    15    16    1
    11    15     9    1
    12    10     9    1
    13    10    11    1
    14     1    11   ar
    15     1     2   ar
    16     9     8    1
    17    11     6   ar
    18     2     3   ar
    19     8     7    1
    20     6     7    1
    21     6     5   ar
    22     3     5   ar
    23     3     4    1
