@<TRIPOS>MOLECULE
1fdt_NAP_A_1.pdb
 48 52 0 0 0
SMALL
GASTEIGER

@<TRIPOS>ATOM
      1  PA        37.3230   -4.3930   32.3660 P.3   360  NAP360      0.2189
      2  O1A       36.7680   -5.2790   33.4350 O.3   360  NAP360     -0.4371
      3  O2A       36.6080   -4.2880   31.1010 O.2   360  NAP360     -0.5170
      4  O5B       38.8610   -4.8490   32.1830 O.3   360  NAP360     -0.3112
      5  C5B       39.5140   -5.7410   33.0970 C.3   360  NAP360      0.1813
      6  C4B       39.1950   -6.9910   32.3300 C.3   360  NAP360      0.1820
      7  O4B       40.2920   -7.7440   31.8450 O.3   360  NAP360     -0.3136
      8  C3B       38.1560   -7.9650   32.8500 C.3   360  NAP360      0.2157
      9  O3B       36.8530   -7.6050   32.3970 O.3   360  NAP360     -0.2175
     10  C2B       38.5470   -9.3560   32.3320 C.3   360  NAP360      0.2314
     11  O2B       37.3330  -10.0010   31.7420 O.3   360  NAP360     -0.2630
     12  C1B       39.7560   -9.0030   31.4340 C.3   360  NAP360      0.3158
     13  N9A       40.8160  -10.0090   31.4060 N.pl3 360  NAP360     -0.1439
     14  C8A       41.5090  -10.4690   32.4470 C.3   360  NAP360      0.3377
     15  N7A       42.3270  -11.4460   32.0160 N.2   360  NAP360     -0.2095
     16  C5A       42.1520  -11.6010   30.6950 C.2   360  NAP360      0.2526
     17  C6A       42.6860  -12.4420   29.6800 C.2   360  NAP360      0.4393
     18  N6A       43.6040  -13.3700   29.8970 N.pl3 360  NAP360      0.2180
     19  N1A       42.2530  -12.3190   28.4110 N.2   360  NAP360      0.0021
     20  C2A       41.3370  -11.4190   28.0910 C.3   360  NAP360      0.5254
     21  N3A       40.8050  -10.6110   29.0020 N.2   360  NAP360     -0.0055
     22  C4A       41.1850  -10.6760   30.3040 C.2   360  NAP360      0.3518
     23  O3        37.3430   -2.8870   32.9300 O.3   360  NAP360     -0.2703
     24  PN        37.9580   -2.1400   34.2310 P.3   360  NAP360      0.2189
     25  O1N       37.8170   -3.0380   35.4130 O.3   360  NAP360     -0.4371
     26  O2N       37.4530   -0.7670   34.3980 O.2   360  NAP360     -0.5170
     27  O5D       39.5260   -2.0700   33.7670 O.3   360  NAP360     -0.3112
     28  C5D       40.0110   -2.4480   32.4570 C.3   360  NAP360      0.1813
     29  C4D       41.0060   -1.5590   31.7830 C.3   360  NAP360      0.1799
     30  O4D       40.5880   -0.2250   32.0770 O.3   360  NAP360     -0.3327
     31  C3D       42.4950   -1.6810   32.1340 C.3   360  NAP360      0.2158
     32  O3D       43.3350   -1.8630   30.9790 O.3   360  NAP360     -0.2175
     33  C2D       42.7230   -0.4640   33.0390 C.3   360  NAP360      0.2309
     34  O2D       43.8970    0.2930   32.7550 O.3   360  NAP360     -0.2158
     35  C1D       41.6120    0.5030   32.7450 C.3   360  NAP360      0.2263
     36  N1N       41.2730    1.3550   33.8810 N.pl3 360  NAP360     -0.2787
     37  C2N       40.5040    0.8850   34.9450 C.3   360  NAP360      0.1244
     38  C3N       40.3960    1.6760   36.0820 C.2   360  NAP360      0.0544
     39  C7N       39.6850    1.1590   37.3330 C.2   360  NAP360      0.2818
     40  O7N       39.6560    1.8220   38.3760 O.2   360  NAP360     -0.2670
     41  N7N       39.1700   -0.0610   37.2120 N.am  360  NAP360     -0.0839
     42  C4N       41.0150    2.9140   36.1260 C.2   360  NAP360      0.0033
     43  C5N       41.7620    3.3730   35.0540 C.2   360  NAP360      0.0157
     44  C6N       41.9040    2.5950   33.9120 C.2   360  NAP360      0.0633
     45  P2B       37.2310  -10.9340   30.6460 P.3   360  NAP360      0.5328
     46  O1X       38.3480  -11.2150   29.8880 O.3   360  NAP360     -0.1145
     47  O2X       36.4170  -10.3320   29.8070 O.2   360  NAP360     -0.2224
     48  O3X       36.7020  -12.1910   31.0710 O.3   360  NAP360     -0.1145
@<TRIPOS>BOND
     1    20    19    1
     2    20    21    1
     3    19    17    2
     4    21    22    2
     5    17    18    1
     6    17    16    1
     7    47    45    2
     8    46    45    1
     9    22    16    1
    10    22    13    1
    11    45    48    1
    12    45    11    1
    13    16    15    2
    14    32    31    1
    15     3     1    2
    16    13    12    1
    17    13    14    1
    18    12     7    1
    19    12    10    1
    20    11    10    1
    21    29    30    1
    22    29    31    1
    23    29    28    1
    24     7     6    1
    25    15    14    1
    26    30    35    1
    27    31    33    1
    28     4     1    1
    29     4     5    1
    30     6     8    1
    31     6     5    1
    32    10     8    1
    33     1    23    1
    34     1     2    1
    35     9     8    1
    36    28    27    1
    37    35    33    1
    38    35    36    1
    39    34    33    1
    40    23    24    1
    41    27    24    1
    42    36    44    1
    43    36    37    1
    44    44    43    2
    45    24    26    2
    46    24    25    1
    47    37    38    1
    48    43    42    1
    49    38    42    2
    50    38    39    1
    51    41    39   am
    52    39    40    2
