@<TRIPOS>MOLECULE
1fdt_EST_A_1.pdb
 20 23 0 0 0
SMALL
GASTEIGER

@<TRIPOS>ATOM
      1  C1        46.5290    8.8340   41.4320 C.ar  350  EST350     -0.0013
      2  C2        47.1890    9.7030   42.2870 C.ar  350  EST350      0.0417
      3  C3        47.4170    9.3220   43.5970 C.ar  350  EST350      0.1954
      4  O3        48.0390   10.1990   44.4490 O.3   350  EST350     -0.2866
      5  C4        46.9970    8.0790   44.0620 C.ar  350  EST350      0.0375
      6  C5        46.3200    7.1910   43.2170 C.ar  350  EST350     -0.0230
      7  C6        45.7820    5.8900   43.7810 C.3   350  EST350      0.0261
      8  C7        44.8370    5.1520   42.8580 C.3   350  EST350      0.0050
      9  C8        45.2880    5.2340   41.4030 C.3   350  EST350      0.0044
     10  C9        45.2820    6.6900   40.9310 C.3   350  EST350      0.0220
     11  C10       46.0770    7.5800   41.8730 C.ar  350  EST350     -0.0263
     12  C11       45.7130    6.7800   39.4620 C.3   350  EST350      0.0044
     13  C12       44.9160    5.8690   38.5150 C.3   350  EST350      0.0028
     14  C13       44.8850    4.4170   39.0130 C.3   350  EST350      0.0282
     15  C14       44.3810    4.4050   40.4780 C.3   350  EST350      0.0028
     16  C15       44.1040    2.9390   40.7410 C.3   350  EST350      0.0027
     17  C16       43.4230    2.4510   39.4390 C.3   350  EST350      0.0329
     18  C17       43.7950    3.5310   38.3600 C.3   350  EST350      0.1519
     19  O17       44.0840    2.9300   37.0800 O.3   350  EST350     -0.2232
     20  C18       46.2510    3.7200   38.8280 C.3   350  EST350      0.0025
@<TRIPOS>BOND
     1    19    18    1
     2    18    14    1
     3    18    17    1
     4    13    14    1
     5    13    12    1
     6    20    14    1
     7    14    15    1
     8    17    16    1
     9    12    10    1
    10    15    16    1
    11    15     9    1
    12    10     9    1
    13    10    11    1
    14     9     8    1
    15     1    11   ar
    16     1     2   ar
    17    11     6   ar
    18     2     3   ar
    19     8     7    1
    20     6     7    1
    21     6     5   ar
    22     3     5   ar
    23     3     4    1
