@<TRIPOS>MOLECULE
1fdu_NAP_A_1.pdb
 48 52 0 0 0
SMALL
GASTEIGER

@<TRIPOS>ATOM
      1  PA        13.6670    6.1580   54.9570 P.3   361  NAP361      0.2189
      2  O1A       14.2760    7.5260   55.0360 O.2   361  NAP361     -0.5170
      3  O2A       12.2500    5.9710   55.0510 O.3   361  NAP361     -0.4371
      4  O5B       14.3490    5.2340   56.1170 O.3   361  NAP361     -0.3112
      5  C5B       15.1080    5.9710   57.1410 C.3   361  NAP361      0.1813
      6  C4B       14.7310    5.6040   58.5450 C.3   361  NAP361      0.1820
      7  O4B       15.9190    5.4720   59.3520 O.3   361  NAP361     -0.3136
      8  C3B       13.9650    6.7180   59.2610 C.3   361  NAP361      0.2157
      9  O3B       13.1400    6.1850   60.3300 O.3   361  NAP361     -0.2175
     10  C2B       15.1020    7.5830   59.7600 C.3   361  NAP361      0.2314
     11  O2B       14.7330    8.3790   60.8790 O.3   361  NAP361     -0.2630
     12  C1B       16.0600    6.4670   60.2950 C.3   361  NAP361      0.3158
     13  N9A       17.3020    7.0930   60.7700 N.pl3 361  NAP361     -0.1439
     14  C8A       17.9900    8.0890   60.1750 C.3   361  NAP361      0.3377
     15  N7A       18.9930    8.4790   60.9580 N.2   361  NAP361     -0.2095
     16  C5A       18.9400    7.7690   62.0650 C.2   361  NAP361      0.2526
     17  C6A       19.6920    7.7310   63.2510 C.2   361  NAP361      0.4393
     18  N6A       20.7610    8.5180   63.4220 N.pl3 361  NAP361      0.2180
     19  N1A       19.3750    6.8730   64.2450 N.2   361  NAP361      0.0021
     20  C2A       18.3170    6.0470   64.0990 C.3   361  NAP361      0.5254
     21  N3A       17.5850    6.0750   62.9830 N.2   361  NAP361     -0.0055
     22  C4A       17.8690    6.9000   61.9640 C.2   361  NAP361      0.3518
     23  O3        14.2560    5.5310   53.6200 O.3   361  NAP361     -0.2703
     24  PN        14.6540    3.9870   53.4100 P.3   361  NAP361      0.2189
     25  O1N       14.9030    3.8030   51.9790 O.2   361  NAP361     -0.5170
     26  O2N       13.7330    3.1870   54.2600 O.3   361  NAP361     -0.4371
     27  O5D       16.0610    3.8690   54.2390 O.3   361  NAP361     -0.3112
     28  C5D       16.3490    2.5980   54.8870 C.3   361  NAP361      0.1813
     29  C4D       17.6920    2.0220   54.5770 C.3   361  NAP361      0.1799
     30  O4D       17.7720    1.2620   53.3730 O.3   361  NAP361     -0.3327
     31  C3D       18.9120    2.9360   54.4510 C.3   361  NAP361      0.2158
     32  O3D       20.0470    2.1170   54.7860 O.3   361  NAP361     -0.2175
     33  C2D       18.9650    3.1930   52.9430 C.3   361  NAP361      0.2309
     34  O2D       20.3240    3.4840   52.5360 O.3   361  NAP361     -0.2158
     35  C1D       18.6240    1.8020   52.4240 C.3   361  NAP361      0.2263
     36  N1N       18.3720    1.8160   50.9910 N.pl3 361  NAP361     -0.2787
     37  C2N       17.2590    2.5070   50.4740 C.3   361  NAP361      0.1244
     38  C3N       17.0470    2.6330   49.0850 C.2   361  NAP361      0.0544
     39  C7N       15.9200    3.5140   48.5500 C.2   361  NAP361      0.2818
     40  O7N       15.8350    3.7520   47.3600 O.2   361  NAP361     -0.2670
     41  N7N       15.0950    4.1660   49.3820 N.am  361  NAP361     -0.0839
     42  C4N       17.9060    1.9400   48.2440 C.2   361  NAP361      0.0033
     43  C5N       18.9260    1.1310   48.7250 C.2   361  NAP361      0.0157
     44  C6N       19.2010    1.1140   50.0940 C.2   361  NAP361      0.0633
     45  P2B       13.9960    9.5760   60.7450 P.3   361  NAP361      0.5328
     46  O1X       14.7490   10.3650   59.8180 O.2   361  NAP361     -0.2224
     47  O2X       12.6830    9.3760   60.1660 O.3   361  NAP361     -0.1145
     48  O3X       13.7040   10.1300   62.0370 O.3   361  NAP361     -0.1145
@<TRIPOS>BOND
     1    40    39    2
     2    42    43    1
     3    42    38    2
     4    39    38    1
     5    39    41   am
     6    43    44    2
     7    38    37    1
     8    44    36    1
     9    37    36    1
    10    36    35    1
    11    25    24    2
    12    35    33    1
    13    35    30    1
    14    34    33    1
    15    33    31    1
    16    30    29    1
    17    24    23    1
    18    24    27    1
    19    24    26    1
    20    23     1    1
    21    27    28    1
    22    31    29    1
    23    31    32    1
    24    29    28    1
    25     1     2    2
    26     1     3    1
    27     1     4    1
    28     4     5    1
    29     5     6    1
    30     6     8    1
    31     6     7    1
    32     8    10    1
    33     8     9    1
    34     7    12    1
    35    10    12    1
    36    10    11    1
    37    46    45    2
    38    47    45    1
    39    14    13    1
    40    14    15    1
    41    12    13    1
    42    45    11    1
    43    45    48    1
    44    13    22    1
    45    15    16    2
    46    22    16    1
    47    22    21    2
    48    16    17    1
    49    21    20    1
    50    17    18    1
    51    17    19    2
    52    20    19    1
