@<TRIPOS>MOLECULE
1fdu_EST_A_1.pdb
 20 23 0 0 0
SMALL
GASTEIGER

@<TRIPOS>ATOM
      1  C1        20.9680    3.8480   39.8460 C.ar  351  EST351     -0.0013
      2  C2        21.3630    4.2470   38.5630 C.ar  351  EST351      0.0417
      3  C3        21.2860    5.5870   38.2370 C.ar  351  EST351      0.1954
      4  O3        21.7090    5.9650   36.9760 O.3   351  EST351     -0.2866
      5  C4        20.8030    6.5090   39.1660 C.ar  351  EST351      0.0375
      6  C5        20.4080    6.0780   40.4370 C.ar  351  EST351     -0.0230
      7  C6        19.8860    7.0760   41.4420 C.3   351  EST351      0.0261
      8  C7        20.0610    6.7500   42.9160 C.3   351  EST351      0.0050
      9  C8        20.4180    5.3210   43.2980 C.3   351  EST351      0.0044
     10  C9        20.0550    4.2850   42.2100 C.3   351  EST351      0.0220
     11  C10       20.4840    4.7170   40.8240 C.ar  351  EST351     -0.0263
     12  C11       20.5380    2.8780   42.5980 C.3   351  EST351      0.0044
     13  C12       20.0150    2.4700   44.0240 C.3   351  EST351      0.0028
     14  C13       20.5770    3.4670   45.0560 C.3   351  EST351      0.0282
     15  C14       20.0450    4.8530   44.6810 C.3   351  EST351      0.0028
     16  C15       20.1840    5.7390   45.9010 C.3   351  EST351      0.0027
     17  C16       20.0630    4.7590   47.1070 C.3   351  EST351      0.0329
     18  C17       20.2010    3.3480   46.5200 C.3   351  EST351      0.1519
     19  O17       21.1390    2.6410   47.3380 O.3   351  EST351     -0.2232
     20  C18       22.1060    3.2340   45.0590 C.3   351  EST351      0.0025
@<TRIPOS>BOND
     1     4     3    1
     2     3     2   ar
     3     3     5   ar
     4     2     1   ar
     5     5     6   ar
     6     1    11   ar
     7     6    11   ar
     8     6     7    1
     9    11    10    1
    10     7     8    1
    11    10    12    1
    12    10     9    1
    13    12    13    1
    14     8     9    1
    15     9    15    1
    16    13    14    1
    17    15    14    1
    18    15    16    1
    19    14    20    1
    20    14    18    1
    21    16    17    1
    22    18    17    1
    23    18    19    1
