@<TRIPOS>MOLECULE
1fdv_NAD_A_1.pdb
 44 48 0 0 0
SMALL
GASTEIGER

@<TRIPOS>ATOM
      1  PA        14.6170    6.2180   54.5550 P.3   361  NAD361      0.2189
      2  O1A       15.3690    7.4530   54.8760 O.3   361  NAD361     -0.4371
      3  O2A       13.2140    6.2050   54.1610 O.2   361  NAD361     -0.5170
      4  O5B       14.8740    5.1830   55.7790 O.3   361  NAD361     -0.3112
      5  C5B       16.1820    5.2390   56.4630 C.3   361  NAD361      0.1813
      6  C4B       15.9500    5.1110   57.9620 C.3   361  NAD361      0.1821
      7  O4B       17.1940    5.2200   58.7290 O.3   361  NAD361     -0.3135
      8  C3B       15.0760    6.2440   58.5210 C.3   361  NAD361      0.2184
      9  O3B       14.4540    5.9020   59.7670 O.3   361  NAD361     -0.2174
     10  C2B       16.1350    7.3240   58.7170 C.3   361  NAD361      0.2570
     11  O2B       15.6990    8.0510   59.8660 O.3   361  NAD361     -0.2130
     12  C1B       17.4410    6.5780   58.9360 C.3   361  NAD361      0.3186
     13  N9A       18.4630    7.1800   59.7820 N.pl3 361  NAD361     -0.1439
     14  C8A       19.1550    8.2800   59.4210 C.3   361  NAD361      0.3377
     15  N7A       19.9540    8.6560   60.4060 N.2   361  NAD361     -0.2095
     16  C5A       19.7820    7.8170   61.4120 C.2   361  NAD361      0.2526
     17  C6A       20.3540    7.7220   62.7000 C.2   361  NAD361      0.4393
     18  N6A       21.2640    8.5770   63.1330 N.pl3 361  NAD361      0.2180
     19  N1A       19.9650    6.7170   63.5220 N.2   361  NAD361      0.0021
     20  C2A       19.0430    5.8460   63.0850 C.3   361  NAD361      0.5254
     21  N3A       18.4950    5.9010   61.8520 N.2   361  NAD361     -0.0055
     22  C4A       18.8410    6.8820   61.0150 C.2   361  NAD361      0.3518
     23  O3        15.4160    5.5650   53.2910 O.3   361  NAD361     -0.2703
     24  PN        15.4420    4.0210   52.7610 P.3   361  NAD361      0.2189
     25  O1N       14.5780    3.2360   53.6810 O.3   361  NAD361     -0.4371
     26  O2N       15.4070    4.0090   51.3220 O.2   361  NAD361     -0.5170
     27  O5D       16.9560    3.6780   53.2370 O.3   361  NAD361     -0.3112
     28  C5D       17.2040    2.8100   54.3450 C.3   361  NAD361      0.1813
     29  C4D       18.4930    2.0870   54.0740 C.3   361  NAD361      0.1799
     30  O4D       18.4890    1.4390   52.7980 O.3   361  NAD361     -0.3327
     31  C3D       19.8190    2.8610   54.1150 C.3   361  NAD361      0.2158
     32  O3D       20.8940    1.9100   54.3750 O.3   361  NAD361     -0.2175
     33  C2D       19.9190    3.2510   52.6420 C.3   361  NAD361      0.2309
     34  O2D       21.1970    3.7150   52.3130 O.3   361  NAD361     -0.2158
     35  C1D       19.6340    1.9120   52.0240 C.3   361  NAD361      0.2263
     36  N1N       19.2420    1.9300   50.6000 N.pl3 361  NAD361     -0.2787
     37  C2N       18.2300    2.7800   50.0670 C.3   361  NAD361      0.1244
     38  C3N       17.9020    2.7400   48.7110 C.2   361  NAD361      0.0544
     39  C7N       16.8380    3.6190   48.0540 C.2   361  NAD361      0.2818
     40  O7N       16.6360    3.6340   46.8340 O.2   361  NAD361     -0.2670
     41  N7N       16.0630    4.2950   48.9040 N.am  361  NAD361     -0.0839
     42  C4N       18.5640    1.8090   47.9120 C.2   361  NAD361      0.0033
     43  C5N       19.4320    0.8350   48.4430 C.2   361  NAD361      0.0157
     44  C6N       19.8130    0.9100   49.7890 C.2   361  NAD361      0.0633
@<TRIPOS>BOND
     1    40    39    2
     2    42    43    1
     3    42    38    2
     4    39    38    1
     5    39    41   am
     6    43    44    2
     7    38    37    1
     8    44    36    1
     9    37    36    1
    10    36    35    1
    11    26    24    2
    12    35    33    1
    13    35    30    1
    14    34    33    1
    15    33    31    1
    16    24    27    1
    17    24    23    1
    18    24    25    1
    19    30    29    1
    20    27    28    1
    21    23     1    1
    22    29    31    1
    23    29    28    1
    24    31    32    1
    25     3     1    2
    26     1     2    1
    27     1     4    1
    28     4     5    1
    29     5     6    1
    30     6     8    1
    31     6     7    1
    32     8    10    1
    33     8     9    1
    34    10    12    1
    35    10    11    1
    36     7    12    1
    37    12    13    1
    38    14    13    1
    39    14    15    1
    40    13    22    1
    41    15    16    2
    42    22    16    1
    43    22    21    2
    44    16    17    1
    45    21    20    1
    46    17    18    1
    47    17    19    2
    48    20    19    1
