@<TRIPOS>MOLECULE
1fdw_EST_A_1.pdb
 20 23 0 0 0
SMALL
GASTEIGER

@<TRIPOS>ATOM
      1  C1        47.4680    9.8800   43.3460 C.ar  350  EST350     -0.0013
      2  C2        48.1510   10.8060   44.1160 C.ar  350  EST350      0.0417
      3  C3        48.6990   10.4030   45.3030 C.ar  350  EST350      0.1954
      4  O3        49.3890   11.3150   46.0850 O.3   350  EST350     -0.2866
      5  C4        48.5690    9.0830   45.7400 C.ar  350  EST350      0.0375
      6  C5        47.8760    8.1630   44.9490 C.ar  350  EST350     -0.0230
      7  C6        47.7550    6.7500   45.4390 C.3   350  EST350      0.0261
      8  C7        46.8700    5.8120   44.6460 C.3   350  EST350      0.0050
      9  C8        46.8310    6.0910   43.1590 C.3   350  EST350      0.0044
     10  C9        46.5290    7.5710   42.8910 C.3   350  EST350      0.0220
     11  C10       47.3110    8.5440   43.7200 C.ar  350  EST350     -0.0263
     12  C11       46.4680    7.8990   41.4020 C.3   350  EST350      0.0044
     13  C12       45.4200    6.9900   40.6830 C.3   350  EST350      0.0028
     14  C13       45.8210    5.5340   40.8910 C.3   350  EST350      0.0282
     15  C14       45.9080    5.2030   42.3890 C.3   350  EST350      0.0028
     16  C15       45.9530    3.6940   42.4660 C.3   350  EST350      0.0027
     17  C16       45.3080    3.1840   41.1420 C.3   350  EST350      0.0329
     18  C17       44.8080    4.4760   40.4440 C.3   350  EST350      0.1519
     19  O17       44.7160    4.2710   39.0350 O.3   350  EST350     -0.2232
     20  C18       47.0820    5.2300   40.0860 C.3   350  EST350      0.0025
@<TRIPOS>BOND
     1    19    18    1
     2    20    14    1
     3    18    14    1
     4    18    17    1
     5    13    14    1
     6    13    12    1
     7    14    15    1
     8    17    16    1
     9    12    10    1
    10    15    16    1
    11    15     9    1
    12    10     9    1
    13    10    11    1
    14     9     8    1
    15     1    11   ar
    16     1     2   ar
    17    11     6   ar
    18     2     3   ar
    19     8     7    1
    20     6     7    1
    21     6     5   ar
    22     3     5   ar
    23     3     4    1
