@<TRIPOS>MOLECULE
1fe2_LAX_A_1.pdb
 22 21 0 0 0
SMALL
GASTEIGER

@<TRIPOS>ATOM
      1  C1       253.6080  111.4460  -37.4340 C.2   700  LAX700      0.3649
      2  O1       253.4410  111.5530  -36.1990 O.co2 700  LAX700     -0.2457
      3  O2       253.7050  112.4220  -38.2050 O.co2 700  LAX700     -0.2457
      4  C2       253.6840  110.0760  -38.0440 C.3   700  LAX700      0.1141
      5  C3       252.6580  109.9170  -39.1280 C.3   700  LAX700      0.0118
      6  C4       252.1360  108.5120  -39.1530 C.3   700  LAX700      0.0006
      7  C5       253.0730  107.5960  -39.8780 C.3   700  LAX700      0.0004
      8  C6       252.3900  106.9930  -41.0840 C.3   700  LAX700      0.0047
      9  C7       251.2100  106.1050  -40.7030 C.3   700  LAX700      0.0257
     10  C8       249.9860  106.6730  -40.0220 C.2   700  LAX700     -0.0304
     11  C9       249.5360  106.1520  -38.8320 C.2   700  LAX700     -0.0260
     12  C10      250.2450  105.0000  -38.1760 C.3   700  LAX700      0.0513
     13  C11      250.3290  103.6710  -38.9310 C.2   700  LAX700     -0.0257
     14  C12      250.1830  102.4480  -38.2850 C.2   700  LAX700     -0.0257
     15  C13      249.9390  102.3580  -36.8250 C.3   700  LAX700      0.0513
     16  C14      250.9050  101.5540  -35.9710 C.2   700  LAX700     -0.0260
     17  C15      250.6860  101.4550  -34.6250 C.2   700  LAX700     -0.0304
     18  C16      249.4600  102.1780  -34.0020 C.3   700  LAX700      0.0257
     19  C17      248.5040  101.4870  -33.0310 C.3   700  LAX700      0.0047
     20  C18      249.1700  101.1680  -31.7010 C.3   700  LAX700      0.0003
     21  C19      248.1700  100.6500  -30.6600 C.3   700  LAX700      0.0000
     22  C20      246.9730  101.5870  -30.4490 C.3   700  LAX700      0.0000
@<TRIPOS>BOND
     1     8     9    1
     2     8     7    1
     3     9    10    1
     4    10    11    2
     5     7     6    1
     6     6     5    1
     7     5     4    1
     8    13    14    2
     9    13    12    1
    10    11    12    1
    11    14    15    1
    12     3     1   ar
    13     4     1    1
    14     1     2   ar
    15    15    16    1
    16    16    17    2
    17    17    18    1
    18    18    19    1
    19    19    20    1
    20    20    21    1
    21    21    22    1
