@<TRIPOS>MOLECULE
1fe2_COH_A_1.pdb
 43 50 0 0 0
SMALL
GASTEIGER

@<TRIPOS>ATOM
      1 CO        242.4030   90.7340  -42.6970 Co.oh 601  COH601      0.0000
      2  CHA      239.4470   91.0030  -41.1730 C.2   601  COH601      0.0000
      3  CHB      241.2920   87.9890  -44.4220 C.2   601  COH601      0.0000
      4  CHC      245.3690   90.4410  -44.2140 C.2   601  COH601      0.0000
      5  CHD      243.6260   93.4590  -40.9670 C.2   601  COH601      0.0000
      6  NA       240.7230   89.6660  -42.8280 N.ar  601  COH601      0.0000
      7  C1A      239.5330   89.9360  -42.0850 C.ar  601  COH601      0.0000
      8  C2A      238.4240   88.9200  -42.4080 C.ar  601  COH601      0.0000
      9  C3A      238.9890   88.0230  -43.3880 C.ar  601  COH601      0.0000
     10  C4A      240.4250   88.5690  -43.5810 C.ar  601  COH601      0.0000
     11  CMA      238.3630   86.8030  -44.0870 C.3   601  COH601      0.0000
     12  CAA      236.9320   88.7900  -41.8190 C.3   601  COH601      0.0000
     13  CBA      235.7860   89.5420  -42.5680 C.3   601  COH601      0.0000
     14  CGA      235.8900   91.0780  -42.6510 C.2   601  COH601      0.0000
     15  O1A      235.9400   91.7520  -41.5690 O.co2 601  COH601      0.0000
     16  O2A      235.8390   91.6270  -43.7900 O.co2 601  COH601      0.0000
     17  NB       243.1420   89.4950  -44.0090 N.2   601  COH601      0.0000
     18  C1B      242.5720   88.3840  -44.6550 C.2   601  COH601      0.0000
     19  C2B      243.4720   87.6970  -45.5930 C.2   601  COH601      0.0000
     20  C3B      244.6420   88.3980  -45.5400 C.2   601  COH601      0.0000
     21  C4B      244.4280   89.4950  -44.5630 C.2   601  COH601      0.0000
     22  CMB      243.1370   86.4830  -46.4250 C.3   601  COH601      0.0000
     23  CAB      245.8750   88.1150  -46.3090 C.3   601  COH601      0.0000
     24  CBB      246.6070   86.9460  -46.2530 C.3   601  COH601      0.0000
     25  NC       244.1260   91.7880  -42.5810 N.ar  601  COH601      0.0000
     26  C1C      245.2510   91.4850  -43.3180 C.ar  601  COH601      0.0000
     27  C2C      246.3240   92.4210  -43.0270 C.ar  601  COH601      0.0000
     28  C3C      245.8110   93.3010  -42.0730 C.ar  601  COH601      0.0000
     29  C4C      244.4850   92.8580  -41.8490 C.ar  601  COH601      0.0000
     30  CMC      247.7430   92.4200  -43.6930 C.3   601  COH601      0.0000
     31  CAC      246.4010   94.4310  -41.3920 C.3   601  COH601      0.0000
     32  CBC      246.9010   95.6600  -41.9590 C.3   601  COH601      0.0000
     33  ND       241.7360   91.9890  -41.3520 N.2   601  COH601      0.0000
     34  C1D      242.2940   93.0390  -40.7200 C.2   601  COH601      0.0000
     35  C2D      241.3140   93.7130  -39.7150 C.2   601  COH601      0.0000
     36  C3D      240.1650   92.9800  -39.8320 C.2   601  COH601      0.0000
     37  C4D      240.4000   91.9410  -40.8060 C.2   601  COH601      0.0000
     38  CMD      241.7200   94.9260  -38.8700 C.3   601  COH601      0.0000
     39  CAD      238.7670   93.2120  -39.1740 C.3   601  COH601      0.0000
     40  CBD      238.4420   92.3300  -37.9430 C.3   601  COH601      0.0000
     41  CGD      239.1520   92.6640  -36.6680 C.2   601  COH601      0.0000
     42  O1D      240.2570   92.1100  -36.4220 O.co2 601  COH601      0.0000
     43  O2D      238.6000   93.4690  -35.9020 O.co2 601  COH601      0.0000
@<TRIPOS>BOND
     1    22    19    1
     2    23    24    1
     3    23    20    1
     4    19    20    2
     5    19    18    1
     6    20    21    1
     7    18     3    1
     8    18    17    2
     9    21     4    2
    10    21    17    1
    11     3    10    2
    12     4    26    1
    13    11     9    1
    14    17     1    1
    15    16    14   ar
    16    30    27    1
    17    10     9   ar
    18    10     6   ar
    19     9     8   ar
    20    26    27   ar
    21    26    25   ar
    22    27    28   ar
    23     6     1    1
    24     6     7   ar
    25     1    25    1
    26     1    33    1
    27    14    13    1
    28    14    15   ar
    29    25    29   ar
    30    13    12    1
    31     8     7   ar
    32     8    12    1
    33     7     2    2
    34    28    29   ar
    35    28    31    1
    36    32    31    1
    37    29     5    1
    38    33    37    2
    39    33    34    1
    40     2    37    1
    41     5    34    2
    42    37    36    1
    43    34    35    1
    44    36    35    2
    45    36    39    1
    46    35    38    1
    47    39    40    1
    48    40    41    1
    49    41    42   ar
    50    41    43   ar
