@<TRIPOS>MOLECULE
1fe3_OLA_A_1.pdb
 20 19 0 0 0
SMALL
GASTEIGER

@<TRIPOS>ATOM
      1  C1        94.3250   71.7690  -40.2280 C.2   133  OLA133      0.3649
      2  O1        94.7080   70.6330  -40.5840 O.co2 133  OLA133     -0.2457
      3  O2        93.1710   72.1910  -40.4460 O.co2 133  OLA133     -0.2457
      4  C2        95.2990   72.6770  -39.4950 C.3   133  OLA133      0.1141
      5  C3        96.7040   72.6320  -40.0770 C.3   133  OLA133      0.0118
      6  C4        97.6550   73.5410  -39.3140 C.3   133  OLA133      0.0006
      7  C5        99.0660   73.4470  -39.8780 C.3   133  OLA133      0.0004
      8  C6       100.0440   74.3620  -39.1450 C.3   133  OLA133      0.0047
      9  C7        99.7260   75.8380  -39.3600 C.3   133  OLA133      0.0257
     10  C8        99.7580   76.2030  -40.8360 C.2   133  OLA133     -0.0307
     11  C9        99.5260   77.5540  -41.5150 C.2   133  OLA133     -0.0307
     12  C10       99.3520   77.6130  -42.8400 C.3   133  OLA133      0.0257
     13  C11       98.0020   77.3300  -43.5010 C.3   133  OLA133      0.0047
     14  C12       96.6510   77.3740  -42.8010 C.3   133  OLA133      0.0003
     15  C13       95.6040   76.5650  -43.5480 C.3   133  OLA133      0.0000
     16  C14       95.8170   75.0710  -43.3430 C.3   133  OLA133      0.0000
     17  C15       94.7930   74.2430  -44.1080 C.3   133  OLA133      0.0000
     18  C16       95.0230   74.3040  -45.6130 C.3   133  OLA133      0.0000
     19  C17       96.3440   73.6530  -46.0110 C.3   133  OLA133      0.0000
     20  C18       96.3630   72.1670  -45.6790 C.3   133  OLA133      0.0000
@<TRIPOS>BOND
     1    19    20    1
     2    19    18    1
     3    18    17    1
     4    17    16    1
     5    15    16    1
     6    15    14    1
     7    13    12    1
     8    13    14    1
     9    12    11    1
    10    11    10    2
    11    10     9    1
    12     2     1   ar
    13     3     1   ar
    14     1     4    1
    15     5     4    1
    16     5     6    1
    17     7     6    1
    18     7     8    1
    19     9     8    1
