@<TRIPOS>MOLECULE
1feh_HC1_A_1.pdb
 16 16 0 0 0
SMALL
GASTEIGER

@<TRIPOS>ATOM
      1 FE1        17.3970   88.4640   75.9930 Fe    580  HC1580      0.0000
      2 FE2        15.2340   88.0710   77.4130 Fe    580  HC1580      0.0000
      3  S1        16.1190   86.5040   75.9490 S.3   580  HC1580      0.0000
      4  S2        15.3440   89.4290   75.5140 S.3   580  HC1580      0.0000
      5  O1        14.3290   87.4130   74.1410 O.3   580  HC1580      0.0000
      6  O2        12.8900   87.3210   76.7470 O.3   580  HC1580      0.0000
      7  O3        18.7780   91.1010   76.0480 O.3   580  HC1580      0.0000
      8  O4        19.6050   86.8600   76.9560 O.3   580  HC1580      0.0000
      9  O5        17.5400   89.0280   78.9920 O.2   580  HC1580      0.0000
     10  O6        14.2370   90.4620   78.9040 O.3   580  HC1580      0.0000
     11  O7        15.2630   86.2390   79.7420 O.3   580  HC1580      0.0000
     12  C3        18.2710   90.1020   76.0250 C.3   580  HC1580      0.0000
     13  C4        18.7660   87.5210   76.5530 C.3   580  HC1580      0.0000
     14  C5        17.0580   88.7370   78.0470 C.2   580  HC1580      0.0000
     15  C6        14.6010   89.5330   78.3790 C.3   580  HC1580      0.0000
     16  C7        15.2570   86.9440   78.8560 C.3   580  HC1580      0.0000
@<TRIPOS>BOND
     1     4     1    1
     2     4     2    1
     3     3     1    1
     4     3     2    1
     5     1    12    1
     6     1    13    1
     7     1     2    1
     8     1    14    1
     9    12     7    1
    10    13     8    1
    11     2    14    1
    12     2    15    1
    13     2    16    1
    14    14     9    2
    15    15    10    1
    16    16    11    1
