@<TRIPOS>MOLECULE
1fel_FEN_A_1.pdb
 29 30 0 0 0
SMALL
GASTEIGER

@<TRIPOS>ATOM
      1  C1        29.7800   21.0980   45.2060 C.3   184  FEN184      0.0037
      2  C2        29.7480   21.2660   43.6890 C.3   184  FEN184      0.0003
      3  C3        29.7110   19.9040   43.0410 C.3   184  FEN184      0.0000
      4  C4        31.1250   19.4390   43.1440 C.3   184  FEN184      0.0003
      5  C5        31.4600   19.3350   44.6300 C.3   184  FEN184      0.0040
      6  C6        30.4970   19.7410   45.5170 C.3   184  FEN184      0.0217
      7  C7        30.5380   19.4970   46.9440 C.2   184  FEN184     -0.0307
      8  C8        31.6860   19.3430   47.6850 C.2   184  FEN184     -0.0267
      9  C9        31.7220   19.1650   49.1370 C.3   184  FEN184      0.0436
     10  C10       32.9670   19.0730   49.6650 C.2   184  FEN184     -0.0221
     11  C11       33.3290   18.8500   51.0780 C.2   184  FEN184     -0.0049
     12  C12       34.6280   18.6400   51.4470 C.2   184  FEN184     -0.0083
     13  C13       35.0420   18.6420   52.8300 C.2   184  FEN184     -0.0348
     14  C14       36.3600   18.3450   53.1990 C.3   184  FEN184      0.1092
     15  C15       36.8230   18.2890   54.6160 C.2   184  FEN184      0.2497
     16  C16       28.5270   21.4670   46.0520 C.3   184  FEN184      0.0003
     17  C17       30.7450   22.1590   45.7020 C.3   184  FEN184      0.0003
     18  C18       32.2060   18.0170   44.9120 C.3   184  FEN184      0.0003
     19  C19       30.4940   19.6290   49.9570 C.3   184  FEN184      0.0094
     20  C20       33.9950   19.0050   53.8390 C.3   184  FEN184      0.0269
     21  C1'       38.4300   18.6370   56.3130 C.ar  184  FEN184      0.0736
     22  C2'       38.8100   19.3570   57.4730 C.ar  184  FEN184      0.0199
     23  C3'       39.6830   18.8480   58.4460 C.ar  184  FEN184      0.0434
     24  C4'       40.2220   17.5770   58.3050 C.ar  184  FEN184      0.1958
     25  C5'       39.8840   16.8490   57.1800 C.ar  184  FEN184      0.0434
     26  C6'       38.9940   17.3620   56.1980 C.ar  184  FEN184      0.0199
     27  O         36.4150   16.9920   54.6620 O.2   184  FEN184     -0.2726
     28  N         37.5720   19.1520   55.3590 N.am  184  FEN184     -0.1789
     29  O4'       41.0060   17.0890   59.2680 O.3   184  FEN184     -0.2866
@<TRIPOS>BOND
     1     3     4    1
     2     3     2    1
     3     4     5    1
     4     2     1    1
     5     5    18    1
     6     5     6    1
     7     1     6    1
     8     1    17    1
     9     1    16    1
    10     6     7    1
    11     7     8    2
    12     8     9    1
    13     9    10    1
    14     9    19    1
    15    10    11    2
    16    11    12    1
    17    12    13    2
    18    13    14    1
    19    13    20    1
    20    14    15    1
    21    15    27    2
    22    15    28   am
    23    28    21    1
    24    26    21   ar
    25    26    25   ar
    26    21    22   ar
    27    25    24   ar
    28    22    23   ar
    29    24    23   ar
    30    24    29    1
