@<TRIPOS>MOLECULE
1fem_REA_A_1.pdb
 22 23 0 0 0
SMALL
GASTEIGER

@<TRIPOS>ATOM
      1  C1        29.3260   21.0160   45.7770 C.3   184  REA184      0.0003
      2  C2        28.4360   20.9090   44.5370 C.3   184  REA184      0.0000
      3  C3        29.0120   20.0710   43.3930 C.3   184  REA184      0.0000
      4  C4        30.2730   19.2980   43.7600 C.3   184  REA184      0.0000
      5  C5        30.2090   18.7870   45.1880 C.3   184  REA184      0.0003
      6  C6        29.9180   19.7020   46.1810 C.3   184  REA184      0.0043
      7  C7        30.2060   19.2820   47.5840 C.3   184  REA184      0.0254
      8  C8        31.5490   19.2570   47.8960 C.2   184  REA184     -0.0346
      9  C9        31.8850   18.9310   49.2780 C.2   184  REA184     -0.0482
     10  C10       33.2440   18.9900   49.4710 C.3   184  REA184      0.0217
     11  C11       33.5740   18.6390   50.8260 C.3   184  REA184      0.0043
     12  C12       34.9210   18.7190   50.8230 C.3   184  REA184      0.0009
     13  C13       35.4510   18.3550   52.1420 C.3   184  REA184      0.0113
     14  C14       36.8780   18.4050   51.9620 C.3   184  REA184      0.1140
     15  C15       37.5680   18.0480   53.2540 C.2   184  REA184      0.3649
     16  C16       27.9060   21.3650   46.1780 C.3   184  REA184      0.0000
     17  C17       30.1310   22.2970   45.6490 C.3   184  REA184      0.0000
     18  C18       30.9530   17.4500   45.2400 C.3   184  REA184      0.0000
     19  C19       30.7540   18.6880   50.2310 C.3   184  REA184      0.0260
     20  C20       34.3800   17.9910   53.2030 C.3   184  REA184      0.0006
     21  O1        38.5890   17.3300   52.9170 O.co2 184  REA184     -0.2457
     22  O2        36.7490   18.4600   54.2990 O.co2 184  REA184     -0.2457
@<TRIPOS>BOND
     1     3     4    1
     2     3     2    1
     3     4     5    1
     4     2     1    1
     5     2    16    1
     6     5    18    1
     7     5     6    1
     8    17     1    1
     9     1    16    1
    10     1     6    1
    11     6     7    1
    12     7     8    1
    13     8     9    2
    14     9    10    1
    15     9    19    1
    16    10    11    1
    17    12    11    1
    18    12    13    1
    19    14    13    1
    20    14    15    1
    21    13    20    1
    22    21    15   ar
    23    15    22   ar
