@<TRIPOS>MOLECULE
1fen_AZE_A_1.pdb
 20 20 0 0 0
SMALL
GASTEIGER

@<TRIPOS>ATOM
      1  C1        29.7320   21.4670   45.0740 C.3   184  AZE184      0.0183
      2  C2        29.5290   21.5570   43.5780 C.3   184  AZE184      0.0044
      3  C3        30.4390   20.8280   42.7660 C.3   184  AZE184      0.0047
      4  C4        30.8050   19.5050   43.0610 C.3   184  AZE184      0.0217
      5  C5        30.9590   19.2630   44.5570 C.2   184  AZE184     -0.0479
      6  C6        30.5210   20.2020   45.5510 C.2   184  AZE184     -0.0307
      7  C7        30.6200   19.9630   47.0570 C.2   184  AZE184     -0.0052
      8  C8        31.7140   19.6450   47.7430 C.2   184  AZE184     -0.0046
      9  C9        31.7580   19.5480   49.0990 C.2   184  AZE184     -0.0219
     10  C10       33.2670   19.2730   49.5940 C.3   184  AZE184      0.0310
     11  C11       33.4070   19.2100   51.0450 C.3   184  AZE184      0.0301
     12  C12       34.7020   18.8810   51.2570 C.2   184  AZE184     -0.0342
     13  C13       35.1150   18.8110   52.6660 C.2   184  AZE184     -0.0482
     14  C14       36.4190   18.2780   52.7090 C.3   184  AZE184      0.0217
     15  C15       36.8590   18.1890   54.0880 C.3   184  AZE184      0.0047
     16  C16       28.1840   21.6060   45.8350 C.3   184  AZE184      0.0043
     17  C17       30.6450   22.5370   45.3490 C.3   184  AZE184      0.0043
     18  C18       31.7720   17.9200   44.8030 C.3   184  AZE184      0.0260
     19  C19       30.7070   20.0310   49.8420 C.2   184  AZE184     -0.0046
     20  C20       33.9620   19.1130   53.5790 C.3   184  AZE184      0.0260
@<TRIPOS>BOND
     1     3     4    1
     2     3     2    1
     3     4     5    1
     4     2     1    1
     5     5    18    1
     6     5     6    2
     7     1    17    1
     8     1     6    1
     9     1    16    1
    10     6     7    1
    11     7     8    2
    12     8     9    1
    13     9    10    1
    14     9    19    2
    15    10    11    1
    16    11    12    1
    17    12    13    2
    18    13    14    1
    19    13    20    1
    20    14    15    1
