@<TRIPOS>MOLECULE
1ff7_FUC_A_1.pdb
 21 21 0 0 0
SMALL
GASTEIGER

@<TRIPOS>ATOM
      1  C1         9.1250   -0.3130   -8.5470 C.3    91  FUC91       0.1160
      2  C2        10.5060    0.1950   -8.9700 C.3    91  FUC91       0.1121
      3  C3        10.3340    1.5240   -9.7100 C.3    91  FUC91       0.1117
      4  C4         9.6500    2.5210   -8.7720 C.3    91  FUC91       0.1093
      5  C5         8.2890    1.9490   -8.3580 C.3    91  FUC91       0.0848
      6  C6         7.5360    2.8430   -7.3930 C.3    91  FUC91      -0.0361
      7  O2        11.1360   -0.7580   -9.8140 O.3    91  FUC91      -0.3865
      8  O3        11.6010    2.0220  -10.1150 O.3    91  FUC91      -0.3865
      9  O4        10.4590    2.7440   -7.6250 O.3    91  FUC91      -0.3866
     10  O5         8.4830    0.6620   -7.7090 O.3    91  FUC91      -0.3657
     11  H1         9.2300   -1.2340   -7.9510 H      91  FUC91       0.0650
     12  H2        11.1150    0.3640   -8.0710 H      91  FUC91       0.0647
     13  H3         9.6930    1.3630  -10.5880 H      91  FUC91       0.0647
     14  H4         9.4910    3.4660   -9.3110 H      91  FUC91       0.0646
     15  H5         7.6760    1.7840   -9.2550 H      91  FUC91       0.0620
     16  H61        6.4530    2.7110   -7.5280 H      91  FUC91       0.0255
     17  H62        7.8020    2.5870   -6.3580 H      91  FUC91       0.0255
     18  H63        7.7930    3.8950   -7.5790 H      91  FUC91       0.0255
     19  HO2       12.0150   -0.9480   -9.4780 H      91  FUC91       0.2100
     20  HO3       11.7660    1.7670  -11.0260 H      91  FUC91       0.2100
     21  HO4       11.1530    3.3700   -7.8430 H      91  FUC91       0.2100
@<TRIPOS>BOND
     1    20     8    1
     2    13     3    1
     3     8     3    1
     4     7    19    1
     5     7     2    1
     6     3     2    1
     7     3     4    1
     8    14     4    1
     9    15     5    1
    10     2     1    1
    11     2    12    1
    12     4     5    1
    13     4     9    1
    14     1    11    1
    15     1    10    1
    16     5    10    1
    17     5     6    1
    18    21     9    1
    19    18     6    1
    20    16     6    1
    21     6    17    1
