@<TRIPOS>MOLECULE
1ffm_FUC_A_1.pdb
 21 21 0 0 0
SMALL
GASTEIGER

@<TRIPOS>ATOM
      1  C1         9.0680   -0.5940   -8.9270 C.3    91  FUC91       0.1160
      2  C2        10.4920   -0.1010   -9.1960 C.3    91  FUC91       0.1121
      3  C3        10.4180    1.1730  -10.0400 C.3    91  FUC91       0.1117
      4  C4         9.6130    2.2240   -9.2730 C.3    91  FUC91       0.1093
      5  C5         8.2100    1.6660   -9.0070 C.3    91  FUC91       0.0848
      6  C6         7.3320    2.6150   -8.2140 C.3    91  FUC91      -0.0361
      7  O2        11.2310   -1.1020   -9.8820 O.3    91  FUC91      -0.3865
      8  O3        11.7270    1.6560  -10.3060 O.3    91  FUC91      -0.3865
      9  O4        10.2600    2.5310   -8.0470 O.3    91  FUC91      -0.3866
     10  O5         8.3170    0.4270   -8.2510 O.3    91  FUC91      -0.3657
     11  H1         9.0920   -1.4730   -8.2610 H      91  FUC91       0.0650
     12  H2        10.9750    0.1340   -8.2370 H      91  FUC91       0.0647
     13  H3         9.9010    0.9460  -10.9830 H      91  FUC91       0.0647
     14  H4         9.5250    3.1280   -9.8910 H      91  FUC91       0.0646
     15  H5         7.7230    1.4340   -9.9640 H      91  FUC91       0.0620
     16  H61        7.8250    2.8790   -7.2690 H      91  FUC91       0.0255
     17  H62        6.3670    2.1370   -7.9950 H      91  FUC91       0.0255
     18  H63        7.1550    3.5320   -8.7940 H      91  FUC91       0.0255
     19  HO2       10.7610   -1.3540  -10.6790 H      91  FUC91       0.2100
     20  HO3       11.6700    2.4760  -10.8020 H      91  FUC91       0.2100
     21  HO4       10.0890    3.4480   -7.8180 H      91  FUC91       0.2100
@<TRIPOS>BOND
     1    13     3    1
     2    20     8    1
     3    19     7    1
     4     8     3    1
     5     3     4    1
     6     3     2    1
     7    15     5    1
     8    14     4    1
     9     7     2    1
    10     4     5    1
    11     4     9    1
    12     2     1    1
    13     2    12    1
    14     5    10    1
    15     5     6    1
    16     1    11    1
    17     1    10    1
    18    18     6    1
    19     6    17    1
    20     6    16    1
    21     9    21    1
