@<TRIPOS>MOLECULE
1ffq_AMI_A_1.pdb
 15 16 0 0 0
SMALL
GASTEIGER

@<TRIPOS>ATOM
      1  C1        25.9780   28.1180   16.0760 C.3     3  AMI3        0.1987
      2  C2        27.4370   28.5110   15.7600 C.3     3  AMI3        0.1803
      3  C3        27.4280   29.0130   14.3100 C.3     3  AMI3        0.2082
      4  C4        26.3040   28.1250   13.6740 C.3     3  AMI3        0.1902
      5  C5        25.2210   28.3560   14.7490 C.3     3  AMI3        0.1081
      6  C6        23.9440   27.5480   14.6260 C.3     3  AMI3        0.1883
      7  C7        26.6870   29.7970   17.4740 C.2     3  AMI3        0.2833
      8  C8        27.5740   31.8150   18.4880 C.3     3  AMI3        0.1166
      9  C9        25.3350   31.0460   18.9980 C.3     3  AMI3        0.1166
     10  N2        27.7560   29.4940   16.7240 N.2     3  AMI3       -0.2198
     11  N7        26.5230   30.9290   18.2040 N.pl3   3  AMI3       -0.2607
     12  O3        28.6730   28.7390   13.6710 O.3     3  AMI3       -0.2182
     13  O4        25.8460   28.7240   12.4700 O.3     3  AMI3       -0.2201
     14  O6        24.2070   26.1240   14.6340 O.3     3  AMI3       -0.2202
     15  O7        25.6050   29.1770   17.0000 O.2     3  AMI3       -0.4514
@<TRIPOS>BOND
     1    13     4    1
     2    12     3    1
     3     4     3    1
     4     4     5    1
     5     3     2    1
     6     6    14    1
     7     6     5    1
     8     5     1    1
     9     2     1    1
    10     2    10    1
    11     1    15    1
    12    10     7    2
    13    15     7    1
    14     7    11    1
    15    11     8    1
    16    11     9    1
