@<TRIPOS>MOLECULE
1ffr_NAG_A_1.pdb
 14 14 0 0 0
SMALL
GASTEIGER

@<TRIPOS>ATOM
      1  C1        28.8300   33.4380    2.3410 C.3     2  NAG2        0.1665
      2  C2        27.8570   34.3290    1.5310 C.3     2  NAG2        0.1576
      3  C3        28.5700   34.9770    0.3740 C.3     2  NAG2        0.2069
      4  C4        29.6790   35.8780    0.9790 C.3     2  NAG2        0.2134
      5  C5        30.5460   35.0670    1.9860 C.3     2  NAG2        0.1809
      6  C6        31.4370   36.0190    2.7620 C.3     2  NAG2        0.2141
      7  C7        25.5150   33.5900    1.8080 C.2     2  NAG2        0.2420
      8  C8        24.6500   32.3930    1.6310 C.3     2  NAG2        0.0964
      9  N2        26.6730   33.5560    1.1020 N.am    2  NAG2       -0.2019
     10  O3        27.6960   35.8520   -0.3490 O.3     2  NAG2       -0.2184
     11  O4        30.5310   36.3410   -0.0980 O.3     2  NAG2       -0.2176
     12  O5        29.6840   34.4460    2.9370 O.3     2  NAG2       -0.3489
     13  O6        32.7980   35.8250    2.5560 O.3     2  NAG2       -0.2176
     14  O7        25.2280   34.4730    2.4750 O.2     2  NAG2       -0.2733
@<TRIPOS>BOND
     1    10     3    1
     2    11     4    1
     3     3     4    1
     4     3     2    1
     5     4     5    1
     6     9     2    1
     7     9     7   am
     8     2     1    1
     9     8     7    1
    10     7    14    2
    11     5     6    1
    12     5    12    1
    13     1    12    1
    14    13     6    1
