@<TRIPOS>MOLECULE
1fft_HEM_A_1.pdb
 43 50 0 0 0
SMALL
GASTEIGER

@<TRIPOS>ATOM
      1  CHA       37.8640  287.7150  199.1650 C.2   1001  HEM1001     0.0000
      2  CHB       33.0640  287.4450  198.9350 C.2   1001  HEM1001     0.0000
      3  CHC       32.7200  292.0360  200.3650 C.2   1001  HEM1001     0.0000
      4  CHD       37.5220  292.2880  200.6550 C.2   1001  HEM1001     0.0000
      5  C1A       36.5910  287.2530  198.9760 C.ar  1001  HEM1001     0.0000
      6  C2A       36.2820  285.8990  198.5830 C.ar  1001  HEM1001     0.0000
      7  C3A       34.9310  285.8270  198.5350 C.ar  1001  HEM1001     0.0000
      8  C4A       34.4200  287.1350  198.8820 C.ar  1001  HEM1001     0.0000
      9  CMA       34.1050  284.6030  198.2070 C.3   1001  HEM1001     0.0000
     10  CAA       37.2910  284.7750  198.2620 C.3   1001  HEM1001     0.0000
     11  CBA       37.6610  283.8520  199.4590 C.3   1001  HEM1001     0.0000
     12  CGA       38.5970  282.7000  199.0870 C.2   1001  HEM1001     0.0000
     13  O1A       38.2060  281.8460  198.2550 O.co2 1001  HEM1001     0.0000
     14  O2A       39.7190  282.6460  199.6290 O.co2 1001  HEM1001     0.0000
     15  C1B       32.5530  288.6740  199.2950 C.2   1001  HEM1001     0.0000
     16  C2B       31.1240  288.9940  199.3520 C.2   1001  HEM1001     0.0000
     17  C3B       31.0590  290.2800  199.7440 C.2   1001  HEM1001     0.0000
     18  C4B       32.4080  290.7660  199.9350 C.2   1001  HEM1001     0.0000
     19  CMB       29.9520  288.0640  199.0710 C.3   1001  HEM1001     0.0000
     20  CAB       29.8030  291.0850  199.9260 C.3   1001  HEM1001     0.0000
     21  CBB       29.0530  290.6000  201.1690 C.3   1001  HEM1001     0.0000
     22  C1C       34.0110  292.4960  200.5790 C.ar  1001  HEM1001     0.0000
     23  C2C       34.3060  293.8250  201.0530 C.ar  1001  HEM1001     0.0000
     24  C3C       35.6470  293.9190  201.1540 C.ar  1001  HEM1001     0.0000
     25  C4C       36.1820  292.6170  200.7230 C.ar  1001  HEM1001     0.0000
     26  CMC       33.2900  294.8970  201.4110 C.3   1001  HEM1001     0.0000
     27  CAC       36.3410  295.0070  201.6830 C.2   1001  HEM1001     0.0000
     28  CBC       37.1550  295.8030  200.9750 C.2   1001  HEM1001     0.0000
     29  C1D       38.0270  291.0520  200.2600 C.2   1001  HEM1001     0.0000
     30  C2D       39.4410  290.7380  200.1840 C.2   1001  HEM1001     0.0000
     31  C3D       39.5400  289.4610  199.7500 C.2   1001  HEM1001     0.0000
     32  C4D       38.1850  288.9880  199.5800 C.2   1001  HEM1001     0.0000
     33  CMD       40.5920  291.6660  200.5100 C.3   1001  HEM1001     0.0000
     34  CAD       40.8240  288.7160  199.3640 C.3   1001  HEM1001     0.0000
     35  CBD       41.2720  289.0560  197.9260 C.3   1001  HEM1001     0.0000
     36  CGD       42.3400  288.1290  197.3890 C.2   1001  HEM1001     0.0000
     37  O1D       42.0890  286.9100  197.3250 O.co2 1001  HEM1001     0.0000
     38  O2D       43.4270  288.6180  197.0230 O.co2 1001  HEM1001     0.0000
     39  NA        35.4470  288.0130  199.1610 N.ar  1001  HEM1001     0.0000
     40  NB        33.3440  289.7680  199.6580 N.2   1001  HEM1001     0.0000
     41  NC        35.1660  291.7430  200.3810 N.ar  1001  HEM1001     0.0000
     42  ND        37.2600  289.9720  199.8850 N.2   1001  HEM1001     0.0000
     43 FE         35.3280  289.8630  199.7710 Fe    1001  HEM1001     0.0000
@<TRIPOS>BOND
     1    38    36   ar
     2    37    36   ar
     3    36    35    1
     4    35    34    1
     5     9     7    1
     6    13    12   ar
     7    10     6    1
     8    10    11    1
     9     7     6   ar
    10     7     8   ar
    11     6     5   ar
    12     8     2    2
    13     8    39   ar
    14     2    15    1
    15     5    39   ar
    16     5     1    2
    17    19    16    1
    18    12    11    1
    19    12    14   ar
    20    39    43    1
    21     1    32    1
    22    15    16    1
    23    15    40    2
    24    16    17    2
    25    34    31    1
    26    32    31    1
    27    32    42    2
    28    40    43    1
    29    40    18    1
    30    17    20    1
    31    17    18    1
    32    31    30    2
    33    43    42    1
    34    43    41    1
    35    42    29    1
    36    20    21    1
    37    18     3    2
    38    30    29    1
    39    30    33    1
    40    29     4    2
    41     3    22    1
    42    41    22   ar
    43    41    25   ar
    44    22    23   ar
    45     4    25    1
    46    25    24   ar
    47    28    27    2
    48    23    24   ar
    49    23    26    1
    50    24    27    1
