@<TRIPOS>MOLECULE
1ffu_CDP_B_1.pdb
 25 26 0 0 0
SMALL
GASTEIGER

@<TRIPOS>ATOM
      1  O3B       13.3540   92.3320   87.4670 O.3   1920  CDP1920    -0.1143
      2  PB        13.3690   93.0820   86.0790 P.3   1920  CDP1920     0.5373
      3  O1B       14.4470   94.2240   85.9200 O.3   1920  CDP1920    -0.1143
      4  O2B       12.6390   92.1250   85.0530 O.2   1920  CDP1920    -0.2221
      5  O3A       12.0670   93.9120   86.3910 O.3   1920  CDP1920    -0.2261
      6  PA        10.8820   94.5990   85.4930 P.3   1920  CDP1920     0.2231
      7  O1A       11.4900   95.5950   84.4270 O.2   1920  CDP1920    -0.5169
      8  O2A       10.0470   95.4880   86.3990 O.3   1920  CDP1920    -0.4370
      9  O5'        9.9550   93.5300   84.7630 O.3   1920  CDP1920    -0.3111
     10  C5'        9.7370   92.3180   85.5500 C.3   1920  CDP1920     0.1813
     11  C4'        8.8330   91.6090   84.4790 C.3   1920  CDP1920     0.1799
     12  O4'        7.5730   92.2750   84.3150 O.3   1920  CDP1920    -0.3320
     13  C3'        9.6600   91.5090   83.1390 C.3   1920  CDP1920     0.2158
     14  O3'        9.3840   90.3450   82.4370 O.3   1920  CDP1920    -0.2175
     15  C2'        8.5270   92.2520   82.3830 C.3   1920  CDP1920     0.2319
     16  O2'        8.6920   92.5140   80.9840 O.3   1920  CDP1920    -0.2157
     17  C1'        7.2280   92.7360   83.0060 C.3   1920  CDP1920     0.2400
     18  N1         6.7860   94.0720   82.7840 N.am  1920  CDP1920    -0.1778
     19  C2         5.7170   94.2420   81.9510 C.1   1920  CDP1920     0.2756
     20  O2         5.0900   93.3300   81.3580 O.2   1920  CDP1920    -0.1925
     21  N3         5.3060   95.5150   81.7090 N.2   1920  CDP1920    -0.3024
     22  C4         5.8580   96.6200   82.2660 C.2   1920  CDP1920     0.2346
     23  N4         5.4510   97.8400   82.0280 N.pl3 1920  CDP1920    -0.0921
     24  C5         7.0230   96.3390   83.1710 C.2   1920  CDP1920     0.0687
     25  C6         7.4320   95.0740   83.4110 C.2   1920  CDP1920     0.0836
@<TRIPOS>BOND
     1    16    15    1
     2    20    19    2
     3    21    19    2
     4    21    22    2
     5    19    18   am
     6    23    22    1
     7    22    24    1
     8    15    17    1
     9    15    13    1
    10    14    13    1
    11    18    17    1
    12    18    25    1
    13    17    12    1
    14    13    11    1
    15    24    25    2
    16    12    11    1
    17     7     6    2
    18    11    10    1
    19     9     6    1
    20     9    10    1
    21     4     2    2
    22     6     5    1
    23     6     8    1
    24     3     2    1
    25     2     5    1
    26     2     1    1
