@<TRIPOS>MOLECULE
1ffv_PCD_B_1.pdb
 48 53 0 0 0
SMALL
GASTEIGER

@<TRIPOS>ATOM
      1  N1         6.5930   94.0080   82.9710 N.am  1920  PCD1920     0.0000
      2  C2         5.4990   94.2670   82.1520 C.1   1920  PCD1920     0.0000
      3  N3         5.0370   95.5370   81.9210 N.2   1920  PCD1920     0.0000
      4  C4         5.6930   96.5820   82.5480 C.2   1920  PCD1920     0.0000
      5  C5         6.8060   96.3200   83.4100 C.2   1920  PCD1920     0.0000
      6  C6         7.2340   95.1070   83.6090 C.2   1920  PCD1920     0.0000
      7  O2         4.9270   93.3000   81.5960 O.2   1920  PCD1920     0.0000
      8  N4         5.2620   97.7950   82.3320 N.pl3 1920  PCD1920     0.0000
      9  C1'        7.1650   92.7050   83.0730 C.3   1920  PCD1920     0.0000
     10  C2D        8.5730   92.6760   82.4430 C.3   1920  PCD1920     0.0000
     11  O2'        8.4290   92.5210   81.0250 O.3   1920  PCD1920     0.0000
     12  C3'        9.2670   91.5660   83.2000 C.3   1920  PCD1920     0.0000
     13  C4D        8.6360   91.6520   84.6000 C.3   1920  PCD1920     0.0000
     14  O4D        7.3550   92.3630   84.4140 O.3   1920  PCD1920     0.0000
     15  O3'        8.9120   90.3000   82.5350 O.3   1920  PCD1920     0.0000
     16  C5'        9.4830   92.4580   85.5830 C.3   1920  PCD1920     0.0000
     17  O5'        9.9250   93.6850   84.9380 O.3   1920  PCD1920     0.0000
     18  PA        10.7300   94.8250   85.6800 P.3   1920  PCD1920     0.0000
     19  O1A       11.3610   95.6030   84.6010 O.2   1920  PCD1920    -0.5000
     20  O2A        9.8040   95.5100   86.5840 O.3   1920  PCD1920    -0.5000
     21  O3A       11.7700   94.1180   86.6130 O.3   1920  PCD1920     0.0000
     22  PB        13.0500   93.2110   86.2930 P.3   1920  PCD1920     0.0000
     23  O1B       14.2190   94.0630   86.0870 O.3   1920  PCD1920    -0.5000
     24  O2B       12.6860   92.3580   85.1900 O.2   1920  PCD1920    -0.5000
     25  O3B       13.1490   92.3220   87.5760 O.3   1920  PCD1920     0.0000
     26  C10       13.9870   92.5420   88.7210 C.3   1920  PCD1920     0.0000
     27  C9'       13.1700   92.7240   89.9320 C.3   1920  PCD1920     0.0000
     28  C8'       14.0130   92.9150   91.1800 C.2   1920  PCD1920     0.0000
     29  S8'       15.1080   94.2670   91.1540 S.3   1920  PCD1920     0.0000
     30  C7'       13.9570   92.1220   92.2400 C.2   1920  PCD1920     0.0000
     31  S7'       14.9600   92.3780   93.6540 S.3   1920  PCD1920     0.0000
     32  C6'       13.0250   90.9820   92.2540 C.3   1920  PCD1920     0.0000
     33  C7        11.8330   91.2280   91.3570 C.3   1920  PCD1920     0.0000
     34  O9'       12.3370   91.5310   90.0340 O.3   1920  PCD1920     0.0000
     35  N5'       13.7520   89.7180   91.9460 N.2   1920  PCD1920     0.0000
     36  C4A       12.9430   88.6690   91.4530 C.2   1920  PCD1920     0.0000
     37  N8'       11.0040   90.0490   91.3610 N.2   1920  PCD1920     0.0000
     38  C4B       11.5740   88.8550   91.1750 C.1   1920  PCD1920     0.0000
     39  N1'       10.7740   87.8650   90.7090 N.2   1920  PCD1920     0.0000
     40  C2'       11.2870   86.6800   90.5070 C.1   1920  PCD1920     0.0000
     41  N2'       10.5490   85.6700   90.0530 N.pl3 1920  PCD1920     0.0000
     42  N3'       12.6220   86.4510   90.7530 N.2   1920  PCD1920     0.0000
     43  C4'       13.4800   87.4550   91.2340 C.1   1920  PCD1920     0.0000
     44  O4'       14.6740   87.1590   91.4330 O.2   1920  PCD1920     0.0000
     45 MO         16.7550   93.7040   93.0540 Mo    1920  PCD1920     0.0000
     46  OR1       17.1050   93.9670   95.3380 O.3   1920  PCD1920     0.0000
     47  OM2       17.3920   95.4620   92.7870 O.3   1920  PCD1920     0.0000
     48  OM1       17.8380   92.6490   92.4300 O.3   1920  PCD1920     0.0000
@<TRIPOS>BOND
     1    11    10    1
     2     7     2    2
     3     3     2    2
     4     3     4    2
     5     2     1   am
     6     8     4    1
     7    10     9    1
     8    10    12    1
     9    15    12    1
    10     4     5    1
    11     1     9    1
    12     1     6    1
    13     9    14    1
    14    12    13    1
    15     5     6    2
    16    14    13    1
    17    13    16    1
    18    19    18    2
    19    17    16    1
    20    17    18    1
    21    24    22    2
    22    18    20    1
    23    18    21    1
    24    23    22    1
    25    22    21    1
    26    22    25    1
    27    25    26    1
    28    26    27    1
    29    27    34    1
    30    27    28    1
    31    34    33    1
    32    41    40    1
    33    40    39    2
    34    40    42    2
    35    39    38    2
    36    42    43    2
    37    29    28    1
    38    29    45    1
    39    38    37    2
    40    38    36    1
    41    28    30    2
    42    43    44    2
    43    43    36    1
    44    33    37    1
    45    33    32    1
    46    36    35    2
    47    35    32    1
    48    30    32    1
    49    30    31    1
    50    48    45    1
    51    47    45    1
    52    45    31    1
    53    45    46    1
