@<TRIPOS>MOLECULE
1ffx_GTP_A_1.pdb
 32 34 0 0 0
SMALL
GASTEIGER

@<TRIPOS>ATOM
      1  PG        19.9200  152.8350  -15.7370 P.3   500  GTP500      0.5373
      2  O1G       19.0460  152.4210  -14.5280 O.3   500  GTP500     -0.1143
      3  O2G       19.4160  152.1550  -17.0110 O.2   500  GTP500     -0.2221
      4  O3G       21.3710  152.3860  -15.5570 O.3   500  GTP500     -0.1143
      5  O3B       19.8730  154.5220  -15.9040 O.3   500  GTP500     -0.2258
      6  PB        20.2870  155.7070  -14.8170 P.3   500  GTP500      0.2277
      7  O1B       19.4230  156.8880  -14.8600 O.3   500  GTP500     -0.4368
      8  O2B       21.7880  155.8880  -14.9240 O.2   500  GTP500     -0.5168
      9  O3A       19.9880  154.9510  -13.5600 O.3   500  GTP500     -0.2700
     10  PA        19.0740  155.1940  -12.4230 P.3   500  GTP500      0.2189
     11  O1A       19.1270  154.0680  -11.4120 O.3   500  GTP500     -0.4371
     12  O2A       17.7920  155.6790  -12.8990 O.2   500  GTP500     -0.5170
     13  O5'       20.0190  156.3120  -11.7470 O.3   500  GTP500     -0.3112
     14  C5'       19.5620  156.8440  -10.5850 C.3   500  GTP500      0.1813
     15  C4'       20.4900  157.8270  -10.0280 C.3   500  GTP500      0.1799
     16  O4'       19.8500  159.0980  -10.1670 O.3   500  GTP500     -0.3326
     17  C3'       20.6400  157.6200   -8.5640 C.3   500  GTP500      0.2158
     18  O3'       21.7930  158.3060   -8.1430 O.3   500  GTP500     -0.2175
     19  C2'       19.3530  158.2170   -8.0270 C.3   500  GTP500      0.2310
     20  O2'       19.5170  158.6240   -6.6800 O.3   500  GTP500     -0.2158
     21  C1'       19.1370  159.3950   -8.9760 C.3   500  GTP500      0.2293
     22  N9        17.7470  159.6550   -9.3730 N.pl3 500  GTP500     -0.2354
     23  C8        16.7120  158.7660   -9.5310 C.3   500  GTP500      0.2246
     24  N7        15.5900  159.3230   -9.8960 N.2   500  GTP500     -0.2322
     25  C5        15.8950  160.6480   -9.9850 C.2   500  GTP500      0.2182
     26  C6        15.1180  161.7630  -10.3290 C.1   500  GTP500      0.2372
     27  O6        13.9320  161.7780  -10.6360 O.2   500  GTP500     -0.2069
     28  N1        15.8440  162.9720  -10.2950 N.2   500  GTP500     -0.2485
     29  C2        17.1920  163.0850   -9.9600 C.1   500  GTP500      0.2531
     30  N2        17.7320  164.2740   -9.9720 N.pl3 500  GTP500     -0.0226
     31  N3        17.9260  162.0490   -9.6340 N.2   500  GTP500     -0.3074
     32  C4        17.2400  160.8660   -9.6640 C.2   500  GTP500      0.2300
@<TRIPOS>BOND
     1     3     1    2
     2     5     1    1
     3     5     6    1
     4     1     4    1
     5     1     2    1
     6     8     6    2
     7     7     6    1
     8     6     9    1
     9     9    10    1
    10    12    10    2
    11    10    13    1
    12    10    11    1
    13    13    14    1
    14    27    26    2
    15    14    15    1
    16    26    28    2
    17    26    25    1
    18    28    29    2
    19    16    15    1
    20    16    21    1
    21    15    17    1
    22    25    24    2
    23    25    32    1
    24    30    29    1
    25    29    31    2
    26    24    23    1
    27    32    31    2
    28    32    22    1
    29    23    22    1
    30    22    21    1
    31    21    19    1
    32    17    18    1
    33    17    19    1
    34    19    20    1
