@<TRIPOS>MOLECULE
1ffx_GDP_B_1.pdb
 28 30 0 0 0
SMALL
GASTEIGER

@<TRIPOS>ATOM
      1  PB        16.8410  115.0950   -2.8290 P.3   501  GDP501      0.5373
      2  O1B       16.1030  113.8270   -2.3830 O.3   501  GDP501     -0.1143
      3  O2B       17.6460  114.8390   -4.1040 O.2   501  GDP501     -0.2221
      4  O3B       15.8450  116.2200   -3.1260 O.3   501  GDP501     -0.1143
      5  O3A       17.8340  115.4990   -1.5960 O.3   501  GDP501     -0.2261
      6  PA        17.4860  115.8420   -0.1610 P.3   501  GDP501      0.2231
      7  O1A       16.8390  117.1850   -0.1510 O.2   501  GDP501     -0.5169
      8  O2A       16.8550  114.7350    0.5380 O.3   501  GDP501     -0.4370
      9  O5'       19.0110  116.0970    0.3490 O.3   501  GDP501     -0.3111
     10  C5'       19.4850  117.3000    0.9470 C.3   501  GDP501      0.1813
     11  C4'       18.8100  117.5060    2.2860 C.3   501  GDP501      0.1799
     12  O4'       17.4650  117.9580    2.0900 O.3   501  GDP501     -0.3326
     13  C3'       18.6660  116.2480    3.1250 C.3   501  GDP501      0.2158
     14  O3'       19.6800  116.2560    4.0950 O.3   501  GDP501     -0.2175
     15  C2'       17.2750  116.3990    3.7250 C.3   501  GDP501      0.2310
     16  O2'       17.3400  116.3710    5.1280 O.3   501  GDP501     -0.2158
     17  C1'       16.8570  117.7570    3.2990 C.3   501  GDP501      0.2293
     18  N9        15.4240  117.9450    3.1740 N.pl3 501  GDP501     -0.2354
     19  C8        14.4480  116.9950    2.9610 C.3   501  GDP501      0.2246
     20  N7        13.2310  117.4920    2.9090 N.2   501  GDP501     -0.2322
     21  C5        13.4170  118.8470    3.1000 C.2   501  GDP501      0.2182
     22  C6        12.5010  119.9340    3.1630 C.1   501  GDP501      0.2372
     23  O6        11.2540  119.8960    3.0530 O.2   501  GDP501     -0.2069
     24  N1        13.1630  121.1830    3.3830 N.2   501  GDP501     -0.2485
     25  C2        14.5490  121.3560    3.5270 C.1   501  GDP501      0.2531
     26  N2        14.9980  122.5620    3.7240 N.pl3 501  GDP501     -0.0226
     27  N3        15.3970  120.3560    3.4750 N.2   501  GDP501     -0.3074
     28  C4        14.7930  119.1360    3.2630 C.2   501  GDP501      0.2300
@<TRIPOS>BOND
     1     3     1    2
     2     4     1    1
     3     1     2    1
     4     1     5    1
     5     5     6    1
     6     6     7    2
     7     6     9    1
     8     6     8    1
     9     9    10    1
    10    10    11    1
    11    12    11    1
    12    12    17    1
    13    11    13    1
    14    20    19    1
    15    20    21    2
    16    19    18    1
    17    23    22    2
    18    21    22    1
    19    21    28    1
    20    13    15    1
    21    13    14    1
    22    22    24    2
    23    18    28    1
    24    18    17    1
    25    28    27    2
    26    17    15    1
    27    24    25    2
    28    27    25    2
    29    25    26    1
    30    15    16    1
