@<TRIPOS>MOLECULE
1ffy_MRC_A_1.pdb
 35 36 0 0 0
SMALL
GASTEIGER

@<TRIPOS>ATOM
      1  C1        30.9940   82.7690   82.1390 C.2   1993  MRC1993     0.3408
      2  C2        29.9490   82.3820   81.2800 C.2   1993  MRC1993     0.0735
      3  C3        28.8090   83.0900   80.8750 C.2   1993  MRC1993    -0.0350
      4  C4        27.7940   82.5110   79.8860 C.3   1993  MRC1993     0.0545
      5  C5        26.2680   82.3600   79.9650 C.3   1993  MRC1993     0.1520
      6  C6        25.2560   81.8320   78.9110 C.3   1993  MRC1993     0.2093
      7  C7        23.8320   81.8670   79.5560 C.3   1993  MRC1993     0.1870
      8  C8        23.7580   81.0560   80.9270 C.3   1993  MRC1993     0.0652
      9  C9        23.8200   79.4670   80.4190 C.3   1993  MRC1993     0.0372
     10  C10       22.8330   78.6100   79.5500 C.3   1993  MRC1993     0.1424
     11  C11       22.9990   78.5930   78.1930 C.3   1993  MRC1993     0.1445
     12  C12       21.7330   78.8390   77.3050 C.3   1993  MRC1993     0.0600
     13  C13       21.7790   78.0520   75.8210 C.3   1993  MRC1993     0.1544
     14  C14       20.3230   77.6620   75.5370 C.3   1993  MRC1993     0.0356
     15  C15       28.4560   84.5230   81.3480 C.3   1993  MRC1993     0.0267
     16  C16       24.8990   81.6340   81.8140 C.3   1993  MRC1993     0.1448
     17  C1'       38.5610   75.4010   83.1880 C.2   1993  MRC1993     0.3649
     18  O1P       39.3670   74.7050   83.8410 O.co2 1993  MRC1993    -0.2457
     19  O1Q       38.9630   76.0340   82.1850 O.co2 1993  MRC1993    -0.2457
     20  C2'       37.0740   75.4800   83.6150 C.3   1993  MRC1993     0.1141
     21  C3'       36.9150   75.9970   85.0710 C.3   1993  MRC1993     0.0118
     22  C4'       35.5130   76.5880   85.3230 C.3   1993  MRC1993     0.0006
     23  C5'       35.4430   78.0680   84.8970 C.3   1993  MRC1993     0.0000
     24  C6'       34.0330   78.6310   85.1670 C.3   1993  MRC1993     0.0001
     25  C7'       33.4900   79.3560   83.9290 C.3   1993  MRC1993     0.0038
     26  C8'       33.4540   80.8860   84.1510 C.3   1993  MRC1993     0.0475
     27  C9'       32.0820   81.5190   83.8030 C.3   1993  MRC1993     0.2088
     28  O1A       32.0560   81.8800   82.4130 O.3   1993  MRC1993    -0.4454
     29  O1B       31.0440   83.8850   82.6670 O.2   1993  MRC1993    -0.2449
     30  O5        26.2090   81.6250   81.1830 O.3   1993  MRC1993    -0.3531
     31  O7        23.5030   83.2240   79.7350 O.3   1993  MRC1993    -0.2202
     32  O6        25.3990   82.7870   77.8210 O.3   1993  MRC1993    -0.2178
     33  O10       22.8680   77.3840   78.9810 O.3   1993  MRC1993    -0.3537
     34  C17       21.3950   80.4050   77.0270 C.3   1993  MRC1993     0.0052
     35  O13       22.5240   76.8680   75.9870 O.3   1993  MRC1993    -0.2231
@<TRIPOS>BOND
     1    14    13    1
     2    13    35    1
     3    13    12    1
     4    34    12    1
     5    12    11    1
     6    32     6    1
     7    11    33    1
     8    11    10    1
     9     6     7    1
    10     6     5    1
    11    33    10    1
    12    10     9    1
    13     7    31    1
    14     7     8    1
    15     4     5    1
    16     4     3    1
    17     5    30    1
    18     9     8    1
    19     3     2    2
    20     3    15    1
    21     8    16    1
    22    30    16    1
    23     2     1    1
    24     1    28    1
    25     1    29    2
    26    19    17   ar
    27    28    27    1
    28    17    20    1
    29    17    18   ar
    30    20    21    1
    31    27    26    1
    32    25    26    1
    33    25    24    1
    34    23    24    1
    35    23    22    1
    36    21    22    1
