@<TRIPOS>MOLECULE
1fg3_HSA_A_1.pdb
 14 14 0 0 0
SMALL
GASTEIGER

@<TRIPOS>ATOM
      1  CB        53.4820   52.2890   -8.1460 C.3   501  HSA501      0.0650
      2  CG        54.5750   51.3690   -7.6900 C.2   501  HSA501      0.0646
      3  CD2       55.4260   51.5390   -6.6470 C.3   501  HSA501      0.1682
      4  ND1       54.8900   50.1720   -8.2820 N.2   501  HSA501     -0.2310
      5  CE1       55.8960   49.6200   -7.6250 C.2   501  HSA501      0.1939
      6  NE2       56.2440   50.4300   -6.6250 N.2   501  HSA501     -0.2440
      7  C         51.1120   52.7650   -8.2180 C.3   501  HSA501      0.1730
      8  OP4       50.1770   51.6900   -8.2340 O.3   501  HSA501     -0.2687
      9  P         50.2030   50.4810   -9.4310 P.3   501  HSA501      0.5326
     10  OP1       50.2130   51.2330  -10.9340 O.2   501  HSA501     -0.2224
     11  OP2       48.8400   49.4970   -9.2360 O.3   501  HSA501     -0.1145
     12  OP3       51.5780   49.5460   -9.2610 O.3   501  HSA501     -0.1145
     13  N         52.2520   51.7500   -6.2390 N.3   501  HSA501     -0.1298
     14  CA        52.4790   52.6990   -7.2950 C.3   501  HSA501      0.1275
@<TRIPOS>BOND
     1    10     9    2
     2     9    12    1
     3     9    11    1
     4     9     8    1
     5     4     2    2
     6     4     5    1
     7     8     7    1
     8     7    14    1
     9     1     2    1
    10     1    14    1
    11     2     3    1
    12     5     6    2
    13    14    13    1
    14     3     6    1
