@<TRIPOS>MOLECULE
1fg3_PLP_A_1.pdb
 15 15 0 0 0
SMALL
GASTEIGER

@<TRIPOS>ATOM
      1  N1        50.6520   49.0050   -2.1480 N.ar  500  PLP500     -0.2452
      2  C2        49.7530   49.4130   -3.1750 C.ar  500  PLP500      0.0978
      3  C2A       48.4080   48.7410   -3.2350 C.3   500  PLP500      0.0555
      4  C3        50.1110   50.4330   -4.1200 C.ar  500  PLP500      0.2049
      5  O3        49.2410   50.8150   -5.0920 O.3   500  PLP500     -0.2857
      6  C4        51.4320   51.0430   -4.0010 C.ar  500  PLP500      0.0182
      7  C4A       51.8880   52.1730   -4.9980 C.3   500  PLP500      0.0342
      8  C5        52.3850   50.5440   -2.8510 C.ar  500  PLP500      0.0261
      9  C6        51.9270   49.5330   -1.9700 C.ar  500  PLP500      0.0965
     10  C5A       53.7950   51.0930   -2.6280 C.3   500  PLP500      0.1815
     11  O4P       53.7450   52.2630   -2.2910 O.3   500  PLP500     -0.2653
     12  P         55.2790   52.9390   -2.0310 P.3   500  PLP500      0.5329
     13  O1P       56.5230   51.7710   -2.2040 O.3   500  PLP500     -0.1145
     14  O2P       55.3260   53.5720   -0.4640 O.3   500  PLP500     -0.1145
     15  O3P       55.5420   54.1910   -3.1520 O.2   500  PLP500     -0.2224
@<TRIPOS>BOND
     1     5     4    1
     2     7     6    1
     3     4     6   ar
     4     4     2   ar
     5     6     8   ar
     6     3     2    1
     7     2     1   ar
     8    15    12    2
     9     8    10    1
    10     8     9   ar
    11    10    11    1
    12    11    12    1
    13    13    12    1
    14     1     9   ar
    15    12    14    1
