@<TRIPOS>MOLECULE
1fg7_PMP_A_1.pdb
 16 16 0 0 0
SMALL
GASTEIGER

@<TRIPOS>ATOM
      1  N1        50.5000   48.9340   -2.0480 N.ar  357  PMP357     -0.2452
      2  C2        49.6860   49.3170   -3.1300 C.ar  357  PMP357      0.0978
      3  C2A       48.3060   48.6810   -3.2280 C.3   357  PMP357      0.0555
      4  C3        50.1190   50.2550   -4.0640 C.ar  357  PMP357      0.2063
      5  O3        49.2840   50.6140   -5.1120 O.3   357  PMP357     -0.2856
      6  C4        51.4050   50.8320   -3.9100 C.ar  357  PMP357      0.0369
      7  C4A       51.8690   51.8780   -4.9380 C.3   357  PMP357      0.1386
      8  N4A       51.2940   51.6970   -6.2750 N.3   357  PMP357     -0.1261
      9  C5        52.2480   50.3880   -2.7270 C.ar  357  PMP357      0.0275
     10  C6        51.7500   49.4400   -1.8310 C.ar  357  PMP357      0.0965
     11  C5A       53.6380   50.9740   -2.5200 C.3   357  PMP357      0.1816
     12  O4P       53.5310   51.9710   -2.0620 O.3   357  PMP357     -0.2653
     13  P         55.0230   52.7050   -2.0020 P.3   357  PMP357      0.5329
     14  O1P       56.6400   51.6910   -2.0500 O.3   357  PMP357     -0.1145
     15  O2P       54.9800   53.4000   -0.2020 O.3   357  PMP357     -0.1145
     16  O3P       55.1730   54.0900   -3.1760 O.2   357  PMP357     -0.2224
@<TRIPOS>BOND
     1     8     7    1
     2     5     4    1
     3     7     6    1
     4     4     6   ar
     5     4     2   ar
     6     6     9   ar
     7     3     2    1
     8    16    13    2
     9     2     1   ar
    10     9    11    1
    11     9    10   ar
    12    11    12    1
    13    12    13    1
    14    14    13    1
    15     1    10   ar
    16    13    15    1
