@<TRIPOS>MOLECULE
1fgg_GAL_A_1.pdb
 11 11 0 0 0
SMALL
GASTEIGER

@<TRIPOS>ATOM
      1  C1        27.5380    6.9370    9.3260 C.3     1  GAL1        0.1777
      2  C2        26.6020    5.7180    9.4650 C.3     1  GAL1        0.2141
      3  C3        25.4570    5.7380    8.4450 C.3     1  GAL1        0.2173
      4  C4        24.7690    7.1020    8.4410 C.3     1  GAL1        0.2142
      5  C5        25.8190    8.1920    8.2200 C.3     1  GAL1        0.1810
      6  C6        25.2180    9.5820    8.1890 C.3     1  GAL1        0.2141
      7  O2        27.3510    4.5220    9.2970 O.3     1  GAL1       -0.2176
      8  O3        24.5100    4.7290    8.7760 O.3     1  GAL1       -0.2175
      9  O4        24.1120    7.3110    9.6840 O.3     1  GAL1       -0.2176
     10  O5        26.7830    8.1610    9.2900 O.3     1  GAL1       -0.3481
     11  O6        24.1540    9.6480    7.2510 O.3     1  GAL1       -0.2176
@<TRIPOS>BOND
     1    11     6    1
     2     6     5    1
     3     5     4    1
     4     5    10    1
     5     4     3    1
     6     4     9    1
     7     3     8    1
     8     3     2    1
     9    10     1    1
    10     7     2    1
    11     1     2    1
