@<TRIPOS>MOLECULE
1fgg_UDP_A_1.pdb
 25 26 0 0 0
SMALL
GASTEIGER

@<TRIPOS>ATOM
      1  N1        22.8950   -4.9070   16.1600 N.am  337  UDP337     -0.1766
      2  C2        22.8180   -6.2980   15.9700 C.1   337  UDP337      0.2845
      3  N3        23.9930   -6.9800   16.2250 N.2   337  UDP337     -0.2452
      4  C4        25.2180   -6.4240   16.6450 C.1   337  UDP337      0.2182
      5  C5        25.2130   -4.9930   16.8090 C.2   337  UDP337      0.1242
      6  C6        24.1060   -4.2990   16.5750 C.2   337  UDP337      0.0929
      7  O2        21.7560   -6.7980   15.6140 O.2   337  UDP337     -0.1918
      8  O4        26.1730   -7.1450   16.8410 O.2   337  UDP337     -0.2085
      9  C1'       21.6490   -4.1470   15.9210 C.3   337  UDP337      0.2401
     10  C2'       21.1700   -3.1150   16.8930 C.3   337  UDP337      0.2319
     11  O2'       20.2500   -3.6310   17.8900 O.3   337  UDP337     -0.2157
     12  C3'       20.5750   -2.0300   15.9920 C.3   337  UDP337      0.2158
     13  C4'       21.2800   -2.1760   14.6440 C.3   337  UDP337      0.1799
     14  O4'       21.7200   -3.5630   14.6330 O.3   337  UDP337     -0.3320
     15  O3'       19.1700   -2.2220   15.8280 O.3   337  UDP337     -0.2175
     16  C5'       22.4010   -1.1600   14.4470 C.3   337  UDP337      0.1813
     17  O5'       23.4160   -1.0130   15.4600 O.3   337  UDP337     -0.3111
     18  PA        23.6170    0.3180   16.3070 P.3   337  UDP337      0.2231
     19  O1A       24.5480    0.0550   17.4110 O.3   337  UDP337     -0.4370
     20  O2A       22.3440    0.9530   16.7860 O.2   337  UDP337     -0.5169
     21  O3A       24.2390    1.2660   15.1020 O.3   337  UDP337     -0.2261
     22  PB        24.6570    2.7630   15.1910 P.3   337  UDP337      0.5373
     23  O1B       24.4120    3.1590   13.6650 O.2   337  UDP337     -0.2221
     24  O2B       26.1090    2.7740   15.5170 O.3   337  UDP337     -0.1143
     25  O3B       23.9860    3.4090   16.3660 O.3   337  UDP337     -0.1143
@<TRIPOS>BOND
     1    23    22    2
     2    16    13    1
     3    16    17    1
     4    14    13    1
     5    14     9    1
     6    13    12    1
     7    21    22    1
     8    21    18    1
     9    22    24    1
    10    22    25    1
    11    17    18    1
    12     7     2    2
    13    15    12    1
    14     9     1    1
    15     9    10    1
    16     2     1   am
    17     2     3    2
    18    12    10    1
    19     1     6    1
    20     3     4    2
    21    18    20    2
    22    18    19    1
    23     6     5    2
    24     4     5    1
    25     4     8    2
    26    10    11    1
