@<TRIPOS>MOLECULE
1fgh_ATH_A_1.pdb
 15 14 0 0 0
SMALL
GASTEIGER

@<TRIPOS>ATOM
      1  C1        38.1350   34.7870   73.1850 C.2   755  ATH755      0.3801
      2  C2        36.7570   34.3560   73.3810 C.2   755  ATH755      0.0399
      3  C3        35.9570   33.8910   72.4220 C.2   755  ATH755      0.0901
      4  C4        36.3440   33.6810   70.9240 C.3   755  ATH755      0.2258
      5  C5        35.4850   34.5410   70.0170 C.2   755  ATH755      0.3921
      6  C6        34.5090   33.5860   72.8040 C.2   755  ATH755      0.3860
      7  O1        38.2590   35.9590   72.7390 O.co2 755  ATH755     -0.2412
      8  O2        39.1440   34.0230   73.2900 O.co2 755  ATH755     -0.2412
      9  O3        35.3820   35.7660   70.2270 O.co2 755  ATH755     -0.2429
     10  O4        34.9050   33.9780   69.0640 O.co2 755  ATH755     -0.2429
     11  O5        33.6320   33.4240   71.9430 O.co2 755  ATH755     -0.2408
     12  O6        34.2180   33.4420   74.0060 O.co2 755  ATH755     -0.2408
     13  OH        36.3940   32.2810   70.6280 O.3   755  ATH755     -0.2136
     14  H2        36.3330   34.3990   74.3190 H     755  ATH755      0.0696
     15  H4        37.3290   33.9830   70.8060 H     755  ATH755      0.0801
@<TRIPOS>BOND
     1    10     5   ar
     2     5     9   ar
     3     5     4    1
     4    13     4    1
     5    15     4    1
     6     4     3    1
     7    11     6   ar
     8     3     6    1
     9     3     2    2
    10     7     1   ar
    11     6    12   ar
    12     1     8   ar
    13     1     2    1
    14     2    14    1
