@<TRIPOS>MOLECULE
1fgi_SU1_A_1.pdb
 22 24 0 0 0
SMALL
GASTEIGER

@<TRIPOS>ATOM
      1  N1         5.7320    2.1500   20.4400 N.2   1001  SU11001    -0.3331
      2  C2         6.5130    2.4730   21.5170 C.1   1001  SU11001     0.2010
      3  O2         6.4480    1.8200   22.5560 O.2   1001  SU11001    -0.2096
      4  C3         7.3090    3.5360   21.2270 C.2   1001  SU11001     0.0805
      5  C4         7.4410    4.9330   19.0220 C.ar  1001  SU11001     0.0030
      6  C5         6.8970    5.0140   17.7340 C.ar  1001  SU11001     0.0002
      7  C6         5.9110    4.0990   17.3010 C.ar  1001  SU11001     0.0027
      8  C7         5.4480    3.1030   18.1220 C.ar  1001  SU11001     0.0330
      9  C8         5.9940    3.0250   19.4180 C.ar  1001  SU11001     0.1448
     10  C9         6.9850    3.9220   19.8820 C.ar  1001  SU11001     0.0388
     11  C10        8.3610    4.1930   22.1030 C.3   1001  SU11001     0.0808
     12  N1'        8.4470    2.6740   24.1080 N.2   1001  SU11001    -0.2524
     13  C2'        8.9240    3.7030   23.4050 C.2   1001  SU11001     0.0454
     14  C3'        9.9880    4.2570   24.0490 C.3   1001  SU11001     0.0567
     15  C4'       10.1990    3.5000   25.1750 C.2   1001  SU11001    -0.0199
     16  C5'        9.2110    2.5460   25.1870 C.2   1001  SU11001     0.0899
     17  C11       11.2890    3.7210   26.2330 C.3   1001  SU11001     0.0283
     18  C12       10.8120    5.4240   23.5350 C.3   1001  SU11001     0.0215
     19  C13       11.7120    4.9870   22.4300 C.3   1001  SU11001     0.1148
     20  C14       12.4730    6.1130   21.7160 C.2   1001  SU11001     0.3649
     21  O3        11.9370    7.2490   21.5710 O.co2 1001  SU11001    -0.2457
     22  O4        13.6100    5.8150   21.2600 O.co2 1001  SU11001    -0.2457
@<TRIPOS>BOND
     1     7     6   ar
     2     7     8   ar
     3     6     5   ar
     4     8     9   ar
     5     5    10   ar
     6     9    10   ar
     7     9     1    2
     8    10     4    2
     9     1     2    2
    10     4     2    1
    11     4    11    1
    12    22    20   ar
    13     2     3    2
    14    21    20   ar
    15    20    19    1
    16    11    13    1
    17    19    18    1
    18    13    14    1
    19    13    12    2
    20    18    14    1
    21    14    15    1
    22    12    16    1
    23    15    16    2
    24    15    17    1
