@<TRIPOS>MOLECULE
1fgj_HEC_A_1.pdb
 43 50 0 0 0
SMALL
GASTEIGER

@<TRIPOS>ATOM
      1 FE         31.9300   17.3660   67.0400 Fe    550  HEC550      0.0000
      2  CHA       32.8370   14.2150   66.5230 C.2   550  HEC550      0.0000
      3  CHB       29.1330   16.4060   68.7830 C.2   550  HEC550      0.0000
      4  CHC       31.5440   20.5790   68.0200 C.2   550  HEC550      0.0000
      5  CHD       33.8010   18.4180   64.3260 C.2   550  HEC550      0.0000
      6  NA        31.2440   15.6360   67.6340 N.2   550  HEC550      0.0000
      7  C1A       31.8220   14.4090   67.4320 C.2   550  HEC550      0.0000
      8  C2A       31.0400   13.3300   68.0710 C.2   550  HEC550      0.0000
      9  C3A       29.9290   13.9610   68.6250 C.2   550  HEC550      0.0000
     10  C4A       30.0610   15.3820   68.3400 C.2   550  HEC550      0.0000
     11  CMA       28.8330   13.3420   69.4840 C.3   550  HEC550      0.0000
     12  CAA       31.5480   11.8760   68.2900 C.3   550  HEC550      0.0000
     13  CBA       31.0340   10.6630   67.5030 C.3   550  HEC550      0.0000
     14  CGA       29.6280   10.2170   67.9100 C.2   550  HEC550      0.0000
     15  O1A       28.8170    9.8730   67.0260 O.co2 550  HEC550      0.0000
     16  O2A       29.3330   10.1980   69.1220 O.co2 550  HEC550      0.0000
     17  NB        30.7050   18.2490   68.3270 N.ar  550  HEC550      0.0000
     18  C1B       29.5640   17.7540   68.9180 C.ar  550  HEC550      0.0000
     19  C2B       28.9080   18.7730   69.7000 C.ar  550  HEC550      0.0000
     20  C3B       29.6780   19.9100   69.6560 C.ar  550  HEC550      0.0000
     21  C4B       30.7880   19.5560   68.7750 C.ar  550  HEC550      0.0000
     22  CMB       27.5080   18.6140   70.2790 C.3   550  HEC550      0.0000
     23  CAB       29.4580   21.2970   70.3200 C.3   550  HEC550      0.0000
     24  CBB       28.6850   21.4570   71.6320 C.3   550  HEC550      0.0000
     25  NC        32.4220   19.1390   66.2020 N.2   550  HEC550      0.0000
     26  C1C       32.1180   20.4130   66.6650 C.2   550  HEC550      0.0000
     27  C2C       32.5690   21.4330   65.7370 C.2   550  HEC550      0.0000
     28  C3C       33.1420   20.7740   64.6990 C.2   550  HEC550      0.0000
     29  C4C       33.1180   19.3810   65.0150 C.2   550  HEC550      0.0000
     30  CMC       32.4060   22.9410   65.8990 C.3   550  HEC550      0.0000
     31  CAC       33.5950   21.3700   63.3860 C.3   550  HEC550      0.0000
     32  CBC       34.8400   22.2350   63.4640 C.3   550  HEC550      0.0000
     33  ND        33.0770   16.5090   65.7220 N.ar  550  HEC550      0.0000
     34  C1D       33.7750   17.0750   64.6430 C.ar  550  HEC550      0.0000
     35  C2D       34.4240   16.0600   63.8520 C.ar  550  HEC550      0.0000
     36  C3D       34.1500   14.9000   64.4680 C.ar  550  HEC550      0.0000
     37  C4D       33.3390   15.1700   65.6410 C.ar  550  HEC550      0.0000
     38  CMD       35.2260   16.2190   62.5800 C.3   550  HEC550      0.0000
     39  CAD       34.6910   13.5530   64.0910 C.3   550  HEC550      0.0000
     40  CBD       35.9340   13.2930   64.9210 C.3   550  HEC550      0.0000
     41  CGD       36.5140   11.9310   64.6600 C.2   550  HEC550      0.0000
     42  O1D       37.6270   11.8640   64.0910 O.co2 550  HEC550      0.0000
     43  O2D       35.8450   10.9290   65.0160 O.co2 550  HEC550      0.0000
@<TRIPOS>BOND
     1    38    35    1
     2    31    32    1
     3    31    28    1
     4    35    36   ar
     5    35    34   ar
     6    42    41   ar
     7    39    36    1
     8    39    40    1
     9     5    34    2
    10     5    29    1
    11    36    37   ar
    12    34    33   ar
    13    41    40    1
    14    41    43   ar
    15    28    29    1
    16    28    27    2
    17    29    25    2
    18    37    33   ar
    19    37     2    2
    20    33     1    1
    21    27    30    1
    22    27    26    1
    23    25    26    1
    24    25     1    1
    25     2     7    1
    26    26     4    2
    27    15    14   ar
    28     1     6    1
    29     1    17    1
    30     7     6    2
    31     7     8    1
    32    13    14    1
    33    13    12    1
    34     6    10    1
    35    14    16   ar
    36     4    21    1
    37     8    12    1
    38     8     9    2
    39    17    21   ar
    40    17    18   ar
    41    10     9    1
    42    10     3    2
    43     9    11    1
    44    21    20   ar
    45     3    18    1
    46    18    19   ar
    47    20    19   ar
    48    20    23    1
    49    19    22    1
    50    23    24    1
