@<TRIPOS>MOLECULE
1fgj_HEM_A_1.pdb
 43 50 0 0 0
SMALL
GASTEIGER

@<TRIPOS>ATOM
      1  CHA       14.1880   33.1840   47.6550 C.2   547  HEM547      0.0000
      2  CHB       13.9620   29.3840   44.6970 C.2   547  HEM547      0.0000
      3  CHC       11.2190   31.9400   41.6860 C.2   547  HEM547      0.0000
      4  CHD       12.3350   35.9120   44.1380 C.2   547  HEM547      0.0000
      5  C1A       14.1920   31.8780   47.1980 C.2   547  HEM547      0.0000
      6  C2A       14.8300   30.7660   47.8630 C.2   547  HEM547      0.0000
      7  C3A       14.8460   29.7300   47.0230 C.2   547  HEM547      0.0000
      8  C4A       14.1910   30.1880   45.8130 C.2   547  HEM547      0.0000
      9  CMA       15.4180   28.3560   47.3120 C.3   547  HEM547      0.0000
     10  CAA       15.3960   30.7210   49.2650 C.3   547  HEM547      0.0000
     11  CBA       14.2960   30.7690   50.3150 C.3   547  HEM547      0.0000
     12  CGA       14.8290   30.8970   51.7200 C.2   547  HEM547      0.0000
     13  O1A       15.7700   31.6840   51.9390 O.co2 547  HEM547      0.0000
     14  O2A       14.3000   30.2170   52.6140 O.co2 547  HEM547      0.0000
     15  C1B       13.1950   29.7690   43.6210 C.ar  547  HEM547      0.0000
     16  C2B       12.7860   28.8630   42.6070 C.ar  547  HEM547      0.0000
     17  C3B       11.9200   29.5590   41.8210 C.ar  547  HEM547      0.0000
     18  C4B       11.8540   30.9070   42.3280 C.ar  547  HEM547      0.0000
     19  CMB       13.2310   27.4300   42.4190 C.3   547  HEM547      0.0000
     20  CAB       11.0280   28.9920   40.7040 C.3   547  HEM547      0.0000
     21  CBB       10.0430   27.9300   41.1950 C.3   547  HEM547      0.0000
     22  C1C       11.2410   33.2440   42.1040 C.2   547  HEM547      0.0000
     23  C2C       10.6580   34.3480   41.3820 C.2   547  HEM547      0.0000
     24  C3C       11.1130   35.4560   42.0360 C.2   547  HEM547      0.0000
     25  C4C       11.8690   35.0620   43.1560 C.2   547  HEM547      0.0000
     26  CMC        9.7530   34.2900   40.1500 C.3   547  HEM547      0.0000
     27  CAC       11.0270   36.8950   41.6540 C.3   547  HEM547      0.0000
     28  CBC        9.7610   37.5510   41.1490 C.3   547  HEM547      0.0000
     29  C1D       12.9760   35.5170   45.3110 C.ar  547  HEM547      0.0000
     30  C2D       13.3360   36.3910   46.3970 C.ar  547  HEM547      0.0000
     31  C3D       13.7980   35.6590   47.4000 C.ar  547  HEM547      0.0000
     32  C4D       13.7440   34.2880   46.9350 C.ar  547  HEM547      0.0000
     33  CMD       13.0870   37.8710   46.4780 C.3   547  HEM547      0.0000
     34  CAD       14.1760   36.2010   48.7710 C.3   547  HEM547      0.0000
     35  CBD       13.3340   35.6640   49.9200 C.3   547  HEM547      0.0000
     36  CGD       13.9380   35.9650   51.2760 C.2   547  HEM547      0.0000
     37  O1D       13.1770   36.2670   52.2230 O.co2 547  HEM547      0.0000
     38  O2D       15.1790   35.8930   51.3980 O.co2 547  HEM547      0.0000
     39  NA        13.7880   31.5180   45.9310 N.2   547  HEM547      0.0000
     40  NB        12.6230   31.0360   43.4510 N.ar  547  HEM547      0.0000
     41  NC        11.9610   33.6950   43.2060 N.2   547  HEM547      0.0000
     42  ND        13.2220   34.2230   45.6470 N.ar  547  HEM547      0.0000
     43 FE         12.8560   32.6490   44.5620 Fe    547  HEM547      0.0000
@<TRIPOS>BOND
     1    26    23    1
     2    20    21    1
     3    20    17    1
     4    28    27    1
     5    23    24    2
     6    23    22    1
     7    27    24    1
     8     3    22    2
     9     3    18    1
    10    17    18   ar
    11    17    16   ar
    12    24    25    1
    13    22    41    1
    14    18    40   ar
    15    19    16    1
    16    16    15   ar
    17    25    41    2
    18    25     4    1
    19    41    43    1
    20    40    15   ar
    21    40    43    1
    22    15     2    1
    23     4    29    2
    24    43    42    1
    25    43    39    1
    26     2     8    2
    27    29    42   ar
    28    29    30   ar
    29    42    32   ar
    30     8    39    1
    31     8     7    1
    32    39     5    2
    33    30    33    1
    34    30    31   ar
    35    32    31   ar
    36    32     1    2
    37     7     9    1
    38     7     6    2
    39     5     1    1
    40     5     6    1
    41    31    34    1
    42     6    10    1
    43    34    35    1
    44    10    11    1
    45    35    36    1
    46    11    12    1
    47    36    38   ar
    48    36    37   ar
    49    12    13   ar
    50    12    14   ar
