@<TRIPOS>MOLECULE
1fgx_U5P_B_1.pdb
 21 22 0 0 0
SMALL
GASTEIGER

@<TRIPOS>ATOM
      1  N1        20.8050   19.9240   37.7590 N.am  101  U5P101     -0.1766
      2  C2        21.7500   20.3240   38.7340 C.1   101  U5P101      0.2845
      3  N3        21.2310   21.0570   39.8240 N.2   101  U5P101     -0.2452
      4  C4        19.8850   21.4400   40.0440 C.1   101  U5P101      0.2182
      5  C5        18.9860   21.0110   38.9980 C.2   101  U5P101      0.1242
      6  C6        19.4340   20.3040   37.9450 C.2   101  U5P101      0.0929
      7  O2        22.9410   20.0080   38.5960 O.2   101  U5P101     -0.1918
      8  O4        19.6020   22.0760   41.0630 O.2   101  U5P101     -0.2085
      9  C1'       21.2860   19.0510   36.5410 C.3   101  U5P101      0.2401
     10  C2'       20.4330   18.9940   35.2490 C.3   101  U5P101      0.2319
     11  O2'       19.1570   18.2880   35.3840 O.3   101  U5P101     -0.2157
     12  C3'       21.4470   18.4100   34.2010 C.3   101  U5P101      0.2158
     13  C4'       22.6690   19.2650   34.5790 C.3   101  U5P101      0.1801
     14  O3'       21.6220   16.9340   34.2930 O.3   101  U5P101     -0.2175
     15  O4'       22.6530   19.2600   36.0690 O.3   101  U5P101     -0.3320
     16  C5'       22.6470   20.7760   34.1120 C.3   101  U5P101      0.1859
     17  O5'       23.4330   21.7540   34.8690 O.3   101  U5P101     -0.2675
     18  P         25.0650   21.6980   34.8830 P.3   101  U5P101      0.5327
     19  O1P       25.7480   20.4290   35.4510 O.3   101  U5P101     -0.1145
     20  O2P       25.6190   22.7940   35.7330 O.3   101  U5P101     -0.1145
     21  O3P       25.3950   22.1550   33.2890 O.2   101  U5P101     -0.2224
@<TRIPOS>BOND
     1    21    18    2
     2    16    13    1
     3    16    17    1
     4    12    14    1
     5    12    13    1
     6    12    10    1
     7    13    15    1
     8    17    18    1
     9    18    19    1
    10    18    20    1
    11    10    11    1
    12    10     9    1
    13    15     9    1
    14     9     1    1
    15     1     6    1
    16     1     2   am
    17     6     5    2
    18     7     2    2
    19     2     3    2
    20     5     4    1
    21     3     4    2
    22     4     8    2
