@<TRIPOS>MOLECULE
1fgy_4IP_A_1.pdb
 28 28 0 0 0
SMALL
GASTEIGER

@<TRIPOS>ATOM
      1  C1        11.6990   37.5860    7.9570 C.3   1101  4IP1101     0.1917
      2  O1        10.9050   38.4130    8.7790 O.3   1101  4IP1101    -0.2673
      3  C2        12.7820   36.9810    8.8380 C.3   1101  4IP1101     0.2120
      4  O2        13.5420   38.0290    9.4450 O.3   1101  4IP1101    -0.2177
      5  C3        13.6800   36.0830    8.0080 C.3   1101  4IP1101     0.1890
      6  O3        14.7030   35.5410    8.8350 O.3   1101  4IP1101    -0.2674
      7  C4        14.3140   36.8740    6.8830 C.3   1101  4IP1101     0.1865
      8  O4        15.1360   35.9810    6.1220 O.3   1101  4IP1101    -0.2675
      9  C5        13.2530   37.4940    5.9820 C.3   1101  4IP1101     0.1890
     10  O5        13.9450   38.2650    4.9820 O.3   1101  4IP1101    -0.2674
     11  C6        12.3200   38.3940    6.8050 C.3   1101  4IP1101     0.2120
     12  O6        11.1880   38.7380    5.9970 O.3   1101  4IP1101    -0.2177
     13  P1         9.3670   38.0800    9.0930 P.3   1101  4IP1101     0.5327
     14  O1P        8.8770   39.1420   10.0010 O.3   1101  4IP1101    -0.1145
     15  O2P        9.4350   36.7280    9.6980 O.3   1101  4IP1101    -0.1145
     16  O3P        8.6590   38.0840    7.7890 O.2   1101  4IP1101    -0.2224
     17  P3        14.9310   33.9670    9.0140 P.3   1101  4IP1101     0.5327
     18  O4P       16.0890   33.8090    9.9430 O.3   1101  4IP1101    -0.1145
     19  O5P       13.6360   33.5040    9.5680 O.3   1101  4IP1101    -0.1145
     20  O6P       15.1880   33.3860    7.6630 O.2   1101  4IP1101    -0.2224
     21  P4        16.7480   36.0570    6.0200 P.3   1101  4IP1101     0.5327
     22  O7P       17.2120   37.2300    6.8000 O.3   1101  4IP1101    -0.1145
     23  O8P       17.1400   34.7540    6.6040 O.3   1101  4IP1101    -0.1145
     24  O9P       17.0870   36.1190    4.5800 O.2   1101  4IP1101    -0.2224
     25  P5        13.3460   38.6140    3.5170 P.3   1101  4IP1101     0.5327
     26  OPF       12.9560   37.3360    2.8810 O.3   1101  4IP1101    -0.1145
     27  OPG       14.4170   39.3190    2.7660 O.2   1101  4IP1101    -0.2224
     28  OPH       12.2170   39.5250    3.8300 O.3   1101  4IP1101    -0.1145
@<TRIPOS>BOND
     1    27    25    2
     2    26    25    1
     3    25    28    1
     4    25    10    1
     5    24    21    2
     6    10     9    1
     7     9    11    1
     8     9     7    1
     9    12    11    1
    10    21     8    1
    11    21    23    1
    12    21    22    1
    13     8     7    1
    14    11     1    1
    15     7     5    1
    16    20    17    2
    17    16    13    2
    18     1     2    1
    19     1     3    1
    20     5     6    1
    21     5     3    1
    22     2    13    1
    23     6    17    1
    24     3     4    1
    25    17    19    1
    26    17    18    1
    27    13    15    1
    28    13    14    1
