@<TRIPOS>MOLECULE
1fh0_0IW_A_1.pdb
 41 44 0 0 0
SMALL
GASTEIGER

@<TRIPOS>ATOM
      1  N1        52.0180   46.9410   22.9280 N.am  1280  0IW1280    -0.2600
      2  C         52.2700   47.9180   23.8180 C.2   1280  0IW1280     0.3237
      3  O         51.6380   47.9540   24.8790 O.2   1280  0IW1280    -0.2508
      4  C2        52.8870   46.6760   21.7330 C.3   1280  0IW1280     0.1123
      5  C3        52.1070   46.3990   20.4550 C.3   1280  0IW1280     0.0940
      6  N4        51.1190   45.3360   20.6470 N.3   1280  0IW1280    -0.2686
      7  CM        50.3790   45.2040   19.3920 C.3   1280  0IW1280     0.0897
      8  C5        50.1530   45.6600   21.7000 C.3   1280  0IW1280     0.0940
      9  C6        50.8290   45.9940   23.0430 C.3   1280  0IW1280     0.1123
     10  N         53.3150   48.7350   23.6370 N.am  1280  0IW1280    -0.1804
     11  CA        53.5800   49.8160   24.5950 C.3   1280  0IW1280     0.1786
     12  C1        52.3910   50.7690   24.5200 C.2   1280  0IW1280     0.2616
     13  O1        51.9060   51.0700   23.4230 O.2   1280  0IW1280    -0.2715
     14  CB        54.8690   50.6090   24.2650 C.3   1280  0IW1280     0.0575
     15  CG        56.1240   49.7710   24.2000 C.ar  1280  0IW1280    -0.0200
     16  CD1       56.3610   48.7550   25.1240 C.ar  1280  0IW1280    -0.0042
     17  CD2       57.0830   50.0210   23.2240 C.ar  1280  0IW1280    -0.0042
     18  CE1       57.5410   48.0000   25.0690 C.ar  1280  0IW1280    -0.0003
     19  CE2       58.2640   49.2750   23.1610 C.ar  1280  0IW1280    -0.0003
     20  CZ        58.4920   48.2640   24.0850 C.ar  1280  0IW1280    -0.0000
     21  C11       51.5590   53.3050   27.9040 C.3   1280  0IW1280     0.1577
     22  C21       51.2320   53.4000   26.3970 C.3   1280  0IW1280     0.0474
     23  C31       50.7350   52.0610   25.7570 C.3   1280  0IW1280     0.0975
     24  N2        51.7910   51.0530   25.6770 N.am  1280  0IW1280    -0.2057
     25  C4        49.5010   51.4760   26.4710 C.3   1280  0IW1280     0.0264
     26  C51       48.9880   50.2280   25.7210 C.3   1280  0IW1280     0.0281
     27  C1'       47.7510   49.5760   26.3180 C.ar  1280  0IW1280    -0.0221
     28  C2'       47.8840   48.4730   27.1770 C.ar  1280  0IW1280    -0.0043
     29  C3'       46.7520   47.8700   27.7180 C.ar  1280  0IW1280    -0.0003
     30  C4'       45.4830   48.3620   27.4050 C.ar  1280  0IW1280    -0.0000
     31  C5'       45.3430   49.4560   26.5520 C.ar  1280  0IW1280    -0.0003
     32  C6'       46.4730   50.0640   26.0090 C.ar  1280  0IW1280    -0.0043
     33  C12       50.5800   52.5580   33.0530 C.ar  1280  0IW1280     0.0001
     34  C22       49.4500   53.2750   32.6900 C.ar  1280  0IW1280     0.0013
     35  C32       49.2790   53.6900   31.3680 C.ar  1280  0IW1280     0.0183
     36  C41       50.2390   53.3800   30.3730 C.ar  1280  0IW1280     0.1057
     37  S1        50.2280   54.1980   28.8000 S.O2  1280  0IW1280     0.0087
     38  O11       50.3160   55.7730   29.0580 O.2   1280  0IW1280    -0.1686
     39  O2        48.8040   53.8800   28.1890 O.2   1280  0IW1280    -0.1686
     40  C52       51.3760   52.6500   30.7760 C.ar  1280  0IW1280     0.0183
     41  C61       51.5450   52.2480   32.1020 C.ar  1280  0IW1280     0.0013
@<TRIPOS>BOND
     1     7     6    1
     2     5     6    1
     3     5     4    1
     4     6     8    1
     5     8     9    1
     6     4     1    1
     7     1     9    1
     8     1     2   am
     9    19    17   ar
    10    19    20   ar
    11    17    15   ar
    12    13    12    2
    13    10     2   am
    14    10    11    1
    15     2     3    2
    16    20    18   ar
    17    15    14    1
    18    15    16   ar
    19    14    11    1
    20    12    11    1
    21    12    24   am
    22    18    16   ar
    23    24    23    1
    24    26    27    1
    25    26    25    1
    26    23    22    1
    27    23    25    1
    28    32    27   ar
    29    32    31   ar
    30    27    28   ar
    31    22    21    1
    32    31    30   ar
    33    28    29   ar
    34    30    29   ar
    35    21    37    1
    36    39    37    2
    37    37    38    2
    38    37    36    1
    39    36    40   ar
    40    36    35   ar
    41    40    41   ar
    42    35    34   ar
    43    41    33   ar
    44    34    33   ar
