@<TRIPOS>MOLECULE
1fh9_LOX_A_1.pdb
 11 11 0 0 0
SMALL
GASTEIGER

@<TRIPOS>ATOM
      1  C1        20.2840   68.0920   35.6370 C.2   602  LOX602      0.4163
      2  C2        20.1080   68.9450   36.9630 C.3   602  LOX602      0.2978
      3  C3        19.7760   67.9940   38.1890 C.3   602  LOX602      0.2292
      4  C4        18.7680   66.9010   37.7820 C.3   602  LOX602      0.2383
      5  C5        19.4320   65.9060   36.7850 C.3   602  LOX602      0.2985
      6  N1        19.9320   66.7240   35.6370 N.2   602  LOX602     -0.0563
      7  O22       20.8960   67.6930   33.5380 O.3   602  LOX602      0.0696
      8  N2        20.7740   68.6060   34.5160 N.4   602  LOX602      0.1455
      9  O2        21.2120   69.7450   37.2520 O.3   602  LOX602     -0.2066
     10  O3        19.2280   68.7490   39.2790 O.3   602  LOX602     -0.2168
     11  O4        18.3660   66.1610   38.9280 O.3   602  LOX602     -0.2155
@<TRIPOS>BOND
     1     7     8    1
     2     8     1    1
     3     1     6    2
     4     1     2    1
     5     6     5    1
     6     5     4    1
     7     2     9    1
     8     2     3    1
     9     4     3    1
    10     4    11    1
    11     3    10    1
