@<TRIPOS>MOLECULE
1fhb_HEM_A_1.pdb
 43 50 0 0 0
SMALL
GASTEIGER

@<TRIPOS>ATOM
      1 FE         -2.4840    0.5780    3.8250 Fe    104  HEM104      0.0000
      2  CHA       -0.0980   -1.7200    4.9680 C.2   104  HEM104      0.0000
      3  CHB       -1.2490    0.2490    0.6050 C.2   104  HEM104      0.0000
      4  CHC       -5.0110    2.6480    2.7070 C.2   104  HEM104      0.0000
      5  CHD       -3.4180    1.2150    7.1040 C.2   104  HEM104      0.0000
      6  NA        -0.9830   -0.5990    2.9310 N.ar  104  HEM104      0.0000
      7  C1A       -0.1460   -1.4610    3.5990 C.ar  104  HEM104      0.0000
      8  C2A        0.7700   -2.0220    2.6310 C.ar  104  HEM104      0.0000
      9  C3A        0.4620   -1.4520    1.4130 C.ar  104  HEM104      0.0000
     10  C4A       -0.6530   -0.5440    1.6070 C.ar  104  HEM104      0.0000
     11  CMA        1.1840   -1.7360    0.1200 C.3   104  HEM104      0.0000
     12  CAA        1.8820   -3.0320    2.8940 C.3   104  HEM104      0.0000
     13  CBA        3.1290   -2.4940    3.6190 C.3   104  HEM104      0.0000
     14  CGA        4.3200   -3.4670    3.6310 C.2   104  HEM104      0.0000
     15  O1A        5.4660   -2.9740    3.6650 O.co2 104  HEM104      0.0000
     16  O2A        4.0970   -4.6980    3.6020 O.co2 104  HEM104      0.0000
     17  NB        -3.0480    1.3030    1.9810 N.2   104  HEM104      0.0000
     18  C1B       -2.3690    1.0810    0.8140 C.2   104  HEM104      0.0000
     19  C2B       -3.0070    1.8930   -0.2050 C.2   104  HEM104      0.0000
     20  C3B       -4.0930    2.5150    0.3770 C.2   104  HEM104      0.0000
     21  C4B       -4.1000    2.1510    1.7730 C.2   104  HEM104      0.0000
     22  CMB       -2.5240    2.1050   -1.6250 C.3   104  HEM104      0.0000
     23  CAB       -5.0940    3.4250   -0.3090 C.3   104  HEM104      0.0000
     24  CBB       -6.0550    2.6540   -1.2060 C.3   104  HEM104      0.0000
     25  NC        -4.0050    1.6750    4.7420 N.ar  104  HEM104      0.0000
     26  C1C       -4.9110    2.4370    4.0760 C.ar  104  HEM104      0.0000
     27  C2C       -5.7260    3.1200    5.0520 C.ar  104  HEM104      0.0000
     28  C3C       -5.2700    2.7390    6.2960 C.ar  104  HEM104      0.0000
     29  C4C       -4.1770    1.8070    6.0870 C.ar  104  HEM104      0.0000
     30  CMC       -6.6700    4.2650    4.7550 C.3   104  HEM104      0.0000
     31  CAC       -5.6520    3.3750    7.6200 C.3   104  HEM104      0.0000
     32  CBC       -7.0820    3.0940    8.0940 C.3   104  HEM104      0.0000
     33  ND        -1.8680   -0.1170    5.6910 N.2   104  HEM104      0.0000
     34  C1D       -2.3690    0.3240    6.8830 C.2   104  HEM104      0.0000
     35  C2D       -1.6100   -0.3050    7.9410 C.2   104  HEM104      0.0000
     36  C3D       -0.6960   -1.1450    7.3380 C.2   104  HEM104      0.0000
     37  C4D       -0.8710   -1.0270    5.9090 C.2   104  HEM104      0.0000
     38  CMD       -1.7940   -0.0620    9.4250 C.3   104  HEM104      0.0000
     39  CAD        0.2760   -2.0900    8.0070 C.3   104  HEM104      0.0000
     40  CBD       -0.2800   -3.5100    7.9850 C.3   104  HEM104      0.0000
     41  CGD        0.7560   -4.5980    8.2350 C.2   104  HEM104      0.0000
     42  O1D        0.4470   -5.4780    9.0650 O.co2 104  HEM104      0.0000
     43  O2D        1.8090   -4.5620    7.5620 O.co2 104  HEM104      0.0000
@<TRIPOS>BOND
     1    22    19    1
     2    24    23    1
     3    23    20    1
     4    19    20    2
     5    19    18    1
     6    11     9    1
     7    20    21    1
     8     3    18    1
     9     3    10    2
    10    18    17    2
    11     9    10   ar
    12     9     8   ar
    13    10     6   ar
    14    21    17    1
    15    21     4    2
    16    17     1    1
    17     8    12    1
    18     8     7   ar
    19     4    26    1
    20    12    13    1
    21     6     7   ar
    22     6     1    1
    23     7     2    2
    24    16    14   ar
    25    13    14    1
    26    14    15   ar
    27     1    25    1
    28     1    33    1
    29    26    25   ar
    30    26    27   ar
    31    25    29   ar
    32    30    27    1
    33     2    37    1
    34    27    28   ar
    35    33    37    2
    36    33    34    1
    37    37    36    1
    38    29    28   ar
    39    29     5    1
    40    28    31    1
    41    34     5    2
    42    34    35    1
    43    36    35    2
    44    36    39    1
    45    43    41   ar
    46    31    32    1
    47    35    38    1
    48    40    39    1
    49    40    41    1
    50    41    42   ar
