@<TRIPOS>MOLECULE
1fhd_XIM_A_1.pdb
 12 13 0 0 0
SMALL
GASTEIGER

@<TRIPOS>ATOM
      1  C1       -64.9770   19.6790   53.8930 C.ar  602  XIM602      0.1538
      2  C2       -65.7950   19.7300   55.2360 C.3   602  XIM602      0.2405
      3  C3       -64.8270   19.5360   56.4280 C.3   602  XIM602      0.2215
      4  C4       -63.7190   18.5240   56.0950 C.3   602  XIM602      0.2076
      5  C5       -62.7790   19.0510   54.9930 C.3   602  XIM602      0.1428
      6  N1       -63.6240   19.3650   53.8800 N.ar  602  XIM602     -0.3089
      7  C17      -63.3290   19.4260   52.5390 C.ar  602  XIM602      0.0978
      8  C18      -64.4290   19.7520   51.8260 C.ar  602  XIM602      0.1189
      9  N21      -65.4620   19.9120   52.6610 N.ar  602  XIM602     -0.2266
     10  O2       -66.5530   20.9040   55.4460 O.3   602  XIM602     -0.2121
     11  O3       -65.5560   19.0870   57.5520 O.3   602  XIM602     -0.2171
     12  O4       -62.9370   18.2880   57.2480 O.3   602  XIM602     -0.2182
@<TRIPOS>BOND
     1     8     7   ar
     2     8     9   ar
     3     7     6   ar
     4     9     1   ar
     5     6     1   ar
     6     6     5    1
     7     1     2    1
     8     5     4    1
     9     2    10    1
    10     2     3    1
    11     4     3    1
    12     4    12    1
    13     3    11    1
