@<TRIPOS>MOLECULE
1fhe_GSH_A_1.pdb
 20 19 0 0 0
SMALL
GASTEIGER

@<TRIPOS>ATOM
      1  N1        97.3320   96.1260   42.8460 N.3   300  GSH300     -0.1208
      2  CA1       97.3810   95.9480   44.3740 C.3   300  GSH300      0.1948
      3  C1        96.2690   95.0450   44.8690 C.2   300  GSH300      0.3819
      4  O11       95.5040   94.4930   44.0940 O.co2 300  GSH300     -0.2441
      5  O12       96.1640   94.8850   46.1750 O.co2 300  GSH300     -0.2441
      6  CB1       98.7100   95.2140   44.7510 C.3   300  GSH300      0.0402
      7  CG1       99.1120   95.6330   46.0880 C.3   300  GSH300      0.0889
      8  CD1       99.7420   96.8620   46.4800 C.2   300  GSH300      0.2418
      9  OE1      100.6480   97.2860   45.6620 O.2   300  GSH300     -0.2733
     10  N2        99.6000   97.1980   47.7740 N.am  300  GSH300     -0.1968
     11  CA2       99.8860   98.4900   48.3720 C.3   300  GSH300      0.1843
     12  C2       100.3640   98.2720   49.8410 C.2   300  GSH300      0.2627
     13  O2        99.9310   99.1750   50.6660 O.2   300  GSH300     -0.2714
     14  CB2       98.8910   99.6190   48.1310 C.3   300  GSH300      0.0997
     15  SG2       99.4190  100.8700   47.0190 S.3   300  GSH300     -0.0797
     16  N3       101.5590   97.7050   49.9400 N.am  300  GSH300     -0.1917
     17  CA3      102.1960   97.1700   51.1510 C.3   300  GSH300      0.2285
     18  C3       103.2500   96.1500   50.9190 C.2   300  GSH300      0.3865
     19  O31      104.1690   96.2270   50.0120 O.co2 300  GSH300     -0.2437
     20  O32      103.4470   95.1420   51.8370 O.co2 300  GSH300     -0.2437
@<TRIPOS>BOND
     1     1     2    1
     2     4     3   ar
     3     2     6    1
     4     2     3    1
     5     6     7    1
     6     3     5   ar
     7     9     8    2
     8     7     8    1
     9     8    10   am
    10    15    14    1
    11    10    11    1
    12    14    11    1
    13    11    12    1
    14    12    16   am
    15    12    13    2
    16    16    17    1
    17    19    18   ar
    18    18    17    1
    19    18    20   ar
