@<TRIPOS>MOLECULE
1fhf_HEM_A_1.pdb
 43 50 0 0 0
SMALL
GASTEIGER

@<TRIPOS>ATOM
      1 FE         -2.6010   53.1570   -2.4040 Fe    350  HEM350      0.0000
      2  CHA       -2.4240   56.6170   -2.1550 C.2   350  HEM350      0.0000
      3  CHB       -4.3420   53.4610   -5.3540 C.2   350  HEM350      0.0000
      4  CHC       -2.6510   49.7390   -2.7100 C.2   350  HEM350      0.0000
      5  CHD       -0.7820   52.8570    0.5160 C.2   350  HEM350      0.0000
      6  NA        -3.1750   54.6730   -3.5320 N.ar  350  HEM350      0.0000
      7  C1A       -2.9830   56.0820   -3.3280 C.ar  350  HEM350      0.0000
      8  C2A       -3.6100   56.9240   -4.4150 C.ar  350  HEM350      0.0000
      9  C3A       -4.1410   56.0070   -5.2990 C.ar  350  HEM350      0.0000
     10  C4A       -3.9030   54.6410   -4.7360 C.ar  350  HEM350      0.0000
     11  CMA       -4.8640   56.3220   -6.6210 C.3   350  HEM350      0.0000
     12  CAA       -3.9470   58.4470   -4.3350 C.3   350  HEM350      0.0000
     13  CBA       -4.0660   59.4760   -5.4840 C.3   350  HEM350      0.0000
     14  CGA       -2.8160   60.3450   -5.6580 C.2   350  HEM350      0.0000
     15  O1A       -2.3210   60.8940   -4.6520 O.co2 350  HEM350      0.0000
     16  O2A       -2.3280   60.4920   -6.8000 O.co2 350  HEM350      0.0000
     17  NB        -3.3050   51.8930   -3.7350 N.2   350  HEM350      0.0000
     18  C1B       -4.0740   52.1740   -4.8890 C.2   350  HEM350      0.0000
     19  C2B       -4.6580   50.9480   -5.4820 C.2   350  HEM350      0.0000
     20  C3B       -4.1810   49.8890   -4.7420 C.2   350  HEM350      0.0000
     21  C4B       -3.3220   50.4760   -3.6740 C.2   350  HEM350      0.0000
     22  CMB       -5.6400   50.8310   -6.6590 C.3   350  HEM350      0.0000
     23  CAB       -4.4470   48.5540   -5.0750 C.3   350  HEM350      0.0000
     24  CBB       -4.7080   47.4300   -4.1950 C.3   350  HEM350      0.0000
     25  NC        -1.8530   51.6540   -1.3780 N.ar  350  HEM350      0.0000
     26  C1C       -1.9230   50.2850   -1.6700 C.ar  350  HEM350      0.0000
     27  C2C       -1.0710   49.4850   -0.8000 C.ar  350  HEM350      0.0000
     28  C3C       -0.4920   50.3540    0.0770 C.ar  350  HEM350      0.0000
     29  C4C       -1.0400   51.6930   -0.2270 C.ar  350  HEM350      0.0000
     30  CMC       -0.8160   47.9820   -0.8920 C.3   350  HEM350      0.0000
     31  CAC        0.4900   50.0460    1.0220 C.3   350  HEM350      0.0000
     32  CBC        0.3740   48.9680    2.0120 C.3   350  HEM350      0.0000
     33  ND        -1.8760   54.4280   -1.0810 N.2   350  HEM350      0.0000
     34  C1D       -1.1830   54.1450    0.1200 C.2   350  HEM350      0.0000
     35  C2D       -0.9220   55.3710    0.8670 C.2   350  HEM350      0.0000
     36  C3D       -1.3640   56.4140    0.1030 C.2   350  HEM350      0.0000
     37  C4D       -1.9490   55.8430   -1.0880 C.2   350  HEM350      0.0000
     38  CMD       -0.3040   55.4640    2.2550 C.3   350  HEM350      0.0000
     39  CAD       -1.1580   57.9150    0.3420 C.3   350  HEM350      0.0000
     40  CBD        0.3100   58.2990    0.5070 C.3   350  HEM350      0.0000
     41  CGD        0.5230   59.7950    0.5530 C.2   350  HEM350      0.0000
     42  O1D       -0.2600   60.4800    1.2410 O.co2 350  HEM350      0.0000
     43  O2D        1.4770   60.2820   -0.0880 O.co2 350  HEM350      0.0000
@<TRIPOS>BOND
     1    16    14   ar
     2    22    19    1
     3    11     9    1
     4    14    13    1
     5    14    15   ar
     6    13    12    1
     7    19    18    1
     8    19    20    2
     9     3    18    1
    10     3    10    2
    11     9    10   ar
    12     9     8   ar
    13    23    20    1
    14    23    24    1
    15    18    17    2
    16    20    21    1
    17    10     6   ar
    18     8    12    1
    19     8     7   ar
    20    17    21    1
    21    17     1    1
    22    21     4    2
    23     6     7   ar
    24     6     1    1
    25     7     2    2
    26     4    26    1
    27     1    25    1
    28     1    33    1
    29     2    37    1
    30    26    25   ar
    31    26    27   ar
    32    25    29   ar
    33    37    33    2
    34    37    36    1
    35    33    34    1
    36    30    27    1
    37    27    28   ar
    38    29    28   ar
    39    29     5    1
    40    43    41   ar
    41    28    31    1
    42    36    39    1
    43    36    35    2
    44    34     5    2
    45    34    35    1
    46    39    40    1
    47    40    41    1
    48    41    42   ar
    49    35    38    1
    50    31    32    1
