@<TRIPOS>MOLECULE
1fhi_IB2_A_1.pdb
 49 54 0 0 0
SMALL
GASTEIGER

@<TRIPOS>ATOM
      1  PA         9.7470   18.4510   21.3030 P.3   301  IB2301      0.3820
      2  O1A        8.6680   19.1520   20.6150 O.3   301  IB2301     -0.1392
      3  O2A       10.9060   18.3120   20.3980 O.2   301  IB2301     -0.2548
      4  C3A        9.1730   16.7460   21.7580 C.3   301  IB2301      0.2357
      5  PB        10.1900   15.2530   21.3520 P.3   301  IB2301      0.3885
      6  O1B       11.5480   15.7770   21.0310 O.3   301  IB2301     -0.1389
      7  O2B        9.5420   14.5030   20.2170 O.2   301  IB2301     -0.2545
      8  O3B       10.2380   14.3170   22.6680 O.3   301  IB2301     -0.2191
      9  PG        11.0500   13.0020   23.2020 P.3   301  IB2301      0.4096
     10  O1G       11.4600   12.1110   22.1040 O.2   301  IB2301     -0.2446
     11  S2G       12.2350   13.4000   24.0030 S.3   301  IB2301      0.0396
     12  O5D       10.1560   19.2530   22.6340 O.3   301  IB2301     -0.2896
     13  C5D        9.4540   20.4720   22.9930 C.3   301  IB2301      0.1836
     14  C4D        9.2220   20.4390   24.5080 C.3   301  IB2301      0.1822
     15  O4D        9.5060   21.7590   25.0730 O.3   301  IB2301     -0.3135
     16  C3D        7.7580   20.1010   24.8780 C.3   301  IB2301      0.2184
     17  O3D        7.6950   19.1950   26.0030 O.3   301  IB2301     -0.2174
     18  C2D        7.1190   21.4670   25.1530 C.3   301  IB2301      0.2570
     19  O2D        5.9020   21.4400   25.9490 O.3   301  IB2301     -0.2130
     20  C1D        8.3020   22.2280   25.7700 C.3   301  IB2301      0.3186
     21  O5'        9.9510   12.3010   24.1690 O.3   301  IB2301     -0.2834
     22  C5'        9.9820   10.8440   24.3920 C.3   301  IB2301      0.1844
     23  C4'       10.8350   10.5670   25.6440 C.3   301  IB2301      0.1822
     24  O4'       10.1460    9.6280   26.5390 O.3   301  IB2301     -0.3135
     25  C3'       12.2090    9.9510   25.2940 C.3   301  IB2301      0.2184
     26  O3'       13.3180   10.6240   25.9220 O.3   301  IB2301     -0.2174
     27  C2'       12.0930    8.4780   25.6880 C.3   301  IB2301      0.2570
     28  O2'       13.3450    7.8540   26.0610 O.3   301  IB2301     -0.2130
     29  C1'       11.0220    8.4800   26.7950 C.3   301  IB2301      0.3186
     30  N9        10.2760    7.1530   26.7960 N.pl3 301  IB2301     -0.1439
     31  C8         8.9420    6.9880   26.6360 C.3   301  IB2301      0.3377
     32  N7         8.6480    5.6830   26.6850 N.2   301  IB2301     -0.2095
     33  C5         9.7870    4.9930   26.8800 C.2   301  IB2301      0.2526
     34  C6        10.1160    3.6160   27.0220 C.2   301  IB2301      0.4393
     35  N6         9.2050    2.6440   26.9590 N.pl3 301  IB2301      0.2180
     36  N1        11.4500    3.2800   27.2130 N.2   301  IB2301      0.0021
     37  C2        12.4400    4.2300   27.2820 C.3   301  IB2301      0.5254
     38  N3        12.1180    5.5300   27.1540 N.2   301  IB2301     -0.0055
     39  C4        10.7940    5.9600   26.9510 C.2   301  IB2301      0.3518
     40  N9A        8.1030   23.7340   25.6670 N.pl3 301  IB2301     -0.1439
     41  C8A        7.8480   24.4350   24.5320 C.3   301  IB2301      0.3377
     42  N7A        7.7280   25.7260   24.8220 N.2   301  IB2301     -0.2095
     43  C5A        7.9090   25.8780   26.1280 C.2   301  IB2301      0.2526
     44  C6A        7.8900   26.9780   26.9810 C.2   301  IB2301      0.4393
     45  N6A        7.6650   28.2080   26.5390 N.pl3 301  IB2301      0.2180
     46  N1A        8.1230   26.7570   28.3310 N.2   301  IB2301      0.0021
     47  C2A        8.3600   25.4980   28.8410 C.3   301  IB2301      0.5254
     48  N3A        8.3700   24.4460   28.0070 N.2   301  IB2301     -0.0055
     49  C4A        8.1430   24.5940   26.6350 C.2   301  IB2301      0.3518
@<TRIPOS>BOND
     1     7     5    2
     2     3     1    2
     3     2     1    1
     4     6     5    1
     5     1     4    1
     6     1    12    1
     7     5     4    1
     8     5     8    1
     9    10     9    2
    10    12    13    1
    11     8     9    1
    12    13    14    1
    13     9    11    1
    14     9    21    1
    15    21    22    1
    16    22    23    1
    17    14    16    1
    18    14    15    1
    19    41    42    1
    20    41    40    1
    21    42    43    2
    22    16    18    1
    23    16    17    1
    24    15    20    1
    25    18    20    1
    26    18    19    1
    27    25    23    1
    28    25    27    1
    29    25    26    1
    30    23    24    1
    31    40    20    1
    32    40    49    1
    33    27    28    1
    34    27    29    1
    35    43    49    1
    36    43    44    1
    37    24    29    1
    38    45    44    1
    39    49    48    2
    40    31    32    1
    41    31    30    1
    42    32    33    2
    43    29    30    1
    44    30    39    1
    45    33    39    1
    46    33    34    1
    47    39    38    2
    48    35    34    1
    49    44    46    2
    50    34    36    2
    51    38    37    1
    52    36    37    1
    53    48    47    1
    54    46    47    1
