@<TRIPOS>MOLECULE
1fhj_HEM_A_1.pdb
 43 50 0 0 0
SMALL
GASTEIGER

@<TRIPOS>ATOM
      1 FE         19.1280    7.5070   67.7950 Fe    142  HEM142      0.0000
      2  CHA       22.2850    8.5640   68.4900 C.2   142  HEM142      0.0000
      3  CHB       17.8470   10.0400   69.6660 C.2   142  HEM142      0.0000
      4  CHC       15.9990    6.7680   66.8170 C.2   142  HEM142      0.0000
      5  CHD       20.3230    4.9330   65.9910 C.2   142  HEM142      0.0000
      6  NA        19.8830    8.9750   68.8340 N.2   142  HEM142      0.0000
      7  C1A       21.2150    9.2020   69.1180 C.2   142  HEM142      0.0000
      8  C2A       21.3130   10.2130   70.1390 C.2   142  HEM142      0.0000
      9  C3A       20.0960   10.6800   70.4530 C.2   142  HEM142      0.0000
     10  C4A       19.2040    9.9180   69.6030 C.2   142  HEM142      0.0000
     11  CMA       19.7630   11.7180   71.5370 C.3   142  HEM142      0.0000
     12  CAA       22.5950   10.5530   70.8570 C.3   142  HEM142      0.0000
     13  CBA       23.5330   11.3330   69.9670 C.3   142  HEM142      0.0000
     14  CGA       24.9810   11.0940   70.3240 C.2   142  HEM142      0.0000
     15  O1A       25.3420   11.3200   71.5040 O.co2 142  HEM142      0.0000
     16  O2A       25.7570   10.6680   69.4270 O.co2 142  HEM142      0.0000
     17  NB        17.2830    8.2800   68.1530 N.ar  142  HEM142      0.0000
     18  C1B       16.9250    9.2770   69.0170 C.ar  142  HEM142      0.0000
     19  C2B       15.4970    9.4510   69.1230 C.ar  142  HEM142      0.0000
     20  C3B       14.9460    8.5590   68.2600 C.ar  142  HEM142      0.0000
     21  C4B       16.0810    7.8160   67.7010 C.ar  142  HEM142      0.0000
     22  CMB       14.7770   10.4740   69.9970 C.3   142  HEM142      0.0000
     23  CAB       13.6320    8.4780   67.7720 C.3   142  HEM142      0.0000
     24  CBB       12.4660    8.7220   68.4820 C.3   142  HEM142      0.0000
     25  NC        18.3260    6.1430   66.5930 N.2   142  HEM142      0.0000
     26  C1C       17.0070    5.9600   66.2950 C.2   142  HEM142      0.0000
     27  C2C       16.7890    4.7890   65.4890 C.2   142  HEM142      0.0000
     28  C3C       18.0030    4.2320   65.2900 C.2   142  HEM142      0.0000
     29  C4C       18.9460    5.0950   65.9720 C.2   142  HEM142      0.0000
     30  CMC       15.4430    4.2650   65.0170 C.3   142  HEM142      0.0000
     31  CAC       18.3250    3.0530   64.6010 C.3   142  HEM142      0.0000
     32  CBC       17.9700    1.7650   64.9680 C.3   142  HEM142      0.0000
     33  ND        20.9250    6.9390   67.3300 N.ar  142  HEM142      0.0000
     34  C1D       21.2510    5.7670   66.6390 C.ar  142  HEM142      0.0000
     35  C2D       22.6820    5.5840   66.5420 C.ar  142  HEM142      0.0000
     36  C3D       23.2220    6.6530   67.2190 C.ar  142  HEM142      0.0000
     37  C4D       22.1450    7.5100   67.6510 C.ar  142  HEM142      0.0000
     38  CMD       23.3980    4.4850   65.7580 C.3   142  HEM142      0.0000
     39  CAD       24.6600    6.7560   67.6330 C.3   142  HEM142      0.0000
     40  CBD       24.7570    6.1400   69.0200 C.3   142  HEM142      0.0000
     41  CGD       26.1550    6.1770   69.5820 C.2   142  HEM142      0.0000
     42  O1D       27.1310    6.1140   68.8100 O.co2 142  HEM142      0.0000
     43  O2D       26.2720    6.2460   70.8110 O.co2 142  HEM142      0.0000
@<TRIPOS>BOND
     1    31    32    1
     2    31    28    1
     3    30    27    1
     4    28    27    2
     5    28    29    1
     6    27    26    1
     7    38    35    1
     8    29     5    1
     9    29    25    2
    10     5    34    2
    11    26    25    1
    12    26     4    2
    13    35    34   ar
    14    35    36   ar
    15    25     1    1
    16    34    33   ar
    17     4    21    1
    18    36    39    1
    19    36    37   ar
    20    33    37   ar
    21    33     1    1
    22    39    40    1
    23    37     2    2
    24    21    17   ar
    25    21    20   ar
    26    23    20    1
    27    23    24    1
    28     1    17    1
    29     1     6    1
    30    17    18   ar
    31    20    19   ar
    32     2     7    1
    33    42    41   ar
    34     6     7    2
    35     6    10    1
    36    18    19   ar
    37    18     3    1
    38    40    41    1
    39     7     8    1
    40    19    22    1
    41    16    14   ar
    42    41    43   ar
    43    10     3    2
    44    10     9    1
    45    13    14    1
    46    13    12    1
    47     8     9    2
    48     8    12    1
    49    14    15   ar
    50     9    11    1
