@<TRIPOS>MOLECULE
1fhv_OSB_A_1.pdb
 16 16 0 0 0
SMALL
GASTEIGER

@<TRIPOS>ATOM
      1  O1        30.5070  -20.8760   42.5330 O.co2 789  OSB789     -0.2406
      2  O2        30.1080  -22.8100   43.4250 O.co2 789  OSB789     -0.2406
      3  C7        29.7680  -21.6370   43.1860 C.2   789  OSB789      0.3878
      4  C6        26.4770  -19.9990   44.0230 C.ar  789  OSB789      0.0031
      5  C5        26.5930  -19.7910   45.3940 C.ar  789  OSB789      0.0001
      6  C4        27.7570  -20.1980   46.0450 C.ar  789  OSB789      0.0002
      7  C3        28.8040  -20.8010   45.3380 C.ar  789  OSB789      0.0067
      8  C2        28.6980  -21.0140   43.9620 C.ar  789  OSB789      0.0825
      9  C1        27.5240  -20.6050   43.3270 C.ar  789  OSB789      0.0411
     10  C8        27.3300  -20.8060   41.9150 C.2   789  OSB789      0.1738
     11  C9        25.9210  -20.2450   41.6750 C.3   789  OSB789      0.0810
     12  O3        28.0720  -21.3200   41.0670 O.2   789  OSB789     -0.2913
     13  C10       25.4550  -20.3900   40.2310 C.3   789  OSB789      0.1222
     14  C11       26.4830  -20.0080   39.1570 C.2   789  OSB789      0.3653
     15  O4        26.3460  -20.5650   38.0620 O.co2 789  OSB789     -0.2456
     16  O5        27.5280  -19.3880   39.4140 O.co2 789  OSB789     -0.2456
@<TRIPOS>BOND
     1    15    14   ar
     2    14    16   ar
     3    14    13    1
     4    13    11    1
     5    12    10    2
     6    11    10    1
     7    10     9    1
     8     1     3   ar
     9     3     2   ar
    10     3     8    1
    11     9     8   ar
    12     9     4   ar
    13     8     7   ar
    14     4     5   ar
    15     7     6   ar
    16     5     6   ar
