@<TRIPOS>MOLECULE
1fhw_I5P_A_1.pdb
 32 32 0 0 0
SMALL
GASTEIGER

@<TRIPOS>ATOM
      1  C1        -6.8180   28.0770    9.9920 C.3   1001  I5P1001     0.1890
      2  C2        -8.0390   27.3830    9.3920 C.3   1001  I5P1001     0.1864
      3  C3        -7.9860   25.8690    9.6420 C.3   1001  I5P1001     0.1863
      4  C4        -6.6530   25.2520    9.2190 C.3   1001  I5P1001     0.1864
      5  C5        -5.4220   26.0420    9.6810 C.3   1001  I5P1001     0.1890
      6  C6        -5.5530   27.5230    9.3660 C.3   1001  I5P1001     0.2119
      7  O11       -6.8920   29.4990    9.7780 O.3   1001  I5P1001    -0.2674
      8  P1        -6.4970   30.5420   10.9680 P.3   1001  I5P1001     0.5327
      9  O21       -6.8160   31.9280   10.4250 O.2   1001  I5P1001    -0.2224
     10  O31       -5.0140   30.3440   11.2430 O.3   1001  I5P1001    -0.1145
     11  O41       -7.3490   30.1420   12.1620 O.3   1001  I5P1001    -0.1145
     12  O12       -9.2410   27.9320    9.9600 O.3   1001  I5P1001    -0.2675
     13  P2       -10.1720   28.9670    9.1130 P.3   1001  I5P1001     0.5327
     14  O22      -10.0030   28.5900    7.6480 O.2   1001  I5P1001    -0.2224
     15  O32       -9.6500   30.3570    9.4390 O.3   1001  I5P1001    -0.1145
     16  O42      -11.5880   28.7430    9.6200 O.3   1001  I5P1001    -0.1145
     17  O13       -9.0630   25.2120    8.9410 O.3   1001  I5P1001    -0.2675
     18  P3       -10.4770   24.8760    9.6800 P.3   1001  I5P1001     0.5327
     19  O23      -11.1210   23.7620    8.8700 O.2   1001  I5P1001    -0.2224
     20  O33      -10.1420   24.4470   11.1020 O.3   1001  I5P1001    -0.1145
     21  O43      -11.2680   26.1750    9.6160 O.3   1001  I5P1001    -0.1145
     22  O14       -6.5760   23.8980    9.6990 O.3   1001  I5P1001    -0.2675
     23  P4        -6.2250   22.6660    8.6940 P.3   1001  I5P1001     0.5327
     24  O24       -6.1740   23.2640    7.2980 O.2   1001  I5P1001    -0.2224
     25  O34       -4.8840   22.1260    9.1530 O.3   1001  I5P1001    -0.1145
     26  O44       -7.3510   21.6700    8.8920 O.3   1001  I5P1001    -0.1145
     27  O15       -4.2510   25.5230    9.0420 O.3   1001  I5P1001    -0.2674
     28  P5        -3.0520   24.8370    9.8990 P.3   1001  I5P1001     0.5327
     29  O25       -2.5290   25.9220   10.8310 O.3   1001  I5P1001    -0.1145
     30  O35       -3.6450   23.6500   10.6420 O.3   1001  I5P1001    -0.1145
     31  O45       -2.0420   24.4290    8.8370 O.2   1001  I5P1001    -0.2224
     32  O16       -5.5800   27.7130    7.9570 O.3   1001  I5P1001    -0.2177
@<TRIPOS>BOND
     1    24    23    2
     2    14    13    2
     3    32     6    1
     4    23    26    1
     5    23    25    1
     6    23    22    1
     7    31    28    2
     8    19    18    2
     9    17     3    1
    10    17    18    1
    11    27     5    1
    12    27    28    1
    13    13    15    1
    14    13    16    1
    15    13    12    1
    16     4     3    1
    17     4     5    1
    18     4    22    1
    19     6     5    1
    20     6     1    1
    21     2     3    1
    22     2    12    1
    23     2     1    1
    24    21    18    1
    25    18    20    1
    26     7     1    1
    27     7     8    1
    28    28    30    1
    29    28    29    1
    30     9     8    2
    31     8    10    1
    32     8    11    1
