@<TRIPOS>MOLECULE
1fhx_4IP_A_1.pdb
 28 28 0 0 0
SMALL
GASTEIGER

@<TRIPOS>ATOM
      1  C1        56.2890    2.0330   15.2910 C.3   1001  4IP1001     0.1917
      2  O1        56.7120    1.9820   13.9240 O.3   1001  4IP1001    -0.2673
      3  C2        56.2160    3.4740   15.7520 C.3   1001  4IP1001     0.2120
      4  O2        57.4740    4.0940   15.5590 O.3   1001  4IP1001    -0.2177
      5  C3        55.7990    3.5590   17.2170 C.3   1001  4IP1001     0.1890
      6  O3        55.7700    4.9300   17.6490 O.3   1001  4IP1001    -0.2674
      7  C4        56.6820    2.7400   18.1430 C.3   1001  4IP1001     0.1865
      8  O4        56.1030    2.7120   19.4560 O.3   1001  4IP1001    -0.2675
      9  C5        56.8850    1.3120   17.6380 C.3   1001  4IP1001     0.1890
     10  O5        57.8870    0.6400   18.4260 O.3   1001  4IP1001    -0.2674
     11  C6        57.2350    1.2140   16.1540 C.3   1001  4IP1001     0.2120
     12  O6        57.1610   -0.1480   15.7490 O.3   1001  4IP1001    -0.2177
     13  P1        55.7350    1.3650   12.7750 P.3   1001  4IP1001     0.5327
     14  O1P       56.4270    1.7170   11.4670 O.2   1001  4IP1001    -0.2224
     15  O2P       54.3920    2.0500   12.9580 O.3   1001  4IP1001    -0.1145
     16  O3P       55.6620   -0.1310   13.0470 O.3   1001  4IP1001    -0.1145
     17  P3        54.3950    5.5780   18.2230 P.3   1001  4IP1001     0.5327
     18  O4P       54.7290    6.9510   18.7820 O.3   1001  4IP1001    -0.1145
     19  O5P       53.4540    5.6560   17.0300 O.2   1001  4IP1001    -0.2224
     20  O6P       53.9650    4.5890   19.2890 O.3   1001  4IP1001    -0.1145
     21  P4        56.7650    3.5530   20.6840 P.3   1001  4IP1001     0.5327
     22  O7P       57.9260    4.3300   20.0820 O.2   1001  4IP1001    -0.2224
     23  O8P       55.6670    4.4620   21.2180 O.3   1001  4IP1001    -0.1145
     24  O9P       57.1910    2.5240   21.7190 O.3   1001  4IP1001    -0.1145
     25  P5        57.7550   -0.9530   18.7450 P.3   1001  4IP1001     0.5327
     26  OPF       58.7390   -1.2280   19.8770 O.3   1001  4IP1001    -0.1145
     27  OPG       58.1080   -1.6790   17.4520 O.2   1001  4IP1001    -0.2224
     28  OPH       56.3020   -1.1840   19.1490 O.3   1001  4IP1001    -0.1145
@<TRIPOS>BOND
     1    14    13    2
     2    13    15    1
     3    13    16    1
     4    13     2    1
     5     2     1    1
     6     1     3    1
     7     1    11    1
     8     4     3    1
     9    12    11    1
    10     3     5    1
    11    11     9    1
    12    19    17    2
    13     5     6    1
    14     5     7    1
    15    27    25    2
    16     9     7    1
    17     9    10    1
    18     6    17    1
    19     7     8    1
    20    17    18    1
    21    17    20    1
    22    10    25    1
    23    25    28    1
    24    25    26    1
    25     8    21    1
    26    22    21    2
    27    21    23    1
    28    21    24    1
