@<TRIPOS>MOLECULE
1fi1_GMH_A_1.pdb
 13 13 0 0 0
SMALL
GASTEIGER

@<TRIPOS>ATOM
      1  C1        62.1820   60.3260   50.4300 C.3   1012  GMH1012     0.1777
      2  C2        62.6470   61.7580   50.1020 C.3   1012  GMH1012     0.2141
      3  C3        64.1750   61.8450   50.0840 C.3   1012  GMH1012     0.2173
      4  C4        64.7410   61.2880   51.3930 C.3   1012  GMH1012     0.2142
      5  C5        64.2710   59.8450   51.5600 C.3   1012  GMH1012     0.1810
      6  C6        64.8330   59.2120   52.8330 C.3   1012  GMH1012     0.2142
      7  C7        66.0350   58.3310   52.5020 C.3   1012  GMH1012     0.2174
      8  O2        62.1230   62.6760   51.0550 O.3   1012  GMH1012    -0.2176
      9  O3        64.5740   63.1980   49.9190 O.3   1012  GMH1012    -0.2175
     10  O4        66.1580   61.3390   51.3750 O.3   1012  GMH1012    -0.2176
     11  O5        62.8330   59.8210   51.6030 O.3   1012  GMH1012    -0.3481
     12  O6        65.2130   60.2240   53.7570 O.3   1012  GMH1012    -0.2176
     13  O7        66.5580   57.7660   53.6950 O.3   1012  GMH1012    -0.2175
@<TRIPOS>BOND
     1     9     3    1
     2     3     2    1
     3     3     4    1
     4     2     1    1
     5     2     8    1
     6     1    11    1
     7    10     4    1
     8     4     5    1
     9     5    11    1
    10     5     6    1
    11     7     6    1
    12     7    13    1
    13     6    12    1
