@<TRIPOS>MOLECULE
1fig_TSA_H_1.pdb
 16 17 0 0 0
SMALL
GASTEIGER

@<TRIPOS>ATOM
      1  C1        14.4280   47.5500    9.3180 C.3   224  TSA224      0.1173
      2  C2        14.4650   49.0020    9.8230 C.2   224  TSA224     -0.0179
      3  C3        13.7930   49.9960    9.2200 C.2   224  TSA224      0.0045
      4  C4        12.8690   49.7480    8.1380 C.3   224  TSA224      0.2006
      5  O5        13.4740   50.2480    6.9200 O.3   224  TSA224     -0.2157
      6  C5        12.5490   48.2730    7.9050 C.3   224  TSA224      0.1511
      7  C6        13.8150   47.4930    7.9810 C.3   224  TSA224      0.0474
      8  O7        11.5280   47.7600    8.8750 O.3   224  TSA224     -0.3445
      9  C8        11.9130   47.1500   10.2250 C.3   224  TSA224      0.2185
     10  C9        13.5060   46.6700   10.2510 C.3   224  TSA224      0.0562
     11  C10       15.8850   47.0170    9.1670 C.2   224  TSA224      0.3677
     12  O1        16.4160   46.3840   10.0720 O.co2 224  TSA224     -0.2453
     13  O2        16.5540   47.2070    8.1490 O.co2 224  TSA224     -0.2453
     14  C11       11.4160   47.7780   11.5670 C.2   224  TSA224      0.3913
     15  O3        10.6750   47.1150   12.3230 O.co2 224  TSA224     -0.2430
     16  O4        11.6990   48.9450   11.8560 O.co2 224  TSA224     -0.2430
@<TRIPOS>BOND
     1     5     4    1
     2     6     7    1
     3     6     4    1
     4     6     8    1
     5     7     1    1
     6     4     3    1
     7    13    11   ar
     8     8     9    1
     9    11     1    1
    10    11    12   ar
    11     3     2    2
    12     1     2    1
    13     1    10    1
    14     9    10    1
    15     9    14    1
    16    14    16   ar
    17    14    15   ar
