@<TRIPOS>MOLECULE
1fih_NGA_A_1.pdb
 15 15 0 0 0
SMALL
GASTEIGER

@<TRIPOS>ATOM
      1  C1        47.7270   -2.5020   21.7910 C.3   227  NGA227      0.2917
      2  C2        46.2910   -2.5540   22.3420 C.3   227  NGA227      0.1871
      3  C3        46.2360   -3.3900   23.6310 C.3   227  NGA227      0.2095
      4  C4        46.9090   -4.7520   23.4320 C.3   227  NGA227      0.2136
      5  C5        48.3130   -4.5570   22.8460 C.3   227  NGA227      0.1835
      6  C6        49.0400   -5.8560   22.5580 C.3   227  NGA227      0.2142
      7  C7        45.2460   -0.4930   21.6660 C.2   227  NGA227      0.2421
      8  C8        44.8080    0.9180   22.0320 C.3   227  NGA227      0.0964
      9  N2        45.8430   -1.2050   22.6170 N.am  227  NGA227     -0.1991
     10  O1        47.7260   -1.8730   20.5580 O.3   227  NGA227     -0.1879
     11  O3        44.8860   -3.5890   24.0180 O.3   227  NGA227     -0.2183
     12  O4        46.1220   -5.5560   22.5630 O.3   227  NGA227     -0.2176
     13  O5        48.2350   -3.8280   21.6050 O.3   227  NGA227     -0.3242
     14  O6        50.4460   -5.6790   22.6560 O.3   227  NGA227     -0.2176
     15  O7        45.0320   -0.9320   20.5340 O.2   227  NGA227     -0.2733
@<TRIPOS>BOND
     1    15     7    2
     2    10     1    1
     3    13     1    1
     4    13     5    1
     5     7     8    1
     6     7     9   am
     7     1     2    1
     8     2     9    1
     9     2     3    1
    10     6    14    1
    11     6     5    1
    12    12     4    1
    13     5     4    1
    14     4     3    1
    15     3    11    1
