@<TRIPOS>MOLECULE
1fin_ATP_A_1.pdb
 31 33 0 0 0
SMALL
GASTEIGER

@<TRIPOS>ATOM
      1  PG       -15.6010  203.6220  121.8820 P.3   299  ATP299      0.5373
      2  O1G      -16.3290  202.7240  120.8980 O.2   299  ATP299     -0.2221
      3  O2G      -16.4240  204.2130  123.0140 O.3   299  ATP299     -0.1143
      4  O3G      -14.3200  202.9390  122.3300 O.3   299  ATP299     -0.1143
      5  PB       -13.8320  205.6400  120.2660 P.3   299  ATP299      0.2277
      6  O1B      -14.4110  207.0280  120.3870 O.2   299  ATP299     -0.5168
      7  O2B      -12.4430  205.2440  120.7040 O.3   299  ATP299     -0.4368
      8  O3B      -15.1880  204.9680  120.9640 O.3   299  ATP299     -0.2258
      9  PA       -13.6850  203.6030  118.2990 P.3   299  ATP299      0.2189
     10  O1A      -14.2650  202.3840  118.9580 O.3   299  ATP299     -0.4371
     11  O2A      -14.3650  204.0800  117.0410 O.2   299  ATP299     -0.5170
     12  O3A      -13.8870  205.1930  118.6870 O.3   299  ATP299     -0.2700
     13  O5'      -12.1840  203.4190  118.1110 O.3   299  ATP299     -0.3112
     14  C5'      -11.0610  204.3330  118.2240 C.3   299  ATP299      0.1813
     15  C4'      -10.6920  205.1810  116.9900 C.3   299  ATP299      0.1821
     16  O4'      -10.9670  204.6980  115.6290 O.3   299  ATP299     -0.3135
     17  C3'      -11.2580  206.6020  116.9350 C.3   299  ATP299      0.2184
     18  O3'      -10.8250  207.4390  118.0140 O.3   299  ATP299     -0.2174
     19  C2'      -10.7790  207.0860  115.5610 C.3   299  ATP299      0.2570
     20  O2'       -9.5840  207.8550  115.5310 O.3   299  ATP299     -0.2130
     21  C1'      -10.6030  205.7890  114.7700 C.3   299  ATP299      0.3186
     22  N9       -11.3990  205.9780  113.5620 N.pl3 299  ATP299     -0.1439
     23  C8       -12.7610  205.8560  113.5100 C.3   299  ATP299      0.3377
     24  N7       -13.2870  206.1690  112.3370 N.2   299  ATP299     -0.2095
     25  C5       -12.1920  206.5740  111.5780 C.2   299  ATP299      0.2526
     26  C6       -12.0910  207.0150  110.2370 C.2   299  ATP299      0.4393
     27  N6       -13.1660  207.1240  109.4420 N.pl3 299  ATP299      0.2180
     28  N1       -10.8510  207.3470  109.7880 N.2   299  ATP299      0.0021
     29  C2        -9.8020  207.2340  110.6250 C.3   299  ATP299      0.5254
     30  N3        -9.7770  206.8340  111.9020 N.2   299  ATP299     -0.0055
     31  C4       -11.0180  206.5030  112.3310 C.2   299  ATP299      0.3518
@<TRIPOS>BOND
     1    27    26    1
     2    28    26    2
     3    28    29    1
     4    26    25    1
     5    29    30    1
     6    25    31    1
     7    25    24    2
     8    30    31    2
     9    31    22    1
    10    24    23    1
    11    23    22    1
    12    22    21    1
    13    21    19    1
    14    21    16    1
    15    20    19    1
    16    19    17    1
    17    16    15    1
    18    17    15    1
    19    17    18    1
    20    15    14    1
    21    11     9    2
    22    13    14    1
    23    13     9    1
    24     9    12    1
    25     9    10    1
    26    12     5    1
    27     5     6    2
    28     5     7    1
    29     5     8    1
    30     2     1    2
    31     8     1    1
    32     1     4    1
    33     1     3    1
