@<TRIPOS>MOLECULE
1fip_III_C_1.pdb
 21 20 0 0 0
SMALL
GASTEIGER

@<TRIPOS>ATOM
      1  N          6.9830   22.1250   48.3000 N.3    20  UNK20      -0.1231
      2  CA         8.3560   22.5760   48.3260 C.3    20  UNK20       0.1694
      3  C          8.9090   21.8770   49.5480 C.2    20  UNK20       0.2592
      4  O          8.2820   20.8980   49.9360 O.2    20  UNK20      -0.2718
      5  CB         8.4240   24.0480   48.5430 C.3    20  UNK20       0.0304
      6  N          9.9290   22.3830   50.2280 N.am   21  UNK21      -0.1966
      7  CA        10.6230   21.6500   51.2840 C.3    21  UNK21       0.1728
      8  C         10.0610   21.2900   52.6780 C.2    21  UNK21       0.2616
      9  O         10.6760   20.4500   53.3000 O.2    21  UNK21      -0.2715
     10  CB        11.9380   22.3670   51.5120 C.3    21  UNK21       0.0334
     11  N          8.9660   21.8290   53.2060 N.am   22  UNK22      -0.1963
     12  CA         8.4500   21.6030   54.5530 C.3    22  UNK22       0.1728
     13  C          8.7730   20.3390   55.3780 C.2    22  UNK22       0.2617
     14  O          9.9340   20.3700   55.8160 O.2    22  UNK22      -0.2715
     15  CB         6.9460   21.8320   54.5960 C.3    22  UNK22       0.0334
     16  N          7.9140   19.2780   55.5490 N.am   23  UNK23      -0.1942
     17  CA         8.1750   18.4090   56.6650 C.3    23  UNK23       0.1979
     18  C          8.4630   17.1270   55.8910 C.2    23  UNK23       0.3842
     19  O          9.5360   16.9950   55.3550 O.co2  23  UNK23      -0.2437
     20  CB         6.9830   18.1940   57.6130 C.3    23  UNK23       0.0356
     21  OXT        7.7240   16.1630   55.9380 O.co2  23  UNK23      -0.2437
@<TRIPOS>BOND
     1     1     2    1
     2     2     5    1
     3     2     3    1
     4     3     4    2
     5     3     6   am
     6     6     7    1
     7     7    10    1
     8     7     8    1
     9     8    11   am
    10     8     9    2
    11    11    12    1
    12    12    15    1
    13    12    13    1
    14    19    18   ar
    15    13    16   am
    16    13    14    2
    17    16    17    1
    18    18    21   ar
    19    18    17    1
    20    17    20    1
