@<TRIPOS>MOLECULE
1fit_FRU_A_1.pdb
 12 12 0 0 0
SMALL
GASTEIGER

@<TRIPOS>ATOM
      1  C1        10.2670   15.2700   48.2420 C.3   500  FRU500      0.2434
      2  C2        11.0930   14.6600   47.0300 C.3   500  FRU500      0.2807
      3  C3        12.6330   14.6620   47.2510 C.3   500  FRU500      0.2409
      4  C4        13.2450   14.9060   45.8530 C.3   500  FRU500      0.2168
      5  C5        12.1630   15.7020   45.1830 C.3   500  FRU500      0.1836
      6  C6        11.9130   15.1100   43.7890 C.3   500  FRU500      0.2142
      7  O1        10.8930   16.4670   48.7730 O.3   500  FRU500     -0.2148
      8  O2        10.4600   13.4420   46.7000 O.3   500  FRU500     -0.1896
      9  O3        13.4840   13.8740   48.0480 O.3   500  FRU500     -0.2149
     10  O4        14.5150   15.5290   45.9110 O.3   500  FRU500     -0.2175
     11  O5        10.9750   15.6730   46.0500 O.3   500  FRU500     -0.3253
     12  O6        11.3470   16.1070   43.0410 O.3   500  FRU500     -0.2176
@<TRIPOS>BOND
     1    12     6    1
     2     6     5    1
     3     5     4    1
     4     5    11    1
     5     4    10    1
     6     4     3    1
     7    11     2    1
     8     8     2    1
     9     2     3    1
    10     2     1    1
    11     3     9    1
    12     1     7    1
