@<TRIPOS>MOLECULE
1fiw_FUL_A_1.pdb
 10 10 0 0 0
SMALL
GASTEIGER

@<TRIPOS>ATOM
      1  C1        63.3560   58.3350   27.4150 C.3   300  FUL300      0.1776
      2  C2        64.0530   57.0060   27.5110 C.3   300  FUL300      0.2141
      3  O2        64.0150   56.5520   28.8480 O.3   300  FUL300     -0.2176
      4  C3        63.3820   56.0080   26.5800 C.3   300  FUL300      0.2172
      5  O3        64.2470   55.9930   25.5100 O.3   300  FUL300     -0.2175
      6  C4        61.9800   56.3850   26.0610 C.3   300  FUL300      0.2116
      7  O4        61.8650   56.1070   24.6770 O.3   300  FUL300     -0.2177
      8  C5        61.6340   57.8410   26.3060 C.3   300  FUL300      0.1483
      9  C6        60.4540   58.3530   25.5220 C.3   300  FUL300      0.0349
     10  O5        62.8060   58.5830   26.1280 O.3   300  FUL300     -0.3508
@<TRIPOS>BOND
     1     7     6    1
     2     5     4    1
     3     9     8    1
     4     6     8    1
     5     6     4    1
     6    10     8    1
     7    10     1    1
     8     4     2    1
     9     1     2    1
    10     2     3    1
