@<TRIPOS>MOLECULE
1fiw_PBZ_A_1.pdb
 10 10 0 0 0
SMALL
GASTEIGER

@<TRIPOS>ATOM
      1  N2        55.1200   45.9810   41.1150 N.pl3 305  PBZ305      0.2047
      2  N3        55.9520   46.8710   43.1690 N.pl3 305  PBZ305      0.2047
      3  C7        55.0160   47.0390   42.0710 C.2   305  PBZ305      0.4766
      4  C4        53.6670   47.5840   42.3970 C.ar  305  PBZ305      0.0976
      5  C2        51.2880   47.8960   42.0310 C.ar  305  PBZ305      0.0183
      6  C3        52.5060   47.2940   41.6820 C.ar  305  PBZ305      0.0094
      7  C5        53.6120   48.5150   43.4150 C.ar  305  PBZ305      0.0094
      8  C6        52.3980   49.1360   43.7500 C.ar  305  PBZ305      0.0183
      9  C1        51.2260   48.8370   43.0710 C.ar  305  PBZ305      0.0891
     10  N1        49.9990   49.4720   43.4040 N.pl3 305  PBZ305     -0.1281
@<TRIPOS>BOND
     1     1     3    2
     2     6     5   ar
     3     6     4   ar
     4     5     9   ar
     5     3     4    1
     6     3     2    1
     7     4     7   ar
     8     9    10    1
     9     9     8   ar
    10     7     8   ar
