@<TRIPOS>MOLECULE
1fiz_PBZ_A_1.pdb
 10 10 0 0 0
SMALL
GASTEIGER

@<TRIPOS>ATOM
      1  N2       113.1910   39.0980   62.4550 N.pl3 308  PBZ308      0.2047
      2  N3       111.5660   39.3430   64.1430 N.pl3 308  PBZ308      0.2047
      3  C7       111.9730   39.3170   62.8730 C.2   308  PBZ308      0.4766
      4  C4       111.0530   39.5730   61.8190 C.ar  308  PBZ308      0.0976
      5  C2       108.7180   40.1400   61.1420 C.ar  308  PBZ308      0.0183
      6  C3       109.7270   39.8440   62.0800 C.ar  308  PBZ308      0.0094
      7  C5       111.4470   39.4880   60.5230 C.ar  308  PBZ308      0.0094
      8  C6       110.4460   39.7980   59.5520 C.ar  308  PBZ308      0.0183
      9  C1       109.0870   40.1130   59.8340 C.ar  308  PBZ308      0.0891
     10  N1       108.2290   40.3500   58.7730 N.pl3 308  PBZ308     -0.1281
@<TRIPOS>BOND
     1    10     9    1
     2     8     9   ar
     3     8     7   ar
     4     9     5   ar
     5     7     4   ar
     6     5     6   ar
     7     4     6   ar
     8     4     3    1
     9     1     3    2
    10     3     2    1
