@<TRIPOS>MOLECULE
1fj0_HEM_A_1.pdb
 43 50 0 0 0
SMALL
GASTEIGER

@<TRIPOS>ATOM
      1  CHA       18.0010   27.2100   29.4150 C.2   115  HEM115      0.0000
      2  CHB       18.5610   24.8300   33.6040 C.2   115  HEM115      0.0000
      3  CHC       13.7700   24.2630   33.8570 C.2   115  HEM115      0.0000
      4  CHD       13.3100   26.0130   29.3740 C.2   115  HEM115      0.0000
      5  C1A       18.5620   26.6840   30.5490 C.2   115  HEM115      0.0000
      6  C2A       19.9300   26.7970   30.9600 C.2   115  HEM115      0.0000
      7  C3A       20.0840   26.1240   32.1080 C.2   115  HEM115      0.0000
      8  C4A       18.7960   25.5950   32.4770 C.2   115  HEM115      0.0000
      9  CMA       21.3590   25.9630   32.9640 C.3   115  HEM115      0.0000
     10  CAA       21.0230   27.5180   30.1230 C.3   115  HEM115      0.0000
     11  CBA       21.7160   26.4270   29.2720 C.3   115  HEM115      0.0000
     12  CGA       22.6890   26.8720   28.2160 C.2   115  HEM115      0.0000
     13  O1A       23.0750   28.0590   28.2500 O.co2 115  HEM115      0.0000
     14  O2A       23.0650   25.9970   27.3880 O.co2 115  HEM115      0.0000
     15  C1B       17.3040   24.4170   33.9920 C.ar  115  HEM115      0.0000
     16  C2B       17.0280   23.6280   35.1780 C.ar  115  HEM115      0.0000
     17  C3B       15.7010   23.4750   35.2670 C.ar  115  HEM115      0.0000
     18  C4B       15.1230   24.1880   34.1510 C.ar  115  HEM115      0.0000
     19  CMB       18.1270   23.0660   36.1050 C.3   115  HEM115      0.0000
     20  CAB       14.8980   22.7590   36.3610 C.3   115  HEM115      0.0000
     21  CBB       15.2680   23.4000   37.7120 C.3   115  HEM115      0.0000
     22  C1C       13.2380   24.6600   32.6590 C.2   115  HEM115      0.0000
     23  C2C       11.8530   24.5350   32.2810 C.2   115  HEM115      0.0000
     24  C3C       11.7000   25.0360   31.0530 C.2   115  HEM115      0.0000
     25  C4C       13.0110   25.4650   30.5990 C.2   115  HEM115      0.0000
     26  CMC       10.7980   23.8970   33.2410 C.3   115  HEM115      0.0000
     27  CAC       10.4450   25.0530   30.1630 C.3   115  HEM115      0.0000
     28  CBC        9.2620   25.7310   30.8260 C.3   115  HEM115      0.0000
     29  C1D       14.5520   26.5010   28.9940 C.ar  115  HEM115      0.0000
     30  C2D       14.8290   27.1990   27.7520 C.ar  115  HEM115      0.0000
     31  C3D       16.1210   27.5220   27.7680 C.ar  115  HEM115      0.0000
     32  C4D       16.6910   27.0590   29.0230 C.ar  115  HEM115      0.0000
     33  CMD       13.7370   27.4410   26.6790 C.3   115  HEM115      0.0000
     34  CAD       16.9300   28.3400   26.7190 C.3   115  HEM115      0.0000
     35  CBD       17.0310   29.8120   27.2380 C.3   115  HEM115      0.0000
     36  CGD       17.2540   30.8860   26.2090 C.2   115  HEM115      0.0000
     37  O1D       17.6430   30.5220   25.1020 O.co2 115  HEM115      0.0000
     38  O2D       17.0300   32.0850   26.5850 O.co2 115  HEM115      0.0000
     39  NA        17.8730   25.9420   31.5030 N.2   115  HEM115      0.0000
     40  NB        16.1160   24.7340   33.3600 N.ar  115  HEM115      0.0000
     41  NC        13.9240   25.2440   31.6030 N.2   115  HEM115      0.0000
     42  ND        15.6880   26.4210   29.7430 N.ar  115  HEM115      0.0000
     43 FE         15.8970   25.5700   31.5470 Fe    115  HEM115      0.0000
@<TRIPOS>BOND
     1    37    36   ar
     2    36    38   ar
     3    36    35    1
     4    33    30    1
     5    34    35    1
     6    34    31    1
     7    14    12   ar
     8    30    31   ar
     9    30    29   ar
    10    31    32   ar
    11    12    13   ar
    12    12    11    1
    13    29     4    2
    14    29    42   ar
    15    32     1    2
    16    32    42   ar
    17    11    10    1
    18     4    25    1
    19     1     5    1
    20    42    43    1
    21    10     6    1
    22    27    28    1
    23    27    24    1
    24     5     6    1
    25     5    39    2
    26    25    24    1
    27    25    41    2
    28     6     7    2
    29    24    23    2
    30    39    43    1
    31    39     8    1
    32    43    41    1
    33    43    40    1
    34    41    22    1
    35     7     8    1
    36     7     9    1
    37    23    22    1
    38    23    26    1
    39     8     2    2
    40    22     3    2
    41    40    15   ar
    42    40    18   ar
    43     2    15    1
    44     3    18    1
    45    15    16   ar
    46    18    17   ar
    47    16    17   ar
    48    16    19    1
    49    17    20    1
    50    20    21    1
