@<TRIPOS>MOLECULE
1fj4_TLM_A_1.pdb
 14 14 0 0 0
SMALL
GASTEIGER

@<TRIPOS>ATOM
      1  S1         6.2170  -19.4860   -0.4880 S.3   500  TLM500     -0.0631
      2  C1         7.0270  -18.5720    0.7860 C.2   500  TLM500      0.2209
      3  C2         6.6290  -19.0160    2.0970 C.2   500  TLM500      0.0589
      4  C3         5.7900  -20.0690    2.0550 C.2   500  TLM500      0.1852
      5  C4         5.3860  -20.6510    0.7160 C.3   500  TLM500      0.1191
      6  C5         3.8840  -20.6960    0.4040 C.2   500  TLM500     -0.0133
      7  C6         3.1800  -20.8520   -0.7410 C.2   500  TLM500     -0.0249
      8  C7         1.6930  -20.7190   -0.6320 C.2   500  TLM500     -0.0045
      9  C8         0.7810  -20.8290   -1.6020 C.2   500  TLM500     -0.0003
     10  O1         7.8230  -17.6860    0.5180 O.2   500  TLM500     -0.2799
     11  C9         7.1190  -18.3340    3.3280 C.3   500  TLM500      0.0380
     12  O2         5.2870  -20.6170    3.1700 O.2   500  TLM500     -0.2904
     13  C10        6.0340  -22.0480    0.5840 C.3   500  TLM500      0.0235
     14  C11        3.7580  -21.1460   -2.0940 C.3   500  TLM500      0.0307
@<TRIPOS>BOND
     1    14     7    1
     2     9     8    2
     3     7     8    1
     4     7     6    2
     5     1     5    1
     6     1     2    1
     7     6     5    1
     8    10     2    2
     9    13     5    1
    10     5     4    1
    11     2     3    1
    12     4     3    2
    13     4    12    1
    14     3    11    1
