@<TRIPOS>MOLECULE
1fj6_F6P_A_1.pdb
 16 16 0 0 0
SMALL
GASTEIGER

@<TRIPOS>ATOM
      1  O1        11.0550    9.3540   27.0000 O.3   401  F6P401     -0.2148
      2  C1         9.6630    9.6180   27.0720 C.3   401  F6P401      0.2434
      3  C2         8.8580    8.3290   27.0250 C.3   401  F6P401      0.2807
      4  O2         9.3330    7.5140   25.9760 O.3   401  F6P401     -0.1896
      5  C3         7.3490    8.5540   26.8740 C.3   401  F6P401      0.2409
      6  O3         6.9210    8.2980   25.5510 O.3   401  F6P401     -0.2149
      7  C4         6.7550    7.5920   27.8970 C.3   401  F6P401      0.2167
      8  O4         5.5500    8.1300   28.4190 O.3   401  F6P401     -0.2175
      9  C5         7.8280    7.5420   28.9720 C.3   401  F6P401      0.1808
     10  O5         9.0700    7.6180   28.2340 O.3   401  F6P401     -0.3254
     11  C6         7.7980    6.2660   29.7730 C.3   401  F6P401      0.1859
     12  O6         8.8830    6.3010   30.7160 O.3   401  F6P401     -0.2675
     13  P          8.9720    5.1890   31.9080 P.3   401  F6P401      0.5327
     14  O1P        9.8930    5.8100   32.9410 O.3   401  F6P401     -0.1145
     15  O2P        9.5470    3.9180   31.2980 O.2   401  F6P401     -0.2224
     16  O3P        7.5600    5.0040   32.4290 O.3   401  F6P401     -0.1145
@<TRIPOS>BOND
     1     6     5    1
     2     4     3    1
     3     5     3    1
     4     5     7    1
     5     1     2    1
     6     3     2    1
     7     3    10    1
     8     7     8    1
     9     7     9    1
    10    10     9    1
    11     9    11    1
    12    11    12    1
    13    12    13    1
    14    15    13    2
    15    13    16    1
    16    13    14    1
