@<TRIPOS>MOLECULE
1fj8_CER_A_1.pdb
 16 15 0 0 0
SMALL
GASTEIGER

@<TRIPOS>ATOM
      1  C1         6.6250  -17.0270    0.8180 C.2   500  CER500      0.2638
      2  N1         5.5400  -17.7920    0.7560 N.am  500  CER500     -0.0877
      3  O1         3.9080  -13.5110    1.9920 O.2   500  CER500     -0.2934
      4  C2         6.3920  -15.5340    1.0680 C.3   500  CER500      0.1290
      5  O2         7.7630  -17.4770    0.6720 O.2   500  CER500     -0.2715
      6  C3         4.9400  -15.2110    0.6690 C.3   500  CER500      0.2178
      7  O3         4.7840  -15.4220   -0.7360 O.3   500  CER500     -0.2146
      8  C4         4.6020  -13.7670    1.0100 C.2   500  CER500      0.1812
      9  C5         5.1070  -12.6410    0.1250 C.3   500  CER500      0.0672
     10  C6         4.3760  -11.3270    0.3620 C.3   500  CER500      0.0078
     11  C7         5.1990  -10.2890    1.1270 C.3   500  CER500      0.0004
     12  C8         4.6280   -8.8810    0.8970 C.3   500  CER500      0.0000
     13  C9         4.2510   -8.2300    2.2280 C.3   500  CER500      0.0000
     14  C10        2.8200   -7.6980    2.3420 C.3   500  CER500      0.0000
     15  C11        2.4310   -7.4850    3.8220 C.3   500  CER500      0.0000
     16  C12        1.7250   -6.1530    3.9920 C.3   500  CER500      0.0000
@<TRIPOS>BOND
     1     7     6    1
     2     9    10    1
     3     9     8    1
     4    10    11    1
     5     6     8    1
     6     6     4    1
     7     5     1    2
     8     2     1   am
     9     1     4    1
    10    12    11    1
    11    12    13    1
    12     8     3    2
    13    13    14    1
    14    14    15    1
    15    15    16    1
