@<TRIPOS>MOLECULE
1fj9_F6P_A_1.pdb
 16 16 0 0 0
SMALL
GASTEIGER

@<TRIPOS>ATOM
      1  O1        42.9710  107.3100   10.1880 O.3   400  F6P400     -0.2148
      2  C1        43.4070  108.3000   11.1090 C.3   400  F6P400      0.2434
      3  C2        42.3260  108.6050   12.1180 C.3   400  F6P400      0.2807
      4  O2        42.3850  107.6870   13.1920 O.3   400  F6P400     -0.1896
      5  C3        40.9230  108.6060   11.5150 C.3   400  F6P400      0.2409
      6  O3        40.3330  107.3300   11.6520 O.3   400  F6P400     -0.2149
      7  C4        40.2250  109.7100   12.3000 C.3   400  F6P400      0.2167
      8  O4        39.2400  110.3360   11.4840 O.3   400  F6P400     -0.2175
      9  C5        41.3570  110.6900   12.5620 C.3   400  F6P400      0.1808
     10  O5        42.5660  109.8950   12.6410 O.3   400  F6P400     -0.3254
     11  C6        41.2090  111.4600   13.8450 C.3   400  F6P400      0.1859
     12  O6        42.5130  111.9500   14.2100 O.3   400  F6P400     -0.2675
     13  P         42.6490  113.3170   15.0850 P.3   400  F6P400      0.5327
     14  O1P       43.0340  112.8550   16.4790 O.3   400  F6P400     -0.1145
     15  O2P       43.7420  114.1380   14.4180 O.2   400  F6P400     -0.2224
     16  O3P       41.2890  113.9770   15.0450 O.3   400  F6P400     -0.1145
@<TRIPOS>BOND
     1     1     2    1
     2     2     3    1
     3     8     7    1
     4     5     6    1
     5     5     3    1
     6     5     7    1
     7     3    10    1
     8     3     4    1
     9     7     9    1
    10     9    10    1
    11     9    11    1
    12    11    12    1
    13    12    13    1
    14    15    13    2
    15    16    13    1
    16    13    14    1
