@<TRIPOS>MOLECULE
1fj9_AMP_A_1.pdb
 23 25 0 0 0
SMALL
GASTEIGER

@<TRIPOS>ATOM
      1  P         35.3510   89.9510  -13.5170 P.3   401  AMP401      0.5327
      2  O1P       36.6710   90.6520  -13.2420 O.3   401  AMP401     -0.1145
      3  O2P       35.3490   89.2110  -14.8480 O.2   401  AMP401     -0.2224
      4  O3P       34.9070   89.0700  -12.3620 O.3   401  AMP401     -0.1145
      5  O5'       34.2350   91.1340  -13.6390 O.3   401  AMP401     -0.2675
      6  C5'       34.3810   92.2030  -14.6000 C.3   401  AMP401      0.1860
      7  C4'       33.5020   93.3730  -14.2220 C.3   401  AMP401      0.1823
      8  O4'       32.1320   92.9150  -14.0690 O.3   401  AMP401     -0.3135
      9  C3'       33.8310   94.0180  -12.8860 C.3   401  AMP401      0.2184
     10  O3'       34.8660   94.9810  -13.0240 O.3   401  AMP401     -0.2174
     11  C2'       32.5010   94.6520  -12.5030 C.3   401  AMP401      0.2570
     12  O2'       32.2430   95.8720  -13.1710 O.3   401  AMP401     -0.2130
     13  C1'       31.5200   93.5770  -12.9720 C.3   401  AMP401      0.3186
     14  N9        31.2760   92.5820  -11.9310 N.pl3 401  AMP401     -0.1439
     15  C8        31.7290   91.2870  -11.8960 C.3   401  AMP401      0.3377
     16  N7        31.3770   90.6340  -10.8160 N.2   401  AMP401     -0.2095
     17  C5        30.6370   91.5590  -10.0930 C.2   401  AMP401      0.2526
     18  C6        29.9830   91.4860   -8.8480 C.2   401  AMP401      0.4393
     19  N6        29.9880   90.3990   -8.0680 N.pl3 401  AMP401      0.2180
     20  N1        29.3210   92.5840   -8.4230 N.2   401  AMP401      0.0021
     21  C2        29.3320   93.6770   -9.1950 C.3   401  AMP401      0.5254
     22  N3        29.9160   93.8710  -10.3740 N.2   401  AMP401     -0.0055
     23  C4        30.5590   92.7600  -10.7740 C.2   401  AMP401      0.3518
@<TRIPOS>BOND
     1     3     1    2
     2     6     7    1
     3     6     5    1
     4     7     8    1
     5     7     9    1
     6     8    13    1
     7     5     1    1
     8     1     2    1
     9     1     4    1
    10    12    11    1
    11    10     9    1
    12    13    11    1
    13    13    14    1
    14     9    11    1
    15    14    15    1
    16    14    23    1
    17    15    16    1
    18    16    17    2
    19    23    22    2
    20    23    17    1
    21    22    21    1
    22    17    18    1
    23    21    20    1
    24    18    20    2
    25    18    19    1
