@<TRIPOS>MOLECULE
1fjg_SRY_A_1.pdb
 40 42 0 0 0
SMALL
GASTEIGER

@<TRIPOS>ATOM
      1  C11      180.4390   94.8770   -7.5050 C.3   1634  SRY1634     0.2474
      2  N11      181.2530   93.9960   -8.4270 N.pl3 1634  SRY1634    -0.0846
      3  CA1      180.5120   93.1310   -9.0830 C.cat 1634  SRY1634     0.5346
      4  NB1      179.6040   93.6230   -9.8680 N.pl3 1634  SRY1634     0.1354
      5  NC1      180.6700   91.8530   -8.9640 N.pl3 1634  SRY1634     0.1354
      6  C21      180.7220   96.3590   -7.7990 C.3   1634  SRY1634     0.2360
      7  O21      180.3420   96.6430   -9.1320 O.3   1634  SRY1634    -0.2154
      8  C31      179.9390   97.3050   -6.8690 C.3   1634  SRY1634     0.2442
      9  N31      180.2490   98.7690   -7.1560 N.pl3 1634  SRY1634    -0.0847
     10  CD1      179.4310   99.3320   -8.0360 C.cat 1634  SRY1634     0.5346
     11  NE1      178.3060   98.8020   -8.4390 N.pl3 1634  SRY1634     0.1354
     12  NF1      179.8140  100.4650   -8.4990 N.pl3 1634  SRY1634     0.1354
     13  C41      180.3280   96.9720   -5.4300 C.3   1634  SRY1634     0.1929
     14  O41      179.6000   97.8420   -4.5780 O.3   1634  SRY1634    -0.3247
     15  C51      179.9940   95.4840   -5.1160 C.3   1634  SRY1634     0.2162
     16  O51      180.3470   95.1920   -3.7780 O.3   1634  SRY1634    -0.2175
     17  C61      180.8020   94.5760   -6.0620 C.3   1634  SRY1634     0.2268
     18  O61      180.5070   93.2010   -5.8000 O.3   1634  SRY1634    -0.2165
     19  C12      180.4790   98.6330   -3.7720 C.3   1634  SRY1634     0.2666
     20  C22      179.5750   99.5910   -3.0080 C.3   1634  SRY1634     0.2110
     21  C32      179.4210   98.9260   -1.6510 C.3   1634  SRY1634     0.2380
     22  O32      180.0940   99.6830   -0.6260 O.3   1634  SRY1634    -0.2124
     23  CG2      177.9310   98.7490   -1.4080 C.2   1634  SRY1634     0.2421
     24  OG2      177.4830   98.1780   -0.4240 O.2   1634  SRY1634    -0.2854
     25  C42      180.0510   97.5580   -1.8480 C.3   1634  SRY1634     0.1554
     26  CH2      180.6160   96.9610   -0.5570 C.3   1634  SRY1634     0.0353
     27  O42      181.0700   97.7590   -2.8320 O.3   1634  SRY1634    -0.3281
     28  O13      180.0940  100.8910   -2.9180 O.3   1634  SRY1634    -0.3236
     29  C13      179.4580  101.6360   -3.9470 C.3   1634  SRY1634     0.2546
     30  C23      179.4240  103.1430   -3.6360 C.3   1634  SRY1634     0.1620
     31  N23      178.7640  103.3580   -2.3910 N.3   1634  SRY1634    -0.2103
     32  CI3      177.8440  104.4640   -2.5770 C.3   1634  SRY1634     0.1077
     33  C33      180.8130  103.7190   -3.6030 C.3   1634  SRY1634     0.2054
     34  O33      180.6840  105.1190   -3.6670 O.3   1634  SRY1634    -0.2186
     35  C43      181.6400  103.2670   -4.7990 C.3   1634  SRY1634     0.2132
     36  O43      182.9790  103.6150   -4.5790 O.3   1634  SRY1634    -0.2176
     37  C53      181.5510  101.7400   -4.9860 C.3   1634  SRY1634     0.1834
     38  O53      180.1690  101.3700   -5.1880 O.3   1634  SRY1634    -0.3265
     39  C63      182.3770  101.2230   -6.1900 C.3   1634  SRY1634     0.2142
     40  O63      182.3220  102.1900   -7.2390 O.3   1634  SRY1634    -0.2176
@<TRIPOS>BOND
     1     4     3    1
     2     7     6    1
     3     3     5    1
     4     3     2    2
     5    12    10    1
     6    11    10    1
     7     2     1    1
     8    10     9    2
     9     6     1    1
    10     6     8    1
    11     1    17    1
    12    40    39    1
    13     9     8    1
    14     8    13    1
    15    39    37    1
    16    17    18    1
    17    17    15    1
    18    13    15    1
    19    13    14    1
    20    38    37    1
    21    38    29    1
    22    15    16    1
    23    37    35    1
    24    35    36    1
    25    35    33    1
    26    14    19    1
    27    29    30    1
    28    29    28    1
    29    19    20    1
    30    19    27    1
    31    34    33    1
    32    30    33    1
    33    30    31    1
    34    20    28    1
    35    20    21    1
    36    27    25    1
    37    32    31    1
    38    25    21    1
    39    25    26    1
    40    21    23    1
    41    21    22    1
    42    23    24    2
