@<TRIPOS>MOLECULE
1fjg_SCM_A_1.pdb
 23 25 0 0 0
SMALL
GASTEIGER

@<TRIPOS>ATOM
      1  O1       197.7620  126.4360   -3.6950 O.3   1633  SCM1633    -0.3285
      2  C2       196.7140  125.7590   -2.9810 C.3   1633  SCM1633     0.1255
      3  C2M      196.8140  124.2580   -3.2330 C.3   1633  SCM1633     0.0326
      4  C3       195.2990  126.2230   -3.3950 C.3   1633  SCM1633     0.0994
      5  C4       195.1960  127.6430   -3.9320 C.2   1633  SCM1633     0.2115
      6  O4       194.1290  128.1120   -4.2450 O.2   1633  SCM1633    -0.2906
      7  C5       196.4640  128.4260   -4.1490 C.3   1633  SCM1633     0.3229
      8  O5       196.2810  129.7900   -3.7970 O.3   1633  SCM1633    -0.1818
      9  C6       197.6180  127.7840   -3.3620 C.3   1633  SCM1633     0.2990
     10  O1B      196.7920  128.4990   -5.5540 O.3   1633  SCM1633    -0.3217
     11  O2B      198.8710  128.4350   -3.6080 O.3   1633  SCM1633    -0.3237
     12  C7       198.0230  129.2100   -5.7540 C.3   1633  SCM1633     0.1663
     13  C8       198.3000  129.2780   -7.2510 C.3   1633  SCM1633     0.1342
     14  N8       197.1600  130.0100   -7.8830 N.3   1633  SCM1633    -0.2127
     15  C8M      197.3770  130.2720   -9.3040 C.3   1633  SCM1633     0.1076
     16  C9       199.6630  129.9900   -7.4830 C.3   1633  SCM1633     0.1887
     17  O9       199.6120  131.2870   -6.9730 O.3   1633  SCM1633    -0.2200
     18  C10      200.7870  129.2330   -6.7640 C.3   1633  SCM1633     0.1374
     19  N10      202.0340  129.9110   -6.9720 N.3   1633  SCM1633    -0.2126
     20  C1M      202.9650  128.9400   -7.4800 C.3   1633  SCM1633     0.1076
     21  C11      200.4890  129.1950   -5.2600 C.3   1633  SCM1633     0.1998
     22  O11      201.5300  128.4910   -4.6100 O.3   1633  SCM1633    -0.2189
     23  C12      199.1580  128.4700   -5.0280 C.3   1633  SCM1633     0.1781
@<TRIPOS>BOND
     1    15    14    1
     2    14    13    1
     3    16    13    1
     4    16    17    1
     5    16    18    1
     6    20    19    1
     7    13    12    1
     8    19    18    1
     9    18    21    1
    10    12    10    1
    11    12    23    1
    12    10     7    1
    13    21    23    1
    14    21    22    1
    15    23    11    1
    16     6     5    2
    17     7     5    1
    18     7     8    1
    19     7     9    1
    20     5     4    1
    21     1     9    1
    22     1     2    1
    23    11     9    1
    24     4     2    1
    25     3     2    1
