@<TRIPOS>MOLECULE
1fjt_LYS_A_1.pdb
 10 9 0 0 0
SMALL
GASTEIGER

@<TRIPOS>ATOM
      1  N         37.5770   40.3850   -3.9680 N.3   507  LYS507     -0.1208
      2  CA        38.6310   39.4590   -4.3560 C.3   507  LYS507      0.1943
      3  C         38.0940   38.3040   -5.2120 C.2   507  LYS507      0.3819
      4  O         36.8730   38.2350   -5.4900 O.co2 507  LYS507     -0.2441
      5  CB        39.3740   38.9190   -3.1390 C.3   507  LYS507      0.0307
      6  CG        38.5230   38.1110   -2.1810 C.3   507  LYS507      0.0036
      7  CD        39.1640   36.7490   -1.9030 C.3   507  LYS507      0.0206
      8  CE        38.1060   35.7610   -1.3820 C.3   507  LYS507      0.1093
      9  NZ        37.1760   36.5460   -0.5390 N.3   507  LYS507     -0.1314
     10  OXT       38.9610   37.6780   -5.8860 O.co2 507  LYS507     -0.2441
@<TRIPOS>BOND
     1    10     3   ar
     2     4     3   ar
     3     3     2    1
     4     2     1    1
     5     2     5    1
     6     5     6    1
     7     6     7    1
     8     7     8    1
     9     8     9    1
