@<TRIPOS>MOLECULE
1fjx_SAH_A_1.pdb
 32 34 0 0 0
SMALL
GASTEIGER

@<TRIPOS>ATOM
      1  N        -18.6680   31.2200   80.6710 N.3   328  SAH328     -0.3133
      2  CA       -19.0970   30.2590   81.6600 C.3   328  SAH328      0.1564
      3  CB       -19.1050   30.8320   83.0720 C.3   328  SAH328      0.0387
      4  CG       -17.7430   31.3620   83.4800 C.3   328  SAH328      0.0596
      5  SD       -17.5900   31.9610   85.1810 S.3   328  SAH328     -0.1375
      6  C        -20.4930   29.9400   81.2030 C.2   328  SAH328      0.3785
      7  O        -21.4550   29.9800   82.0570 O.co2 328  SAH328     -0.2442
      8  OXT      -20.6870   30.0750   79.9210 O.co2 328  SAH328     -0.2442
      9  C5'      -16.1270   31.3980   86.0570 C.3   328  SAH328      0.0898
     10  C4'      -16.4210   29.9370   86.1250 C.3   328  SAH328      0.1593
     11  O4'      -15.1820   29.2150   86.3190 O.3   328  SAH328     -0.3155
     12  C3'      -17.3470   29.5080   87.2600 C.3   328  SAH328      0.1720
     13  O3'      -18.1420   28.4020   86.8420 O.3   328  SAH328     -0.3794
     14  C2'      -16.3740   28.9830   88.2980 C.3   328  SAH328      0.2135
     15  O2'      -16.9700   28.0070   89.1210 O.3   328  SAH328     -0.3763
     16  C1'      -15.3400   28.3280   87.3990 C.3   328  SAH328      0.3148
     17  N9       -14.0500   28.1250   88.0390 N.pl3 328  SAH328     -0.1440
     18  C8       -13.3350   29.0070   88.8030 C.3   328  SAH328      0.3377
     19  N7       -12.1960   28.5250   89.2420 N.2   328  SAH328     -0.2098
     20  C5       -12.1550   27.2350   88.7230 C.2   328  SAH328      0.2438
     21  C6       -11.2070   26.1990   88.8200 C.2   328  SAH328      0.3428
     22  N6       -10.0800   26.2900   89.5130 N.pl3 328  SAH328     -0.2449
     23  N1       -11.4710   25.0440   88.1770 N.2   328  SAH328     -0.0059
     24  C2       -12.6210   24.9350   87.4900 C.3   328  SAH328      0.5252
     25  N3       -13.5890   25.8300   87.3330 N.2   328  SAH328     -0.0055
     26  C4       -13.2920   26.9780   87.9820 C.2   328  SAH328      0.3515
     27  HN1      -18.9580   31.0070   79.7640 H     328  SAH328      0.1193
     28  HN2      -18.0540   31.9690   80.8820 H     328  SAH328      0.1193
     29 HO3'      -17.5030   27.7390   86.6000 H     328  SAH328      0.2105
     30 HO2'      -17.0090   27.2050   88.6030 H     328  SAH328      0.2107
     31 HN61       -9.8560   27.1560   89.9850 H     328  SAH328      0.2885
     32 HN62       -9.4630   25.5000   89.5830 H     328  SAH328      0.2885
@<TRIPOS>BOND
     1    27     1    1
     2     8     6   ar
     3     1    28    1
     4     1     2    1
     5     6     2    1
     6     6     7   ar
     7     2     3    1
     8     3     4    1
     9     4     5    1
    10     5     9    1
    11     9    10    1
    12    10    11    1
    13    10    12    1
    14    11    16    1
    15    29    13    1
    16    13    12    1
    17    12    14    1
    18    25    24    1
    19    25    26    2
    20    16    17    1
    21    16    14    1
    22    24    23    1
    23    26    17    1
    24    26    20    1
    25    17    18    1
    26    23    21    2
    27    14    15    1
    28    30    15    1
    29    20    21    1
    30    20    19    2
    31    18    19    1
    32    21    22    1
    33    22    32    1
    34    22    31    1
