@<TRIPOS>MOLECULE
1fk8_NAD_A_1.pdb
 44 48 0 0 0
SMALL
GASTEIGER

@<TRIPOS>ATOM
      1  PA       -16.9880    9.0620  -29.5020 P.3   800  NAD800      0.2189
      2  O1A      -17.8500    8.8000  -30.6900 O.2   800  NAD800     -0.5170
      3  O2A      -17.4880   10.0170  -28.5030 O.3   800  NAD800     -0.4371
      4  O5B      -15.5120    9.4690  -29.9940 O.3   800  NAD800     -0.3112
      5  C5B      -14.8860    8.6940  -31.0130 C.3   800  NAD800      0.1813
      6  C4B      -14.1230    9.6520  -31.8520 C.3   800  NAD800      0.1821
      7  O4B      -13.5280    8.8840  -32.9250 O.3   800  NAD800     -0.3135
      8  C3B      -14.9960   10.7490  -32.4650 C.3   800  NAD800      0.2184
      9  O3B      -14.5010   12.0930  -32.1970 O.3   800  NAD800     -0.2174
     10  C2B      -14.9990   10.4220  -33.9460 C.3   800  NAD800      0.2570
     11  O2B      -15.2680   11.5440  -34.8370 O.3   800  NAD800     -0.2130
     12  C1B      -13.6260    9.7440  -34.0910 C.3   800  NAD800      0.3186
     13  N9A      -13.5110    8.9370  -35.3370 N.pl3 800  NAD800     -0.1439
     14  C8A      -14.3290    7.9230  -35.7340 C.3   800  NAD800      0.3377
     15  N7A      -13.9550    7.4150  -36.9150 N.2   800  NAD800     -0.2095
     16  C5A      -12.8960    8.1370  -37.2280 C.2   800  NAD800      0.2526
     17  C6A      -12.1290    7.9920  -38.4040 C.2   800  NAD800      0.4393
     18  N6A      -12.4550    7.0680  -39.3030 N.pl3 800  NAD800      0.2180
     19  N1A      -11.0520    8.8350  -38.5670 N.2   800  NAD800      0.0021
     20  C2A      -10.7540    9.7680  -37.6250 C.3   800  NAD800      0.5254
     21  N3A      -11.4970    9.9030  -36.5010 N.2   800  NAD800     -0.0055
     22  C4A      -12.5840    9.1010  -36.2680 C.2   800  NAD800      0.3518
     23  O3       -16.6290    7.6940  -28.7400 O.3   800  NAD800     -0.2703
     24  PN       -16.0970    7.3530  -27.2720 P.3   800  NAD800      0.2189
     25  O1N      -17.0460    6.4240  -26.5960 O.2   800  NAD800     -0.5170
     26  O2N      -15.7030    8.5970  -26.5410 O.3   800  NAD800     -0.4371
     27  O5D      -14.7690    6.5080  -27.5310 O.3   800  NAD800     -0.3112
     28  C5D      -13.4660    7.0580  -27.6000 C.3   800  NAD800      0.1813
     29  C4D      -12.5250    5.8710  -27.4040 C.3   800  NAD800      0.1799
     30  O4D      -12.9120    5.0780  -26.2420 O.3   800  NAD800     -0.3327
     31  C3D      -12.5060    4.8810  -28.5940 C.3   800  NAD800      0.2158
     32  O3D      -11.1620    4.4090  -28.8970 O.3   800  NAD800     -0.2175
     33  C2D      -13.4300    3.7600  -28.1460 C.3   800  NAD800      0.2309
     34  O2D      -13.3010    2.5430  -28.8600 O.3   800  NAD800     -0.2158
     35  C1D      -13.0720    3.6960  -26.6670 C.3   800  NAD800      0.2263
     36  N1N      -14.0700    3.0130  -25.7810 N.pl3 800  NAD800     -0.2787
     37  C2N      -15.4520    3.4240  -25.6660 C.3   800  NAD800      0.1244
     38  C3N      -16.3280    2.6970  -24.7930 C.2   800  NAD800      0.0544
     39  C7N      -17.8380    3.0540  -24.5920 C.2   800  NAD800      0.2818
     40  O7N      -18.6750    2.1560  -24.4100 O.2   800  NAD800     -0.2670
     41  N7N      -18.1920    4.3450  -24.6180 N.am  800  NAD800     -0.0839
     42  C4N      -15.8030    1.5940  -24.0690 C.2   800  NAD800      0.0033
     43  C5N      -14.4470    1.2030  -24.1910 C.2   800  NAD800      0.0157
     44  C6N      -13.5780    1.9060  -25.0400 C.2   800  NAD800      0.0633
@<TRIPOS>BOND
     1    18    17    1
     2    19    17    2
     3    19    20    1
     4    17    16    1
     5    20    21    1
     6    16    15    2
     7    16    22    1
     8    15    14    1
     9    21    22    2
    10    22    13    1
    11    14    13    1
    12    13    12    1
    13    11    10    1
    14    12    10    1
    15    12     7    1
    16    10     8    1
    17     7     6    1
    18     8     9    1
    19     8     6    1
    20     6     5    1
    21     5     4    1
    22     2     1    2
    23     4     1    1
    24     1    23    1
    25     1     3    1
    26    32    31    1
    27    34    33    1
    28    23    24    1
    29    31    33    1
    30    31    29    1
    31    33    35    1
    32    28    27    1
    33    28    29    1
    34    27    24    1
    35    29    30    1
    36    24    25    2
    37    24    26    1
    38    35    30    1
    39    35    36    1
    40    36    37    1
    41    36    44    1
    42    37    38    1
    43    44    43    2
    44    38    39    1
    45    38    42    2
    46    41    39   am
    47    39    40    2
    48    43    42    1
