@<TRIPOS>MOLECULE
1fk9_EFZ_A_1.pdb
 21 23 0 0 0
SMALL
GASTEIGER

@<TRIPOS>ATOM
      1 CL         -2.5520  -35.3570   21.8750 Cl    999  EFZ999     -0.0826
      2  F1         3.1030  -39.5330   20.6530 F     999  EFZ999     -0.1656
      3  F2         1.2910  -39.2200   21.7330 F     999  EFZ999     -0.1656
      4  F3         1.2330  -39.5340   19.6260 F     999  EFZ999     -0.1656
      5  O1         3.4730  -37.3540   17.0970 O.2   999  EFZ999     -0.1694
      6  O2         2.9980  -37.1980   19.2620 O.3   999  EFZ999     -0.3792
      7  N          1.2850  -37.0810   17.6750 N.2   999  EFZ999     -0.3083
      8  C1         0.3440  -36.6360   18.6620 C.2   999  EFZ999      0.1332
      9  C2        -0.9260  -36.1430   18.3080 C.2   999  EFZ999      0.0300
     10  C3        -1.8100  -35.7430   19.3240 C.2   999  EFZ999      0.0134
     11  C4        -1.4490  -35.8480   20.6560 C.2   999  EFZ999      0.0540
     12  C5        -0.2120  -36.3390   21.0180 C.2   999  EFZ999     -0.0031
     13  C6         0.6660  -36.7760   20.0190 C.3   999  EFZ999      0.1341
     14  C7         2.0460  -37.3860   20.3660 C.3   999  EFZ999      0.2966
     15  C8         2.6380  -36.8100   21.5930 C.1   999  EFZ999     -0.0429
     16  C9         3.0920  -36.3400   22.5620 C.1   999  EFZ999     -0.0885
     17  C10        3.7560  -35.6460   23.9670 C.3   999  EFZ999      0.0643
     18  C11        4.1860  -34.5430   23.6190 C.3   999  EFZ999      0.0140
     19  C12        3.0560  -34.6560   24.2110 C.3   999  EFZ999      0.0140
     20  C13        1.9130  -38.9380   20.5960 C.3   999  EFZ999      0.4437
     21  C14        2.6380  -37.2190   17.9350 C.1   999  EFZ999      0.3736
@<TRIPOS>BOND
     1     5    21    2
     2     7    21    2
     3     7     8    2
     4    21     6    1
     5     9     8    1
     6     9    10    2
     7     8    13    1
     8     6    14    1
     9    10    11    1
    10     4    20    1
    11    13    14    1
    12    13    12    1
    13    14    20    1
    14    14    15    1
    15    20     2    1
    16    20     3    1
    17    11    12    2
    18    11     1    1
    19    15    16    3
    20    16    17    1
    21    18    17    1
    22    18    19    1
    23    17    19    1
