@<TRIPOS>MOLECULE
1fkh_SBX_A_1.pdb
 33 35 0 0 0
SMALL
GASTEIGER

@<TRIPOS>ATOM
      1  C1       -24.9340   27.2020   42.8060 C.2   108  SBX108      0.3351
      2  C2       -25.8490   25.9980   42.6170 C.3   108  SBX108      0.1749
      3  C3       -25.4910   25.2720   41.3250 C.3   108  SBX108      0.0314
      4  C4       -25.9240   26.0310   40.0820 C.3   108  SBX108      0.0040
      5  C5       -27.4350   26.1960   40.2140 C.3   108  SBX108      0.0216
      6  C6       -27.7860   26.9930   41.4600 C.3   108  SBX108      0.0943
      7  N7       -27.3020   26.1860   42.5850 N.am  108  SBX108     -0.2656
      8  O1       -23.7450   27.1250   42.5220 O.2   108  SBX108     -0.2483
      9  O2       -25.5560   28.2700   43.2910 O.3   108  SBX108     -0.4511
     10  C8       -28.0550   25.7940   43.6310 C.2   108  SBX108      0.2842
     11  O3       -27.4850   25.3040   44.6070 O.2   108  SBX108     -0.2668
     12  C9       -29.5750   25.8160   43.6950 C.2   108  SBX108      0.2252
     13  O4       -30.1390   24.8210   43.2360 O.2   108  SBX108     -0.2865
     14  C10      -30.3880   26.9080   44.3810 C.3   108  SBX108      0.0601
     15  C11      -29.5400   27.9890   45.0370 C.3   108  SBX108      0.0074
     16  C12      -28.8970   27.5870   46.3970 C.3   108  SBX108      0.0004
     17  C13      -31.2800   26.2970   45.4140 C.3   108  SBX108      0.0079
     18  C14      -31.3790   27.5520   43.4570 C.3   108  SBX108      0.0079
     19  C15      -24.9120   29.5760   43.3480 C.3   108  SBX108      0.1691
     20  C16      -24.3810   29.8820   44.7400 C.3   108  SBX108      0.0483
     21  C17      -23.0100   30.5460   44.7480 C.3   108  SBX108      0.0301
     22  C18      -22.0150   30.2050   45.8310 C.ar  108  SBX108     -0.0221
     23  C19      -22.3100   30.4470   47.1010 C.ar  108  SBX108     -0.0043
     24  C20      -21.5290   30.0090   48.0710 C.ar  108  SBX108     -0.0003
     25  C21      -20.4390   29.3310   47.7650 C.ar  108  SBX108     -0.0000
     26  C22      -20.1320   29.1030   46.5020 C.ar  108  SBX108     -0.0003
     27  C23      -20.9170   29.5410   45.5370 C.ar  108  SBX108     -0.0043
     28  C24      -25.9190   30.6340   42.9670 C.3   108  SBX108      0.0402
     29  C25      -26.1710   30.8150   41.4870 C.3   108  SBX108      0.0036
     30  C26      -26.9240   32.1030   41.3520 C.3   108  SBX108      0.0001
     31  C27      -28.2300   32.0540   42.1330 C.3   108  SBX108      0.0000
     32  C28      -28.0190   31.8070   43.6120 C.3   108  SBX108      0.0001
     33  C29      -27.2150   30.5180   43.7580 C.3   108  SBX108      0.0036
@<TRIPOS>BOND
     1     4     5    1
     2     4     3    1
     3     5     6    1
     4     3     2    1
     5    30    29    1
     6    30    31    1
     7     6     7    1
     8    29    28    1
     9    31    32    1
    10     8     1    2
    11     7     2    1
    12     7    10   am
    13     2     1    1
    14     1     9    1
    15    28    19    1
    16    28    33    1
    17    13    12    2
    18     9    19    1
    19    19    20    1
    20    18    14    1
    21    32    33    1
    22    10    12    1
    23    10    11    2
    24    12    14    1
    25    14    15    1
    26    14    17    1
    27    20    21    1
    28    21    22    1
    29    15    16    1
    30    27    22   ar
    31    27    26   ar
    32    22    23   ar
    33    26    25   ar
    34    23    24   ar
    35    25    24   ar
