@<TRIPOS>MOLECULE
1fki_SB1_A_1.pdb
 31 32 0 0 0
SMALL
GASTEIGER

@<TRIPOS>ATOM
      1  N1         8.2000  -38.3720    0.8770 N.am  109  SB1109     -0.2656
      2  C2         8.7830  -39.3840    1.5490 C.2   109  SB1109      0.2844
      3  O2         9.4950  -39.1460    2.5420 O.2   109  SB1109     -0.2668
      4  C3         8.5570  -40.8410    1.1260 C.2   109  SB1109      0.2288
      5  O3         9.0030  -41.2190    0.0390 O.2   109  SB1109     -0.2864
      6  C4         7.7510  -41.8170    2.0150 C.3   109  SB1109      0.1004
      7  C5         7.0980  -42.9360    1.2220 C.3   109  SB1109      0.2156
      8  O6         6.3130  -42.2040    0.2750 O.3   109  SB1109     -0.4480
      9  C7         5.4490  -42.8090   -0.5010 C.2   109  SB1109      0.3170
     10  O7         5.3030  -44.0240   -0.4610 O.2   109  SB1109     -0.2501
     11  C8         4.7200  -41.9230   -1.4770 C.3   109  SB1109      0.1096
     12  C9         3.4010  -42.4600   -1.9570 C.3   109  SB1109      0.0116
     13  C10        2.8310  -41.5560   -3.0580 C.3   109  SB1109      0.0006
     14  C11        2.1900  -40.2620   -2.5340 C.3   109  SB1109      0.0000
     15  C12        1.3740  -40.4380   -1.2610 C.3   109  SB1109      0.0000
     16  C13        1.1280  -39.0910   -0.6270 C.3   109  SB1109      0.0000
     17  C14        2.3130  -38.6720    0.2170 C.3   109  SB1109      0.0000
     18  C15        2.0550  -37.2730    0.7520 C.3   109  SB1109      0.0001
     19  C16        3.2960  -36.7250    1.4300 C.3   109  SB1109      0.0038
     20  C17        3.6950  -37.5120    2.6810 C.3   109  SB1109      0.0474
     21  C18        4.9390  -36.9370    3.3450 C.3   109  SB1109      0.2085
     22  O19        6.0730  -37.3520    2.5180 O.3   109  SB1109     -0.4474
     23  C20        7.0910  -36.5260    2.2580 C.2   109  SB1109      0.3352
     24  O20        7.1310  -35.3720    2.6740 O.2   109  SB1109     -0.2483
     25  C21        8.2580  -37.0160    1.4190 C.3   109  SB1109      0.1749
     26  C22        8.4830  -36.0780    0.2490 C.3   109  SB1109      0.0314
     27  C23        7.4650  -36.2330   -0.8490 C.3   109  SB1109      0.0040
     28  C24        7.3910  -37.6910   -1.2560 C.3   109  SB1109      0.0216
     29  C25        7.0810  -38.5700   -0.0560 C.3   109  SB1109      0.0943
     30  C26        6.5810  -41.1270    2.7740 C.3   109  SB1109      0.0116
     31  C27        8.6630  -42.4620    3.0960 C.3   109  SB1109      0.0116
@<TRIPOS>BOND
     1    13    14    1
     2    13    12    1
     3    14    15    1
     4    12    11    1
     5    11     9    1
     6    15    16    1
     7    28    27    1
     8    28    29    1
     9    27    26    1
    10    16    17    1
    11     9    10    2
    12     9     8    1
    13    29     1    1
    14     5     4    2
    15    17    18    1
    16    26    25    1
    17     8     7    1
    18    18    19    1
    19     1    25    1
    20     1     2   am
    21     4     2    1
    22     4     6    1
    23     7     6    1
    24    25    23    1
    25    19    20    1
    26     2     3    2
    27     6    30    1
    28     6    31    1
    29    23    22    1
    30    23    24    2
    31    22    21    1
    32    20    21    1
