@<TRIPOS>MOLECULE
1fko_EFZ_A_1.pdb
 21 23 0 0 0
SMALL
GASTEIGER

@<TRIPOS>ATOM
      1 CL         -4.6850  -32.7250   25.2220 Cl    999  EFZ999     -0.0826
      2  F1        -0.7550  -36.6320   25.6970 F     999  EFZ999     -0.1656
      3  F2         1.0780  -37.0430   24.6720 F     999  EFZ999     -0.1656
      4  F3        -0.7840  -37.1770   23.6260 F     999  EFZ999     -0.1656
      5  O1         1.5240  -34.9340   20.9100 O.2   999  EFZ999     -0.1694
      6  O2         0.9890  -34.8800   23.0580 O.3   999  EFZ999     -0.3792
      7  N         -0.6810  -34.9710   21.4340 N.2   999  EFZ999     -0.3083
      8  C1        -1.6620  -34.4140   22.3130 C.2   999  EFZ999      0.1332
      9  C2        -2.9150  -33.9470   21.8430 C.2   999  EFZ999      0.0300
     10  C3        -3.8380  -33.4230   22.7710 C.2   999  EFZ999      0.0134
     11  C4        -3.5330  -33.3730   24.1190 C.2   999  EFZ999      0.0540
     12  C5        -2.3100  -33.8290   24.5930 C.2   999  EFZ999     -0.0031
     13  C6        -1.3860  -34.3780   23.6810 C.3   999  EFZ999      0.1341
     14  C7        -0.0020  -34.9570   24.1440 C.3   999  EFZ999      0.2966
     15  C8         0.5520  -34.2360   25.3150 C.1   999  EFZ999     -0.0429
     16  C9         0.9850  -33.6570   26.2410 C.1   999  EFZ999     -0.0885
     17  C10        1.6050  -32.8020   27.5860 C.3   999  EFZ999      0.0643
     18  C11        2.8080  -33.0830   27.6390 C.3   999  EFZ999      0.0140
     19  C12        2.4040  -31.9800   27.1230 C.3   999  EFZ999      0.0140
     20  C13       -0.1210  -36.4720   24.5390 C.3   999  EFZ999      0.4437
     21  C14        0.6650  -34.9320   21.7250 C.1   999  EFZ999      0.3736
@<TRIPOS>BOND
     1     5    21    2
     2     7    21    2
     3     7     8    2
     4    21     6    1
     5     9     8    1
     6     9    10    2
     7     8    13    1
     8    10    11    1
     9     6    14    1
    10     4    20    1
    11    13    14    1
    12    13    12    1
    13    11    12    2
    14    11     1    1
    15    14    20    1
    16    14    15    1
    17    20     3    1
    18    20     2    1
    19    15    16    3
    20    16    17    1
    21    19    17    1
    22    19    18    1
    23    17    18    1
