@<TRIPOS>MOLECULE
1fkp_NVP_A_1.pdb
 20 23 0 0 0
SMALL
GASTEIGER

@<TRIPOS>ATOM
      1  N1        -0.4400  -35.3170   24.7540 N.pl3 999  NVP999     -0.1562
      2  CA         0.0480  -36.6200   24.2620 C.3   999  NVP999      0.1667
      3  CB         0.4290  -37.6120   25.3020 C.3   999  NVP999      0.0512
      4  CC        -0.8310  -37.7830   24.5280 C.3   999  NVP999      0.0512
      5  N3         1.8440  -34.5860   25.0300 N.2   999  NVP999     -0.0337
      6  C4         2.7600  -33.8230   25.6900 C.2   999  NVP999      0.2316
      7  C5         2.3970  -32.9560   26.7470 C.2   999  NVP999      0.0313
      8  C6         1.0570  -32.8780   27.1180 C.3   999  NVP999      0.0868
      9  CD         0.6490  -31.9800   28.2510 C.3   999  NVP999      0.0126
     10  C2         0.5400  -34.5040   25.4010 C.2   999  NVP999      0.3559
     11  C7         0.1000  -33.6500   26.4290 C.2   999  NVP999      0.2076
     12  N8        -1.3070  -33.4920   26.7130 N.2   999  NVP999     -0.3293
     13  C9        -2.4220  -33.5200   25.9560 C.1   999  NVP999      0.2096
     14  OE        -3.5330  -33.3000   26.4600 O.2   999  NVP999     -0.2091
     15  C10       -2.3370  -33.7700   24.4340 C.ar  999  NVP999      0.1506
     16  C15       -1.3240  -34.6080   23.8610 C.ar  999  NVP999      0.2365
     17  C11       -3.2570  -33.1480   23.5720 C.ar  999  NVP999      0.0194
     18  C12       -3.1450  -33.3560   22.1760 C.ar  999  NVP999      0.0217
     19  C13       -2.1000  -34.1890   21.6900 C.ar  999  NVP999      0.1025
     20  N14       -1.2070  -34.8010   22.5210 N.ar  999  NVP999     -0.2068
@<TRIPOS>BOND
     1    19    18   ar
     2    19    20   ar
     3    18    17   ar
     4    20    16   ar
     5    17    15   ar
     6    16    15   ar
     7    16     1    1
     8     2     4    1
     9     2     1    1
    10     2     3    1
    11    15    13    1
    12     4     3    1
    13     1    10    1
    14     5    10    2
    15     5     6    1
    16    10    11    1
    17     6     7    2
    18    13    14    2
    19    13    12    2
    20    11    12    2
    21    11     8    1
    22     7     8    1
    23     8     9    1
