@<TRIPOS>MOLECULE
1fkw_PUR_A_1.pdb
 18 20 0 0 0
SMALL
GASTEIGER

@<TRIPOS>ATOM
      1  N1         1.4170   20.5820   39.0430 N.2   353  PUR353     -0.2189
      2  C2         2.4140   20.2810   39.8730 C.2   353  PUR353      0.3347
      3  N3         3.5980   19.8370   39.4450 N.2   353  PUR353     -0.0132
      4  C4         3.8150   19.6690   38.1140 C.2   353  PUR353      0.3444
      5  C5         2.8430   19.9510   37.2150 C.2   353  PUR353      0.1644
      6  C6         1.5720   20.4330   37.6710 C.3   353  PUR353      0.1822
      7  N7         3.3330   19.6990   35.9880 N.2   353  PUR353     -0.2187
      8  C8         4.5840   19.2630   36.1240 C.3   353  PUR353      0.3373
      9  N9         4.8960   19.2380   37.4140 N.pl3 353  PUR353     -0.1440
     10  C1'        6.1190   18.7400   37.9560 C.3   353  PUR353      0.3186
     11  C2'        6.5240   17.5220   37.1330 C.3   353  PUR353      0.2570
     12  O2'        6.7250   16.4000   37.9960 O.3   353  PUR353     -0.2130
     13  C3'        7.7910   17.8350   36.2810 C.3   353  PUR353      0.2186
     14  O3'        8.7170   16.7430   36.3000 O.3   353  PUR353     -0.2174
     15  C4'        8.2370   19.0170   37.2670 C.3   353  PUR353      0.1851
     16  O4'        7.1410   19.6880   37.7680 O.3   353  PUR353     -0.3134
     17  C5'        9.2070   20.0290   36.5950 C.3   353  PUR353      0.2143
     18  O5'        8.6900   20.5750   35.3590 O.3   353  PUR353     -0.2176
@<TRIPOS>BOND
     1    18    17    1
     2     7     8    1
     3     7     5    2
     4     8     9    1
     5    13    14    1
     6    13    11    1
     7    13    15    1
     8    17    15    1
     9    11    10    1
    10    11    12    1
    11     5     6    1
    12     5     4    1
    13    15    16    1
    14     9    10    1
    15     9     4    1
    16     6     1    1
    17    16    10    1
    18     4     3    2
    19     1     2    2
    20     3     2    1
