@<TRIPOS>MOLECULE
1fkx_PRH_A_1.pdb
 19 21 0 0 0
SMALL
GASTEIGER

@<TRIPOS>ATOM
      1  N1         1.5880   20.7260   39.2190 N.2   353  PRH353     -0.1458
      2  C2         2.5770   20.3320   40.0160 C.3   353  PRH353      0.4017
      3  N3         3.7090   19.8320   39.5320 N.2   353  PRH353     -0.0334
      4  C4         3.8830   19.6990   38.1720 C.2   353  PRH353      0.3528
      5  C5         2.9200   20.0790   37.3070 C.2   353  PRH353      0.2446
      6  C6         1.6960   20.6300   37.8230 C.1   353  PRH353      0.1792
      7  O6         1.5140   21.9730   37.2600 O.2   353  PRH353     -0.2203
      8  N7         3.3650   19.8370   36.0520 N.2   353  PRH353     -0.2054
      9  C8         4.5880   19.3130   36.1440 C.3   353  PRH353      0.3382
     10  N9         4.9170   19.2210   37.4410 N.pl3 353  PRH353     -0.1435
     11  C1'        6.1400   18.6830   37.9840 C.3   353  PRH353      0.3186
     12  C2'        6.4900   17.4170   37.2300 C.3   353  PRH353      0.2570
     13  O2'        6.7300   16.3570   38.1660 O.3   353  PRH353     -0.2130
     14  C3'        7.7040   17.6620   36.2710 C.3   353  PRH353      0.2186
     15  O3'        8.6190   16.5480   36.2940 O.3   353  PRH353     -0.2174
     16  C4'        8.2300   18.8710   37.1770 C.3   353  PRH353      0.1851
     17  O4'        7.2080   19.5720   37.7880 O.3   353  PRH353     -0.3134
     18  C5'        9.1140   19.8390   36.3770 C.3   353  PRH353      0.2143
     19  O5'        8.3850   20.4690   35.3050 O.3   353  PRH353     -0.2176
@<TRIPOS>BOND
     1    19    18    1
     2     8     9    1
     3     8     5    2
     4     9    10    1
     5    14    15    1
     6    14    16    1
     7    14    12    1
     8    18    16    1
     9    16    17    1
    10    12    11    1
    11    12    13    1
    12     7     6    2
    13     5     6    1
    14     5     4    1
    15    10    11    1
    16    10     4    1
    17    17    11    1
    18     6     1    2
    19     4     3    2
    20     1     2    1
    21     3     2    1
