@<TRIPOS>MOLECULE
1fl3_SPB_A_1.pdb
 23 24 0 0 0
SMALL
GASTEIGER

@<TRIPOS>ATOM
      1  C1        43.9390   37.2380   60.8680 C.ar  226  SPB226      0.0000
      2  C2        45.2760   36.7570   60.8300 C.ar  226  SPB226      0.0000
      3  C3        46.3610   37.6720   60.9780 C.ar  226  SPB226      0.0000
      4  C4        46.1180   39.0440   61.1660 C.ar  226  SPB226      0.0000
      5  C5        44.8130   39.5190   61.2010 C.ar  226  SPB226      0.0000
      6  C6        43.7150   38.6230   61.0570 C.ar  226  SPB226      0.0000
      7  C7        42.3150   39.1450   61.0910 C.2   226  SPB226      0.0000
      8  C8        41.9890   40.4310   61.3720 C.2   226  SPB226      0.0000
      9  C9        40.5850   40.9650   61.3940 C.ar  226  SPB226      0.0001
     10  C10       39.4950   40.0810   61.2150 C.ar  226  SPB226      0.0013
     11  C11       38.1820   40.5600   61.2270 C.ar  226  SPB226      0.0166
     12  C12       37.9020   41.9420   61.4040 C.ar  226  SPB226      0.0734
     13  C13       38.9900   42.8480   61.5900 C.ar  226  SPB226      0.0166
     14  C14       40.3400   42.3530   61.5880 C.ar  226  SPB226      0.0013
     15  N15       36.5010   42.2850   61.3550 N.am  226  SPB226     -0.1792
     16  C16       35.7620   43.3850   61.3990 C.2   226  SPB226      0.2456
     17  C17       34.2490   43.1330   61.3810 C.3   226  SPB226      0.0878
     18  C18       33.4240   44.2870   60.9060 C.3   226  SPB226      0.0214
     19  C19       31.9500   43.9660   60.9600 C.3   226  SPB226      0.1146
     20  C20       31.1090   45.1200   60.5090 C.2   226  SPB226      0.3649
     21  O21       30.0800   44.7090   59.6950 O.co2 226  SPB226     -0.2457
     22  O22       36.1770   44.5360   61.4650 O.2   226  SPB226     -0.2730
     23  O23       31.3820   46.2610   60.7740 O.co2 226  SPB226     -0.2457
@<TRIPOS>BOND
     1    21    20   ar
     2    20    23   ar
     3    20    19    1
     4     2     1   ar
     5     2     3   ar
     6     1     6   ar
     7    18    19    1
     8    18    17    1
     9     3     4   ar
    10     6     7    1
    11     6     5   ar
    12     7     8    2
    13     4     5   ar
    14    10    11   ar
    15    10     9   ar
    16    11    12   ar
    17    15    16   am
    18    15    12    1
    19     8     9    1
    20    17    16    1
    21     9    14   ar
    22    16    22    2
    23    12    13   ar
    24    14    13   ar
