@<TRIPOS>MOLECULE
1fl6_AAH_B_1.pdb
 23 23 0 0 0
SMALL
GASTEIGER

@<TRIPOS>ATOM
      1  C1       -17.6880   22.3530   23.2660 C.ar  824  AAH824      0.0238
      2  C2       -17.5690   23.6030   23.9280 C.ar  824  AAH824     -0.0012
      3  C3       -17.8850   24.8220   23.2070 C.ar  824  AAH824     -0.0060
      4  C4       -18.3010   24.7420   21.8670 C.ar  824  AAH824     -0.0012
      5  C5       -18.4140   23.4840   21.2050 C.ar  824  AAH824      0.0238
      6  C6       -18.1100   22.2960   21.9020 C.ar  824  AAH824      0.1429
      7  N7       -18.2280   20.9650   21.2100 N.pl3 824  AAH824      0.0577
      8  O8       -17.9720   19.9640   21.7790 O.2   824  AAH824     -0.1261
      9  O9       -18.5870   20.8880   20.0750 O.2   824  AAH824     -0.1261
     10  C10      -17.7650   26.1880   23.9110 C.3   824  AAH824      0.0995
     11  N11      -18.7170   26.5340   25.0290 N.3   824  AAH824     -0.2628
     12  C12      -18.0760   26.3320   26.3910 C.3   824  AAH824      0.1321
     13  P13      -19.0000   26.5880   27.9720 P.3   824  AAH824      0.1333
     14  O14      -19.5700   28.0390   28.0980 O.2   824  AAH824     -0.4587
     15  O15      -20.2650   25.5790   28.1470 O.3   824  AAH824     -0.3562
     16  O16      -18.0320   26.3200   29.0160 O.3   824  AAH824     -0.3562
     17  C17      -20.1280   25.8260   24.9600 C.3   824  AAH824      0.0728
     18  C18      -21.3270   26.7920   25.1330 C.3   824  AAH824      0.0179
     19  C19      -21.1730   28.0670   24.2750 C.3   824  AAH824      0.0132
     20  C20      -21.5570   27.7650   22.8140 C.3   824  AAH824      0.1141
     21  C21      -20.7040   28.5900   21.8550 C.2   824  AAH824      0.3649
     22  O22      -19.4110   28.9670   22.1780 O.co2 824  AAH824     -0.2457
     23  O23      -21.1860   28.9160   20.7750 O.co2 824  AAH824     -0.2457
@<TRIPOS>BOND
     1     9     7    2
     2    23    21   ar
     3     5     4   ar
     4     5     6   ar
     5     7     8    2
     6     7     6    1
     7    21    22   ar
     8    21    20    1
     9     4     3   ar
    10     6     1   ar
    11    20    19    1
    12     3    10    1
    13     3     2   ar
    14     1     2   ar
    15    10    11    1
    16    19    18    1
    17    17    11    1
    18    17    18    1
    19    11    12    1
    20    12    13    1
    21    13    14    2
    22    13    15    1
    23    13    16    1
