@<TRIPOS>MOLECULE
1fla_FMN_A_1.pdb
 31 33 0 0 0
SMALL
GASTEIGER

@<TRIPOS>ATOM
      1  N1        27.8170   14.1080   16.1250 N.2   139  FMN139     -0.2887
      2  C2        27.9300   13.8410   17.4580 C.1   139  FMN139      0.3669
      3  O2        26.9570   13.5990   18.1380 O.2   139  FMN139     -0.1744
      4  N3        29.2300   13.8530   18.0580 N.2   139  FMN139     -0.2300
      5  C4        30.4230   14.0730   17.3750 C.1   139  FMN139      0.2513
      6  O4        31.5180   14.0380   17.9650 O.2   139  FMN139     -0.2057
      7  C4A       30.2610   14.3540   15.9140 C.2   139  FMN139      0.2706
      8  N5        31.3300   14.5010   15.1400 N.2   139  FMN139     -0.3841
      9  C5A       31.1510   14.5710   13.8020 C.2   139  FMN139      0.1452
     10  C6        32.2900   14.5580   12.9590 C.2   139  FMN139      0.0252
     11  C7        32.1720   14.7000   11.6150 C.2   139  FMN139     -0.0375
     12  C7M       33.3730   14.6780   10.7330 C.3   139  FMN139      0.0268
     13  C8        30.8870   14.8440   11.0300 C.3   139  FMN139      0.0417
     14  C8M       30.7410   15.0510    9.5400 C.3   139  FMN139      0.0091
     15  C9        29.7560   14.7880   11.8300 C.2   139  FMN139     -0.0049
     16  C9A       29.8680   14.6850   13.2120 C.2   139  FMN139      0.0795
     17  N10       28.7810   14.5340   14.0330 N.pl3 139  FMN139     -0.2545
     18  C10       28.8910   14.3720   15.3900 C.2   139  FMN139      0.2449
     19  C1'       27.4710   14.4650   13.4030 C.3   139  FMN139      0.1336
     20  C2'       26.8570   15.8430   13.1240 C.3   139  FMN139      0.2048
     21  O2'       26.9320   16.6620   14.2860 O.3   139  FMN139     -0.2185
     22  C3'       25.4030   15.6680   12.7570 C.3   139  FMN139      0.2165
     23  O3'       25.2990   14.9600   11.5240 O.3   139  FMN139     -0.2175
     24  C4'       24.6590   16.9930   12.6390 C.3   139  FMN139      0.2147
     25  O4'       23.3060   16.7210   12.2840 O.3   139  FMN139     -0.2176
     26  C5'       25.2750   17.8540   11.5420 C.3   139  FMN139      0.1892
     27  O5'       24.5440   19.0570   11.4310 O.3   139  FMN139     -0.2674
     28  P         24.9160   20.0980   10.3080 P.3   139  FMN139      0.5327
     29  O1P       26.3650   20.1390   10.1610 O.3   139  FMN139     -0.1145
     30  O2P       24.2640   21.3380   10.7920 O.3   139  FMN139     -0.1145
     31  O3P       24.3520   19.7250    8.9650 O.2   139  FMN139     -0.2224
@<TRIPOS>BOND
     1    31    28    2
     2    14    13    1
     3    29    28    1
     4    28    30    1
     5    28    27    1
     6    12    11    1
     7    13    11    1
     8    13    15    1
     9    27    26    1
    10    23    22    1
    11    26    24    1
    12    11    10    2
    13    15    16    2
    14    25    24    1
    15    24    22    1
    16    22    20    1
    17    10     9    1
    18    20    19    1
    19    20    21    1
    20    16     9    1
    21    16    17    1
    22    19    17    1
    23     9     8    2
    24    17    18    1
    25     8     7    2
    26    18     7    1
    27    18     1    2
    28     7     5    1
    29     1     2    2
    30     5     6    2
    31     5     4    2
    32     2     4    2
    33     2     3    2
