@<TRIPOS>MOLECULE
1fld_FMN_A_1.pdb
 31 33 0 0 0
SMALL
GASTEIGER

@<TRIPOS>ATOM
      1  N1        27.9180   14.2010   15.9590 N.2   139  FMN139     -0.2890
      2  C2        28.0590   13.9960   17.2860 C.1   139  FMN139      0.3669
      3  O2        27.0790   13.7890   17.9750 O.2   139  FMN139     -0.1744
      4  N3        29.3570   14.0060   17.8610 N.2   139  FMN139     -0.2300
      5  C4        30.5490   14.1590   17.1730 C.1   139  FMN139      0.2513
      6  O4        31.6590   14.1170   17.7280 O.2   139  FMN139     -0.2057
      7  C4A       30.3760   14.3670   15.7170 C.2   139  FMN139      0.2700
      8  N5        31.4410   14.4850   14.9600 N.2   139  FMN139     -0.3878
      9  C5A       31.2540   14.6120   13.6070 C.2   139  FMN139      0.1320
     10  C6        32.3690   14.7200   12.7650 C.2   139  FMN139      0.0250
     11  C7        32.2310   15.0270   11.4410 C.2   139  FMN139     -0.0238
     12  C7M       33.4350   15.1910   10.5590 C.3   139  FMN139      0.0308
     13  C8        30.9350   15.1700   10.8800 C.2   139  FMN139     -0.0280
     14  C8M       30.7250   15.4630    9.4160 C.3   139  FMN139      0.0304
     15  C9        29.8290   15.0120   11.6770 C.2   139  FMN139     -0.0041
     16  C9A       29.9570   14.7430   13.0370 C.3   139  FMN139      0.1497
     17  N10       28.8520   14.5730   13.8670 N.pl3 139  FMN139     -0.2691
     18  C10       28.9940   14.3740   15.2120 C.2   139  FMN139      0.2416
     19  C1'       27.5150   14.5760   13.2750 C.3   139  FMN139      0.1294
     20  C2'       26.9180   15.9780   13.0720 C.3   139  FMN139      0.2044
     21  O2'       26.9800   16.7920   14.2470 O.3   139  FMN139     -0.2185
     22  C3'       25.4560   15.8400   12.6380 C.3   139  FMN139      0.2164
     23  O3'       25.3950   15.1280   11.4000 O.3   139  FMN139     -0.2175
     24  C4'       24.6720   17.1480   12.5120 C.3   139  FMN139      0.2147
     25  O4'       23.3070   16.8520   12.2020 O.3   139  FMN139     -0.2176
     26  C5'       25.2650   18.0180   11.4080 C.3   139  FMN139      0.1892
     27  O5'       24.5540   19.2320   11.3520 O.3   139  FMN139     -0.2674
     28  P         24.8650   20.2710   10.2010 P.3   139  FMN139      0.5327
     29  O1P       24.3870   19.8370    8.9060 O.2   139  FMN139     -0.2224
     30  O2P       24.3330   21.5350   10.7100 O.3   139  FMN139     -0.1145
     31  O3P       26.3670   20.3860   10.1440 O.3   139  FMN139     -0.1145
@<TRIPOS>BOND
     1    29    28    2
     2    14    13    1
     3    31    28    1
     4    28    30    1
     5    28    27    1
     6    12    11    1
     7    13    11    1
     8    13    15    2
     9    27    26    1
    10    23    22    1
    11    26    24    1
    12    11    10    2
    13    15    16    1
    14    25    24    1
    15    24    22    1
    16    22    20    1
    17    10     9    1
    18    16     9    1
    19    16    17    1
    20    20    19    1
    21    20    21    1
    22    19    17    1
    23     9     8    2
    24    17    18    1
    25     8     7    2
    26    18     7    1
    27    18     1    2
    28     7     5    1
    29     1     2    2
    30     5     6    2
    31     5     4    2
    32     2     4    2
    33     2     3    2
