@<TRIPOS>MOLECULE
1flg_PQQ_A_1.pdb
 24 26 0 0 0
SMALL
GASTEIGER

@<TRIPOS>ATOM
      1  N1         8.4970   63.0860   46.9880 N.2   701  PQQ701     -0.4073
      2  C2         8.0360   63.8650   45.9880 C.2   701  PQQ701      0.1878
      3  C2X        7.9810   63.3080   44.6730 C.2   701  PQQ701      0.4126
      4  O2A        8.4170   62.1940   44.3940 O.co2 701  PQQ701     -0.2380
      5  O2B        7.0260   63.6980   43.9660 O.co2 701  PQQ701     -0.2380
      6  C3         7.6850   65.1070   46.4850 C.3   701  PQQ701      0.0753
      7  C3A        7.9350   65.0280   47.8090 C.3   701  PQQ701      0.0895
      8  C1A        8.7170   63.9080   48.0620 C.2   701  PQQ701      0.0994
      9  C4         7.6910   65.9160   48.8630 C.3   701  PQQ701      0.1953
     10  O4         7.7160   67.3040   48.5820 O.3   701  PQQ701     -0.2195
     11  C5         8.5200   65.6830   49.9840 C.3   701  PQQ701      0.2304
     12  O5         8.5410   66.8400   50.7540 O.3   701  PQQ701     -0.2131
     13  C6A        9.0290   64.4670   50.4190 C.2   701  PQQ701      0.1299
     14  N6         9.6750   64.4290   51.5660 N.2   701  PQQ701     -0.4005
     15  C7         9.9960   63.2710   52.1660 C.2   701  PQQ701      0.2099
     16  C7X       10.6070   63.3410   53.4540 C.2   701  PQQ701      0.4168
     17  O7A       10.7280   64.4620   54.0420 O.co2 701  PQQ701     -0.2377
     18  O7B       11.0950   62.4830   54.2510 O.co2 701  PQQ701     -0.2377
     19  C8        10.2060   62.3650   51.1550 C.2   701  PQQ701      0.0419
     20  C9         9.7650   62.3480   49.8650 C.2   701  PQQ701      0.0727
     21  C9X        9.9370   61.1170   49.2390 C.2   701  PQQ701      0.3847
     22  O9A       10.5790   60.2450   49.8880 O.co2 701  PQQ701     -0.2409
     23  O9B        9.5190   60.8880   48.1200 O.co2 701  PQQ701     -0.2409
     24  C9A        9.0020   63.4240   49.4050 C.3   701  PQQ701      0.1274
@<TRIPOS>BOND
     1     5     3   ar
     2     4     3   ar
     3     3     2    1
     4     2     6    1
     5     2     1    2
     6     6     7    1
     7     1     8    2
     8     7     8    1
     9     7     9    1
    10     8    24    1
    11    23    21   ar
    12    10     9    1
    13     9    11    1
    14    21    20    1
    15    21    22   ar
    16    24    20    1
    17    24    13    1
    18    20    19    2
    19    11    13    1
    20    11    12    1
    21    13    14    2
    22    19    15    1
    23    14    15    2
    24    15    16    1
    25    16    17   ar
    26    16    18   ar
