@<TRIPOS>MOLECULE
1flj_GSH_A_1.pdb
 25 24 0 0 0
SMALL
GASTEIGER

@<TRIPOS>ATOM
      1  N1        39.3370  -19.2060   -2.7520 N.4   1183  GSH1183     0.3888
      2  CA1       38.9890  -17.7750   -2.5300 C.3   1183  GSH1183     0.0408
      3  C1        38.6970  -17.0750   -3.8580 C.2   1183  GSH1183     0.3448
      4  O11       39.6420  -16.8400   -4.6400 O.co2 1183  GSH1183    -0.2480
      5  O12       37.5110  -16.7790   -4.1000 O.co2 1183  GSH1183    -0.2480
      6  CB1       40.1170  -17.0600   -1.7710 C.3   1183  GSH1183    -0.0013
      7  CG1       39.9430  -15.5500   -1.6660 C.3   1183  GSH1183     0.0835
      8  CD1       40.7670  -14.9380   -0.5520 C.2   1183  GSH1183     0.2227
      9  OE1       41.8470  -14.3910   -0.7870 O.2   1183  GSH1183    -0.2751
     10  N2        40.2460  -15.0130    0.6660 N.am  1183  GSH1183    -0.2976
     11  CA2       40.9330  -14.4590    1.8210 C.3   1183  GSH1183     0.1603
     12  C2        40.9320  -15.4810    2.9550 C.2   1183  GSH1183     0.2417
     13  O2        40.4460  -16.6020    2.7910 O.2   1183  GSH1183    -0.2733
     14  CB2       40.2380  -13.1780    2.2850 C.3   1183  GSH1183     0.0976
     15  SG2       39.7560  -11.9980    0.9800 S.3   1183  GSH1183    -0.0798
     16  N3        41.4590  -15.0870    4.1100 N.am  1183  GSH1183    -0.2935
     17  CA3       41.5100  -15.9860    5.2490 C.3   1183  GSH1183     0.2051
     18  C3        42.8660  -16.6350    5.4350 C.2   1183  GSH1183     0.3845
     19  O31       42.9780  -17.4560    6.3670 O.co2 1183  GSH1183    -0.2437
     20  O32       43.8620  -16.0540    4.9500 O.co2 1183  GSH1183    -0.2437
     21 HN11       40.1420  -19.4310   -2.1390 H     1183  GSH1183    -0.0885
     22 HN12       39.5870  -19.3860   -3.7430 H     1183  GSH1183    -0.0885
     23  HN2       39.3800  -15.4380    0.8480 H     1183  GSH1183     0.1498
     24  HN3       41.8230  -14.1790    4.2110 H     1183  GSH1183     0.1500
     25 HN13       38.5190  -19.7900   -2.4810 H     1183  GSH1183    -0.0885
@<TRIPOS>BOND
     1     4     3   ar
     2     5     3   ar
     3     3     2    1
     4    22     1    1
     5     1     2    1
     6     1    25    1
     7     1    21    1
     8     2     6    1
     9     6     7    1
    10     7     8    1
    11     9     8    2
    12     8    10   am
    13    10    23    1
    14    10    11    1
    15    15    14    1
    16    11    14    1
    17    11    12    1
    18    13    12    2
    19    12    16   am
    20    16    24    1
    21    16    17    1
    22    20    18   ar
    23    17    18    1
    24    18    19   ar
