@<TRIPOS>MOLECULE
1flm_FMN_A_1.pdb
 31 33 0 0 0
SMALL
GASTEIGER

@<TRIPOS>ATOM
      1  N1        23.2470   26.2320   26.9460 N.2   123  FMN123     -0.2890
      2  C2        24.0320   27.1060   27.6050 C.1   123  FMN123      0.3669
      3  O2        24.0320   27.2660   28.7810 O.2   123  FMN123     -0.1744
      4  N3        25.0800   27.7840   26.9080 N.2   123  FMN123     -0.2300
      5  C4        25.3200   27.6760   25.5850 C.1   123  FMN123      0.2513
      6  O4        26.2670   28.2890   25.0370 O.2   123  FMN123     -0.2057
      7  C4A       24.4170   26.8250   24.8430 C.2   123  FMN123      0.2700
      8  N5        24.5920   26.6480   23.5720 N.2   123  FMN123     -0.3878
      9  C5A       23.8440   25.7070   22.9450 C.2   123  FMN123      0.1320
     10  C6        24.1030   25.4270   21.5640 C.2   123  FMN123      0.0250
     11  C7        23.4120   24.4630   20.9000 C.2   123  FMN123     -0.0238
     12  C7M       23.6280   24.0830   19.4270 C.3   123  FMN123      0.0308
     13  C8        22.2680   23.8380   21.5200 C.2   123  FMN123     -0.0280
     14  C8M       21.4650   22.8020   20.7590 C.3   123  FMN123      0.0304
     15  C9        22.0230   24.0410   22.8590 C.2   123  FMN123     -0.0041
     16  C9A       22.7960   24.9480   23.5890 C.3   123  FMN123      0.1497
     17  N10       22.6290   25.1970   24.9530 N.pl3 123  FMN123     -0.2691
     18  C10       23.3950   26.0980   25.6210 C.2   123  FMN123      0.2416
     19  C1'       21.5940   24.4710   25.7450 C.3   123  FMN123      0.1294
     20  C2'       22.3380   23.3510   26.4730 C.3   123  FMN123      0.2044
     21  O2'       22.7340   22.3610   25.5190 O.3   123  FMN123     -0.2185
     22  C3'       21.4680   22.6670   27.5550 C.3   123  FMN123      0.2164
     23  O3'       20.2720   22.1120   26.8650 O.3   123  FMN123     -0.2175
     24  C4'       20.9270   23.6320   28.5700 C.3   123  FMN123      0.2147
     25  O4'       21.9530   24.5310   29.0410 O.3   123  FMN123     -0.2176
     26  C5'       20.4090   22.9140   29.8140 C.3   123  FMN123      0.1892
     27  O5'       21.5000   22.2020   30.4500 O.3   123  FMN123     -0.2674
     28  P         21.2680   21.0560   31.5140 P.3   123  FMN123      0.5327
     29  O1P       20.5500   19.9260   30.8130 O.2   123  FMN123     -0.2224
     30  O2P       20.3810   21.6690   32.6260 O.3   123  FMN123     -0.1145
     31  O3P       22.6700   20.6720   31.9990 O.3   123  FMN123     -0.1145
@<TRIPOS>BOND
     1    12    11    1
     2    14    13    1
     3    11    13    1
     4    11    10    2
     5    13    15    2
     6    10     9    1
     7    15    16    1
     8     9     8    2
     9     9    16    1
    10     8     7    2
    11    16    17    1
    12     7     5    1
    13     7    18    1
    14    17    18    1
    15    17    19    1
    16     6     5    2
    17    21    20    1
    18     5     4    2
    19    18     1    2
    20    19    20    1
    21    20    22    1
    22    23    22    1
    23     4     2    2
    24     1     2    2
    25    22    24    1
    26     2     3    2
    27    24    25    1
    28    24    26    1
    29    26    27    1
    30    27    28    1
    31    29    28    2
    32    28    31    1
    33    28    30    1
