@<TRIPOS>MOLECULE
1fln_FMN_A_1.pdb
 31 33 0 0 0
SMALL
GASTEIGER

@<TRIPOS>ATOM
      1  N1        27.9420   14.2210   16.0510 N.2   139  FMN139     -0.2890
      2  C2        28.0620   14.0440   17.3530 C.1   139  FMN139      0.3669
      3  O2        27.1040   13.7620   17.9980 O.2   139  FMN139     -0.1744
      4  N3        29.3340   14.1670   17.9650 N.2   139  FMN139     -0.2300
      5  C4        30.5300   14.3220   17.2740 C.1   139  FMN139      0.2513
      6  O4        31.6490   14.2990   17.7890 O.2   139  FMN139     -0.2057
      7  C4A       30.3700   14.4890   15.8200 C.2   139  FMN139      0.2700
      8  N5        31.4470   14.6150   15.0770 N.2   139  FMN139     -0.3878
      9  C5A       31.2830   14.7210   13.7220 C.2   139  FMN139      0.1320
     10  C6        32.4370   14.7760   12.8890 C.2   139  FMN139      0.0250
     11  C7        32.3380   14.9230   11.5260 C.2   139  FMN139     -0.0238
     12  C7M       33.5740   14.9750   10.6780 C.3   139  FMN139      0.0308
     13  C8        31.0490   15.0040   10.9360 C.2   139  FMN139     -0.0280
     14  C8M       30.8630   15.2100    9.4500 C.3   139  FMN139      0.0304
     15  C9        29.9190   14.8950   11.7360 C.2   139  FMN139     -0.0041
     16  C9A       30.0120   14.7870   13.1320 C.3   139  FMN139      0.1497
     17  N10       28.8950   14.6150   13.9570 N.pl3 139  FMN139     -0.2691
     18  C10       29.0090   14.4430   15.3060 C.2   139  FMN139      0.2416
     19  C1'       27.5760   14.5430   13.3480 C.3   139  FMN139      0.1294
     20  C2'       26.9250   15.9220   13.1530 C.3   139  FMN139      0.2044
     21  O2'       26.9490   16.6850   14.3610 O.3   139  FMN139     -0.2185
     22  C3'       25.4750   15.7320   12.7130 C.3   139  FMN139      0.2164
     23  O3'       25.4370   14.9740   11.5010 O.3   139  FMN139     -0.2175
     24  C4'       24.6570   17.0220   12.5450 C.3   139  FMN139      0.2147
     25  O4'       23.3220   16.6840   12.1740 O.3   139  FMN139     -0.2176
     26  C5'       25.2180   17.8730   11.4060 C.3   139  FMN139      0.1892
     27  O5'       24.5470   19.1390   11.3290 O.3   139  FMN139     -0.2674
     28  P         24.9340   20.1900   10.2540 P.3   139  FMN139      0.5327
     29  O1P       24.2800   21.4140   10.7310 O.3   139  FMN139     -0.1145
     30  O2P       26.4010   20.2160   10.0850 O.3   139  FMN139     -0.1145
     31  O3P       24.3010   19.8130    8.9240 O.2   139  FMN139     -0.2224
@<TRIPOS>BOND
     1    31    28    2
     2    14    13    1
     3    30    28    1
     4    28    29    1
     5    28    27    1
     6    12    11    1
     7    13    11    1
     8    13    15    2
     9    27    26    1
    10    26    24    1
    11    23    22    1
    12    11    10    2
    13    15    16    1
    14    25    24    1
    15    24    22    1
    16    22    20    1
    17    10     9    1
    18    16     9    1
    19    16    17    1
    20    20    19    1
    21    20    21    1
    22    19    17    1
    23     9     8    2
    24    17    18    1
    25     8     7    2
    26    18     7    1
    27    18     1    2
    28     7     5    1
    29     1     2    2
    30     5     6    2
    31     5     4    2
    32     2     4    2
    33     2     3    2
