@<TRIPOS>MOLECULE
1flp_HEM_A_1.pdb
 43 50 0 0 0
SMALL
GASTEIGER

@<TRIPOS>ATOM
      1 FE          4.8220    4.2510   15.2930 Fe    143  HEM143      0.0000
      2  CHA        5.4740    6.9320   17.2780 C.2   143  HEM143      0.0000
      3  CHB        8.1160    3.2280   15.5370 C.2   143  HEM143      0.0000
      4  CHC        4.1400    1.4370   13.4970 C.2   143  HEM143      0.0000
      5  CHD        1.6640    5.3030   14.7880 C.2   143  HEM143      0.0000
      6  NA         6.3730    4.8420   16.2590 N.2   143  HEM143      0.0000
      7  C1A        6.5120    6.0090   17.0370 C.2   143  HEM143      0.0000
      8  C2A        7.8350    6.0610   17.6830 C.2   143  HEM143      0.0000
      9  C3A        8.5750    5.0510   17.1730 C.2   143  HEM143      0.0000
     10  C4A        7.6630    4.2990   16.3230 C.2   143  HEM143      0.0000
     11  CMA       10.0430    4.7280   17.5140 C.3   143  HEM143      0.0000
     12  CAA        8.2510    7.0450   18.7880 C.3   143  HEM143      0.0000
     13  CBA        8.1360    6.4330   20.2130 C.3   143  HEM143      0.0000
     14  CGA        6.7300    6.4520   20.6520 C.2   143  HEM143      0.0000
     15  O1A        6.1990    7.5590   20.8850 O.co2 143  HEM143      0.0000
     16  O2A        6.0810    5.4310   20.5430 O.co2 143  HEM143      0.0000
     17  NB         5.9630    2.6570   14.5160 N.ar  143  HEM143      0.0000
     18  C1B        7.3020    2.4680   14.7160 C.ar  143  HEM143      0.0000
     19  C2B        7.7000    1.2320   14.0550 C.ar  143  HEM143      0.0000
     20  C3B        6.5800    0.6880   13.5300 C.ar  143  HEM143      0.0000
     21  C4B        5.4560    1.5760   13.8740 C.ar  143  HEM143      0.0000
     22  CMB        9.2090    0.8340   14.0540 C.3   143  HEM143      0.0000
     23  CAB        6.2440   -0.5930   12.7990 C.2   143  HEM143      0.0000
     24  CBB        7.0760   -1.6340   12.5100 C.2   143  HEM143      0.0000
     25  NC         3.3360    3.6130   14.2980 N.2   143  HEM143      0.0000
     26  C1C        3.1250    2.3740   13.6720 C.2   143  HEM143      0.0000
     27  C2C        1.7770    2.1600   13.1100 C.2   143  HEM143      0.0000
     28  C3C        1.1080    3.2830   13.4550 C.2   143  HEM143      0.0000
     29  C4C        2.0420    4.0870   14.2140 C.2   143  HEM143      0.0000
     30  CMC        1.3350    1.0100   12.2330 C.3   143  HEM143      0.0000
     31  CAC       -0.3440    3.7470   13.1750 C.2   143  HEM143      0.0000
     32  CBC       -1.3640    2.8870   12.9230 C.2   143  HEM143      0.0000
     33  ND         3.8040    5.8210   15.8580 N.ar  143  HEM143      0.0000
     34  C1D        2.4790    6.0850   15.5590 C.ar  143  HEM143      0.0000
     35  C2D        2.0650    7.3590   16.1280 C.ar  143  HEM143      0.0000
     36  C3D        3.1030    7.8060   16.8540 C.ar  143  HEM143      0.0000
     37  C4D        4.2280    6.8690   16.6730 C.ar  143  HEM143      0.0000
     38  CMD        0.6920    8.0210   15.8410 C.3   143  HEM143      0.0000
     39  CAD        3.1840    9.2060   17.4840 C.3   143  HEM143      0.0000
     40  CBD        3.4070   10.3030   16.4160 C.3   143  HEM143      0.0000
     41  CGD        3.5060   11.6720   17.0310 C.2   143  HEM143      0.0000
     42  O1D        4.5950   12.0150   17.5060 O.co2 143  HEM143      0.0000
     43  O2D        2.4680   12.3160   17.2270 O.co2 143  HEM143      0.0000
@<TRIPOS>BOND
     1    30    27    1
     2    24    23    2
     3    23    20    1
     4    32    31    2
     5    27    28    2
     6    27    26    1
     7    31    28    1
     8    28    29    1
     9     4    26    2
    10     4    21    1
    11    20    21   ar
    12    20    19   ar
    13    26    25    1
    14    21    17   ar
    15    22    19    1
    16    19    18   ar
    17    29    25    2
    18    29     5    1
    19    25     1    1
    20    17    18   ar
    21    17     1    1
    22    18     3    1
    23     5    34    2
    24     1    33    1
    25     1     6    1
    26     3    10    2
    27    34    33   ar
    28    34    35   ar
    29    38    35    1
    30    33    37   ar
    31    35    36   ar
    32     6    10    1
    33     6     7    2
    34    10     9    1
    35    40    41    1
    36    40    39    1
    37    37    36   ar
    38    37     2    2
    39    36    39    1
    40    41    43   ar
    41    41    42   ar
    42     7     2    1
    43     7     8    1
    44     9    11    1
    45     9     8    2
    46     8    12    1
    47    12    13    1
    48    13    14    1
    49    16    14   ar
    50    14    15   ar
