@<TRIPOS>MOLECULE
1flr_FLU_L_1.pdb
 25 28 0 0 0
SMALL
GASTEIGER

@<TRIPOS>ATOM
      1  C1        28.8520   22.3110   42.3360 C.ar  600  FLU600      0.1988
      2  O1        29.9320   21.9760   42.8260 O.2   600  FLU600     -0.2865
      3  C2        28.1010   21.2550   41.7650 C.ar  600  FLU600      0.0794
      4  C3        26.8930   21.6920   41.2150 C.ar  600  FLU600      0.1480
      5  O2        26.1410   20.5740   40.5740 O.2   600  FLU600     -0.4572
      6  C4        25.1010   21.0270   40.1180 C.ar  600  FLU600      0.1304
      7  C5        24.4280   19.9240   39.5570 C.3   600  FLU600      0.1334
      8  C6        23.2250   20.2720   38.9490 C.2   600  FLU600      0.1807
      9  O3        22.5710   19.3660   38.4320 O.2   600  FLU600     -0.2909
     10  C7        22.7230   21.5430   38.9370 C.2   600  FLU600      0.0380
     11  C8        23.4320   22.6160   39.5330 C.2   600  FLU600      0.0057
     12  C9        24.6420   22.2740   40.1320 C.ar  600  FLU600      0.0310
     13  C10       25.2870   23.4290   40.7560 C.ar  600  FLU600      0.0058
     14  C11       26.4210   22.9380   41.2590 C.ar  600  FLU600      0.0348
     15  C12       27.1540   23.9820   41.9020 C.ar  600  FLU600      0.0063
     16  C13       28.4020   23.5650   42.4050 C.ar  600  FLU600      0.0422
     17  C14       24.7860   24.6530   40.7450 C.ar  600  FLU600      0.0066
     18  C15       24.6170   25.4250   39.6050 C.ar  600  FLU600      0.0002
     19  C16       24.0090   26.6640   39.5340 C.ar  600  FLU600      0.0000
     20  C17       23.5240   27.2540   40.7490 C.ar  600  FLU600      0.0002
     21  C18       23.7450   26.4400   41.8670 C.ar  600  FLU600      0.0066
     22  C19       24.3020   25.1910   41.9690 C.ar  600  FLU600      0.0798
     23  C20       24.3340   24.6720   43.2830 C.2   600  FLU600      0.3878
     24  O4        23.7640   23.4100   43.2770 O.co2 600  FLU600     -0.2406
     25  O5        24.8540   25.1510   44.4230 O.co2 600  FLU600     -0.2406
@<TRIPOS>BOND
     1     9     8    2
     2    10     8    1
     3    10    11    2
     4     8     7    1
     5    11    12    1
     6    19    18   ar
     7    19    20   ar
     8     7     6    1
     9    18    17   ar
    10     6    12   ar
    11     6     5   ar
    12    12    13   ar
    13     5     4   ar
    14    17    13    1
    15    17    22   ar
    16    20    21   ar
    17    13    14   ar
    18     4    14    1
    19     4     3   ar
    20    14    15   ar
    21     3     1   ar
    22    21    22   ar
    23    15    16   ar
    24    22    23    1
    25     1    16   ar
    26     1     2    2
    27    24    23   ar
    28    23    25   ar
