@<TRIPOS>MOLECULE
1flv_FMN_A_1.pdb
 31 33 0 0 0
SMALL
GASTEIGER

@<TRIPOS>ATOM
      1  N1        17.1310    7.2770    2.4890 N.2   170  FMN170     -0.2890
      2  C2        17.6990    6.0540    2.5870 C.1   170  FMN170      0.3669
      3  O2        17.0590    5.0070    2.5200 O.2   170  FMN170     -0.1744
      4  N3        19.0790    6.0350    2.8070 N.2   170  FMN170     -0.2300
      5  C4        19.9170    7.1460    3.1230 C.1   170  FMN170      0.2513
      6  O4        21.1260    6.9980    3.3120 O.2   170  FMN170     -0.2057
      7  C4A       19.2070    8.3810    3.1300 C.2   170  FMN170      0.2697
      8  N5        19.7760    9.6230    3.3110 N.2   170  FMN170     -0.3922
      9  C5A       19.2670   10.8900    3.1010 C.2   170  FMN170      0.1100
     10  C6        20.0990   12.0800    3.2140 C.3   170  FMN170      0.0775
     11  C7        19.4980   13.3720    2.9770 C.2   170  FMN170     -0.0450
     12  C7M       20.4400   14.5920    2.8560 C.3   170  FMN170      0.0261
     13  C8        18.0410   13.4420    2.7750 C.2   170  FMN170     -0.0493
     14  C8M       17.2750   14.7110    2.2670 C.3   170  FMN170      0.0258
     15  C9        17.2910   12.2100    2.8430 C.3   170  FMN170      0.0481
     16  C9A       17.9340   10.9390    2.7920 C.3   170  FMN170      0.1276
     17  N10       17.2920    9.7060    2.7840 N.pl3 170  FMN170     -0.2727
     18  C10       17.8640    8.4050    2.7520 C.2   170  FMN170      0.2414
     19  C1'       15.7920    9.7290    2.6250 C.3   170  FMN170      0.1291
     20  C2'       15.0310    9.9080    3.9350 C.3   170  FMN170      0.2044
     21  O2'       15.1120    8.7710    4.7890 O.3   170  FMN170     -0.2185
     22  C3'       13.5390   10.1470    3.6380 C.3   170  FMN170      0.2164
     23  O3'       13.2960   11.3160    2.8530 O.3   170  FMN170     -0.2175
     24  C4'       12.6000    9.9340    4.8670 C.3   170  FMN170      0.2147
     25  O4'       11.2150    9.8490    4.5600 O.3   170  FMN170     -0.2176
     26  C5'       12.7340   10.9940    5.9470 C.3   170  FMN170      0.1892
     27  O5'       11.9090   10.6610    7.0390 O.3   170  FMN170     -0.2674
     28  P         11.6080   11.6240    8.2480 P.3   170  FMN170      0.5327
     29  O1P       10.8070   10.7900    9.1540 O.3   170  FMN170     -0.1145
     30  O2P       10.8690   12.7640    7.6810 O.2   170  FMN170     -0.2224
     31  O3P       12.9540   12.0060    8.7380 O.3   170  FMN170     -0.1145
@<TRIPOS>BOND
     1    14    13    1
     2     1     2    2
     3     1    18    2
     4     3     2    2
     5     2     4    2
     6    19    17    1
     7    19    20    1
     8    18    17    1
     9    18     7    1
    10    13    15    1
    11    13    11    2
    12    17    16    1
    13    16    15    1
    14    16     9    1
    15     4     5    2
    16    23    22    1
    17    12    11    1
    18    11    10    1
    19     9    10    1
    20     9     8    2
    21     5     7    1
    22     5     6    2
    23     7     8    2
    24    22    20    1
    25    22    24    1
    26    20    21    1
    27    25    24    1
    28    24    26    1
    29    26    27    1
    30    27    28    1
    31    30    28    2
    32    28    31    1
    33    28    29    1
