@<TRIPOS>MOLECULE
1fm4_DXC_A_1.pdb
 28 31 0 0 0
SMALL
GASTEIGER

@<TRIPOS>ATOM
      1  C1        10.3170    5.2560   22.2360 C.3   1001  DXC1001     0.1520
      2  C2         9.9570    3.8300   21.8070 C.3   1001  DXC1001     0.0329
      3  C3         9.5160    3.8130   20.2750 C.3   1001  DXC1001     0.0025
      4  C4         8.2770    4.7910   20.0420 C.3   1001  DXC1001     0.0002
      5  C5         8.6580    6.1560   20.5680 C.3   1001  DXC1001     0.0026
      6  C6         9.0370    6.2160   22.0430 C.3   1001  DXC1001     0.0329
      7  C7         9.1840    2.3920   19.7550 C.3   1001  DXC1001     0.0001
      8  C8         7.9170    1.8200   20.4750 C.3   1001  DXC1001     0.0000
      9  C9         6.6450    2.7240   20.2410 C.3   1001  DXC1001     0.0002
     10  C10        6.9790    4.1680   20.8050 C.3   1001  DXC1001     0.0025
     11  C11        5.4180    2.1860   20.9490 C.3   1001  DXC1001     0.0024
     12  C12        4.1200    3.0780   20.7580 C.3   1001  DXC1001     0.0282
     13  C13        4.4740    4.4930   21.3390 C.3   1001  DXC1001     0.1519
     14  C14        5.7220    5.0860   20.6100 C.3   1001  DXC1001     0.0329
     15  C15        4.9450    0.7590   20.5520 C.3   1001  DXC1001     0.0001
     16  C16        3.4660    0.7390   21.0260 C.3   1001  DXC1001     0.0001
     17  C17        3.1310    2.1930   21.5260 C.3   1001  DXC1001     0.0024
     18  C18        7.9550    4.9190   18.5210 C.3   1001  DXC1001     0.0000
     19  C19        1.5920    2.5660   21.4330 C.3   1001  DXC1001     0.0006
     20  O1         4.7370    4.3670   22.7320 O.3   1001  DXC1001    -0.2232
     21  O2        10.7150    5.2600   23.6020 O.3   1001  DXC1001    -0.2232
     22  C20        3.7870    3.1630   19.1840 C.3   1001  DXC1001     0.0025
     23  C21        0.7550    1.5510   22.2960 C.3   1001  DXC1001     0.0118
     24  C22        0.9530    1.6280   23.8080 C.3   1001  DXC1001     0.1141
     25  C23       -0.0010    0.7910   24.5400 C.2   1001  DXC1001     0.3649
     26  O3        -0.9760    0.2100   24.0080 O.co2 1001  DXC1001    -0.2457
     27  O4         0.1910    0.6660   25.7770 O.co2 1001  DXC1001    -0.2457
     28  C24        1.1560    3.9380   21.7610 C.3   1001  DXC1001     0.0000
@<TRIPOS>BOND
     1    18     4    1
     2    22    12    1
     3     7     3    1
     4     7     8    1
     5     4     3    1
     6     4     5    1
     7     4    10    1
     8     9     8    1
     9     9    10    1
    10     9    11    1
    11     3     2    1
    12    15    11    1
    13    15    16    1
    14     5     6    1
    15    14    10    1
    16    14    13    1
    17    12    11    1
    18    12    13    1
    19    12    17    1
    20    16    17    1
    21    13    20    1
    22    19    17    1
    23    19    28    1
    24    19    23    1
    25     2     1    1
    26     6     1    1
    27     1    21    1
    28    23    24    1
    29    24    25    1
    30    26    25   ar
    31    25    27   ar
