@<TRIPOS>MOLECULE
1fm6_BRL_D_1.pdb
 25 27 0 0 0
SMALL
GASTEIGER

@<TRIPOS>ATOM
      1  S1        18.8700  -17.4280   13.0780 S.3   503  BRL503      0.0093
      2  O2        19.8540  -16.0970   15.1060 O.2   503  BRL503     -0.2017
      3  O4        21.9420  -16.1190   11.1960 O.2   503  BRL503     -0.2125
      4  O13       14.4610  -20.0480    8.7890 O.3   503  BRL503     -0.4736
      5  N3        21.0480  -15.9770   13.2440 N.2   503  BRL503     -0.2557
      6  N16       13.0440  -22.6680    9.9920 N.pl3 503  BRL503     -0.2879
      7  N18       14.6640  -24.6570    9.7870 N.ar  503  BRL503     -0.2292
      8  C2        20.0090  -16.4070   13.9320 C.1   503  BRL503      0.2450
      9  C4        21.0430  -16.4150   11.9770 C.1   503  BRL503      0.2022
     10  C5        19.8480  -17.3160   11.5780 C.3   503  BRL503      0.1865
     11  C6        18.9680  -16.6890   10.4040 C.3   503  BRL503      0.0562
     12  C7        17.8070  -17.6000    9.9450 C.ar  503  BRL503     -0.0199
     13  C8        18.0240  -18.6190    8.9620 C.ar  503  BRL503     -0.0011
     14  C9        16.9510  -19.4470    8.5520 C.ar  503  BRL503      0.0366
     15  C10       15.6130  -19.2720    9.1310 C.ar  503  BRL503      0.1386
     16  C11       15.4180  -18.2500   10.1030 C.ar  503  BRL503      0.0366
     17  C12       16.4970  -17.4250   10.5090 C.ar  503  BRL503     -0.0011
     18  C14       14.6490  -21.4460    8.3960 C.3   503  BRL503      0.2267
     19  C15       13.3100  -22.2010    8.5670 C.3   503  BRL503      0.1396
     20  C16       12.0290  -21.9150   10.8220 C.3   503  BRL503      0.1137
     21  C17       13.7910  -23.9000   10.5860 C.ar  503  BRL503      0.1318
     22  C19       15.3220  -25.7380   10.2970 C.ar  503  BRL503      0.1003
     23  C20       15.1600  -26.1460   11.6390 C.ar  503  BRL503      0.0208
     24  C21       14.2970  -25.4230   12.4850 C.ar  503  BRL503      0.0045
     25  C22       13.6090  -24.3070   11.9780 C.ar  503  BRL503      0.0343
@<TRIPOS>BOND
     1    18    19    1
     2    18     4    1
     3    14    13   ar
     4    14    15   ar
     5    19     6    1
     6     4    15    1
     7    13    12   ar
     8    15    16   ar
     9     7    22   ar
    10     7    21   ar
    11    12    11    1
    12    12    17   ar
    13     6    21    1
    14     6    20    1
    15    16    17   ar
    16    22    23   ar
    17    11    10    1
    18    21    25   ar
    19     3     9    2
    20    10     9    1
    21    10     1    1
    22    23    24   ar
    23     9     5    2
    24    25    24   ar
    25     1     8    1
    26     5     8    2
    27     8     2    2
