@<TRIPOS>MOLECULE
1fm6_9CR_A_1.pdb
 22 22 0 0 0
SMALL
GASTEIGER

@<TRIPOS>ATOM
      1  C1        21.8290   10.8740   18.2900 C.3   501  9CR501      0.0183
      2  C2        23.4010   10.8260   18.6980 C.3   501  9CR501      0.0044
      3  C3        24.4050   11.6750   17.8000 C.3   501  9CR501      0.0047
      4  C4        24.1260   11.4620   16.3160 C.3   501  9CR501      0.0217
      5  C5        22.6780   11.8940   15.9000 C.2   501  9CR501     -0.0479
      6  C6        21.5330   11.6320   16.8140 C.2   501  9CR501     -0.0310
      7  C7        20.1320   11.9900   16.5760 C.2   501  9CR501     -0.0092
      8  C8        19.4640   12.7860   15.6730 C.2   501  9CR501     -0.0224
      9  C9        18.0950   12.8960   15.2770 C.3   501  9CR501      0.0436
     10  C10       17.6880   14.0210   14.5250 C.2   501  9CR501     -0.0263
     11  C11       18.5160   15.0980   14.2160 C.2   501  9CR501     -0.0260
     12  C12       18.0440   16.2170   13.5430 C.3   501  9CR501      0.0479
     13  C13       18.7740   17.4110   13.2820 C.2   501  9CR501     -0.0330
     14  C14       18.0840   18.3980   12.5920 C.2   501  9CR501      0.0780
     15  C15       18.5310   19.8040   12.1720 C.2   501  9CR501      0.3873
     16  C16       21.3070   11.9510   19.3770 C.3   501  9CR501      0.0043
     17  C17       21.1380    9.5810   18.6440 C.3   501  9CR501      0.0043
     18  C18       22.6100   12.5500   14.5170 C.3   501  9CR501      0.0260
     19  C19       17.0190   11.8800   15.6370 C.3   501  9CR501      0.0094
     20  C20       20.2640   17.6320   13.7710 C.3   501  9CR501      0.0269
     21  O1        18.1000   20.2710   11.1120 O.co2 501  9CR501     -0.2406
     22  O2        19.3250   20.4510   12.9030 O.co2 501  9CR501     -0.2406
@<TRIPOS>BOND
     1    21    15   ar
     2    15    14    1
     3    15    22   ar
     4    14    13    2
     5    13    12    1
     6    13    20    1
     7    12    11    1
     8    11    10    2
     9    18     5    1
    10    10     9    1
    11     9    19    1
    12     9     8    1
    13     8     7    2
    14     5     4    1
    15     5     6    2
    16     4     3    1
    17     7     6    1
    18     6     1    1
    19     3     2    1
    20     1    17    1
    21     1     2    1
    22     1    16    1
