@<TRIPOS>MOLECULE
1fm7_DFV_A_1.pdb
 19 21 0 0 0
SMALL
GASTEIGER

@<TRIPOS>ATOM
      1  C1        27.3840   19.2140   36.0300 C.ar  501  DFV501      0.1988
      2  C2        26.0210   19.2090   36.2290 C.ar  501  DFV501      0.0423
      3  C3        25.0790   20.1820   35.4870 C.ar  501  DFV501      0.0092
      4  C4        25.6560   21.0630   34.5740 C.ar  501  DFV501      0.0690
      5  C5        27.2140   21.1020   34.3300 C.ar  501  DFV501      0.1447
      6  C6        27.9950   20.2040   35.0220 C.ar  501  DFV501      0.0790
      7  C7        24.7940   22.1080   33.7540 C.2   501  DFV501      0.1800
      8  C8        25.6050   23.0290   32.8090 C.3   501  DFV501      0.1173
      9  C9        26.9240   22.4090   32.3550 C.3   501  DFV501      0.1958
     10  O1        27.7550   21.9770   33.4230 O.3   501  DFV501     -0.4741
     11  C10       27.7220   23.3520   31.4570 C.ar  501  DFV501      0.0178
     12  C11       27.7120   24.7560   31.5790 C.ar  501  DFV501      0.0025
     13  C12       28.5710   25.6090   30.6210 C.ar  501  DFV501      0.0418
     14  C13       29.3500   25.0170   29.6440 C.ar  501  DFV501      0.1957
     15  C14       29.3550   23.4870   29.5170 C.ar  501  DFV501      0.0418
     16  C15       28.5990   22.7100   30.3560 C.ar  501  DFV501      0.0025
     17  O2        23.5870   22.1900   33.8460 O.2   501  DFV501     -0.2911
     18  O3        28.1640   18.3550   36.6930 O.3   501  DFV501     -0.2865
     19  O4        30.0970   25.7550   28.8170 O.3   501  DFV501     -0.2866
@<TRIPOS>BOND
     1    19    14    1
     2    15    14   ar
     3    15    16   ar
     4    14    13   ar
     5    16    11   ar
     6    13    12   ar
     7    11    12   ar
     8    11     9    1
     9     9     8    1
    10     9    10    1
    11     8     7    1
    12    10     5    1
    13     7    17    2
    14     7     4    1
    15     5     4   ar
    16     5     6   ar
    17     4     3   ar
    18     6     1   ar
    19     3     2   ar
    20     1     2   ar
    21     1    18    1
