@<TRIPOS>MOLECULE
1fm8_DDC_A_1.pdb
 18 20 0 0 0
SMALL
GASTEIGER

@<TRIPOS>ATOM
      1  C1        27.7830   18.8480   35.9010 C.ar  501  DDC501      0.1988
      2  C2        26.3730   18.8500   36.1970 C.ar  501  DDC501      0.0423
      3  C3        25.4970   19.8160   35.5840 C.ar  501  DDC501      0.0092
      4  C4        26.0420   20.7960   34.6680 C.ar  501  DDC501      0.0690
      5  C5        27.4550   20.8210   34.3420 C.ar  501  DDC501      0.1447
      6  C6        28.3100   19.8370   34.9750 C.ar  501  DDC501      0.0790
      7  C7        25.1270   21.8310   34.0060 C.2   501  DDC501      0.1800
      8  C8        25.8300   22.8120   33.0780 C.3   501  DDC501      0.1173
      9  C9        27.0520   22.1670   32.4050 C.3   501  DDC501      0.1958
     10  O1        27.9730   21.7510   33.4490 O.3   501  DDC501     -0.4741
     11  O2        28.5950   17.9340   36.4810 O.3   501  DDC501     -0.2865
     12  C10       27.7630   23.1460   31.4710 C.ar  501  DDC501      0.0176
     13  C11       27.3270   24.5250   31.2910 C.ar  501  DDC501     -0.0008
     14  C12       28.0420   25.4060   30.3910 C.ar  501  DDC501     -0.0002
     15  C13       29.1950   24.9320   29.6660 C.ar  501  DDC501     -0.0000
     16  C14       29.6360   23.5700   29.8340 C.ar  501  DDC501     -0.0002
     17  C15       28.9260   22.6870   30.7350 C.ar  501  DDC501     -0.0008
     18  O3        23.9360   21.8820   34.2080 O.2   501  DDC501     -0.2911
@<TRIPOS>BOND
     1    15    16   ar
     2    15    14   ar
     3    16    17   ar
     4    14    13   ar
     5    17    12   ar
     6    13    12   ar
     7    12     9    1
     8     9     8    1
     9     9    10    1
    10     8     7    1
    11    10     5    1
    12     7    18    2
    13     7     4    1
    14     5     4   ar
    15     5     6   ar
    16     4     3   ar
    17     6     1   ar
    18     3     2   ar
    19     1     2   ar
    20     1    11    1
