@<TRIPOS>MOLECULE
1fm9_570_D_1.pdb
 41 45 0 0 0
SMALL
GASTEIGER

@<TRIPOS>ATOM
      1  N         14.6300   -6.6230   12.2970 N.pl3 200  570200     -0.2274
      2  CA        15.1750   -5.2870   12.7430 C.3   200  570200      0.1992
      3  CB        14.0590   -4.2800   13.1630 C.3   200  570200      0.0595
      4  CG        13.0210   -3.9940   12.0720 C.ar  200  570200     -0.0197
      5  CD1       11.7640   -4.6810   12.1280 C.ar  200  570200     -0.0011
      6  CD2       13.2850   -3.0650   11.0120 C.ar  200  570200     -0.0011
      7  CE1       10.7800   -4.4500   11.1480 C.ar  200  570200      0.0366
      8  CE2       12.3040   -2.8260   10.0230 C.ar  200  570200      0.0366
      9  CZ        11.0160   -3.5280   10.0790 C.ar  200  570200      0.1385
     10  OH         9.9370   -3.3850    9.1550 O.3   200  570200     -0.4750
     11  C1A       15.2240   -7.7670   11.6100 C.ar  200  570200      0.0689
     12  C1F       14.3950   -8.8860   11.1480 C.ar  200  570200      0.0538
     13  C1E       15.0700   -9.9720   10.4770 C.ar  200  570200      0.0045
     14  C1D       16.4700   -9.9630   10.2740 C.ar  200  570200      0.0002
     15  C1C       17.2490   -8.8820   10.7250 C.ar  200  570200      0.0013
     16  C1B       16.6460   -7.8050   11.3780 C.ar  200  570200      0.0162
     17  C1H       11.8910  -10.1700   10.9450 C.ar  200  570200      0.0390
     18  C1I       10.5890   -9.8870   10.3830 C.ar  200  570200      0.0032
     19  C1J        9.7040  -10.9480   10.0350 C.ar  200  570200      0.0001
     20  C1K       10.1070  -12.3000   10.2430 C.ar  200  570200      0.0000
     21  C1L       11.3870  -12.5880   10.7970 C.ar  200  570200      0.0001
     22  C1M       12.2690  -11.5350   11.1440 C.ar  200  570200      0.0032
     23  C1G       12.8220   -9.0230   11.3070 C.2   200  570200      0.1968
     24  O1G       12.2120   -8.0260   11.7450 O.2   200  570200     -0.2865
     25  O3F        8.6790   -6.3110    5.5150 O.2   200  570200     -0.4486
     26  C3G        9.4630   -5.6750    4.5590 C.2   200  570200      0.2771
     27  N3H        9.6210   -4.3510    5.0320 N.2   200  570200     -0.3728
     28  C3C        8.9300   -4.2570    6.2210 C.2   200  570200      0.1336
     29  C3D        8.3000   -5.5050    6.5670 C.3   200  570200      0.2161
     30  C3E        7.4350   -5.8570    7.7840 C.3   200  570200      0.0549
     31  C3I        9.9910   -6.1960    3.3780 C.ar  200  570200      0.0660
     32  C3N       10.7850   -5.4040    2.4690 C.ar  200  570200      0.0058
     33  C3M       11.2940   -5.9840    1.2780 C.ar  200  570200      0.0002
     34  C3L       11.0230   -7.3440    0.9760 C.ar  200  570200      0.0000
     35  C3K       10.2440   -8.1370    1.8620 C.ar  200  570200      0.0002
     36  C3J        9.7290   -7.5690    3.0540 C.ar  200  570200      0.0058
     37  C3A       10.1330   -2.6860    7.9020 C.3   200  570200      0.2126
     38  C3B        8.8860   -2.9130    7.0260 C.3   200  570200      0.1055
     39  O2        17.2590   -4.8030   13.7310 O.co2 200  570200     -0.2437
     40  O1        15.9520   -6.2630   14.7920 O.co2 200  570200     -0.2437
     41  C         16.1870   -5.4460   13.8430 C.2   200  570200      0.3844
@<TRIPOS>BOND
     1    34    33   ar
     2    34    35   ar
     3    33    32   ar
     4    35    36   ar
     5    32    31   ar
     6    36    31   ar
     7    31    26    1
     8    26    27    2
     9    26    25    1
    10    27    28    2
    11    25    29    1
    12    28    29    1
    13    28    38    1
    14    29    30    1
    15    38    37    1
    16    37    10    1
    17    10     9    1
    18     8     9   ar
    19     8     6   ar
    20    19    20   ar
    21    19    18   ar
    22     9     7   ar
    23    20    21   ar
    24    14    13   ar
    25    14    15   ar
    26    18    17   ar
    27    13    12   ar
    28    15    16   ar
    29    21    22   ar
    30    17    22   ar
    31    17    23    1
    32     6     4   ar
    33    12    23    1
    34    12    11   ar
    35     7     5   ar
    36    23    24    2
    37    16    11   ar
    38    11     1    1
    39     4     5   ar
    40     4     3    1
    41     1     2    1
    42     2     3    1
    43     2    41    1
    44    39    41   ar
    45    41    40   ar
