@<TRIPOS>MOLECULE
1fm9_9CR_A_1.pdb
 22 22 0 0 0
SMALL
GASTEIGER

@<TRIPOS>ATOM
      1  C1        16.1970  -11.9680   40.4910 C.3   201  9CR201      0.0183
      2  C2        17.7990  -12.0820   40.3600 C.3   201  9CR201      0.0044
      3  C3        18.6670  -11.2620   41.4140 C.3   201  9CR201      0.0047
      4  C4        18.1680   -9.7950   41.5700 C.3   201  9CR201      0.0217
      5  C5        16.6290   -9.6390   41.8230 C.2   201  9CR201     -0.0479
      6  C6        15.6360  -10.6420   41.3240 C.2   201  9CR201     -0.0307
      7  C7        14.1990  -10.5900   41.4870 C.2   201  9CR201     -0.0052
      8  C8        13.3390   -9.8350   42.2220 C.2   201  9CR201     -0.0046
      9  C9        11.9380   -9.6750   42.1710 C.2   201  9CR201     -0.0219
     10  C10       11.3040   -8.9800   43.2160 C.2   201  9CR201     -0.0043
     11  C11       11.9950   -8.5500   44.3450 C.2   201  9CR201     -0.0006
     12  C12       11.3560   -7.9700   45.4060 C.2   201  9CR201     -0.0041
     13  C13       11.9650   -7.6140   46.6340 C.2   201  9CR201     -0.0153
     14  C14       11.0960   -7.0520   47.5560 C.2   201  9CR201      0.0819
     15  C15       11.3630   -6.5720   48.9930 C.2   201  9CR201      0.3876
     16  C16       15.8460  -13.1950   41.4990 C.3   201  9CR201      0.0043
     17  C17       15.5340  -12.3290   39.1700 C.3   201  9CR201      0.0043
     18  C18       16.3050   -8.3630   42.5900 C.3   201  9CR201      0.0260
     19  C19       11.0380  -10.2110   41.0520 C.3   201  9CR201      0.0310
     20  C20       13.4880   -7.8520   46.9560 C.3   201  9CR201      0.0312
     21  O1        10.7440   -5.5980   49.4200 O.co2 201  9CR201     -0.2406
     22  O2        12.1980   -7.1670   49.7080 O.co2 201  9CR201     -0.2406
@<TRIPOS>BOND
     1    17     1    1
     2     2     1    1
     3     2     3    1
     4     1     6    1
     5     1    16    1
     6    19     9    1
     7     6     7    1
     8     6     5    2
     9     3     4    1
    10     7     8    2
    11     4     5    1
    12     5    18    1
    13     9     8    1
    14     9    10    2
    15    10    11    1
    16    11    12    2
    17    12    13    1
    18    13    20    1
    19    13    14    2
    20    14    15    1
    21    15    21   ar
    22    15    22   ar
