@<TRIPOS>MOLECULE
1fmb_HYB_A_1.pdb
 40 42 0 0 0
SMALL
GASTEIGER

@<TRIPOS>ATOM
      1  S1         6.4880   21.1190    6.5200 S.O2  201  HYB201     -0.0127
      2  O2         6.9640   22.3740    6.0080 O.2   201  HYB201     -0.1731
      3  O3         5.1110   21.0070    6.8760 O.2   201  HYB201     -0.1731
      4  C4         9.6950   22.1480    0.9520 C.ar  201  HYB201     -0.0000
      5  C5         8.7560   22.6570    1.7970 C.ar  201  HYB201     -0.0003
      6  C6         7.7930   21.7770    2.4330 C.ar  201  HYB201     -0.0043
      7  C7         7.8250   20.4490    2.1930 C.ar  201  HYB201     -0.0216
      8  C8         8.8370   19.8570    1.2590 C.ar  201  HYB201     -0.0040
      9  C9         9.7530   20.7400    0.6730 C.ar  201  HYB201     -0.0003
     10  C10       10.7630   20.2350   -0.2150 C.ar  201  HYB201     -0.0000
     11  C11       10.8110   18.8940   -0.4930 C.ar  201  HYB201     -0.0000
     12  C12        9.8750   17.9990    0.0950 C.ar  201  HYB201     -0.0000
     13  C13        8.9000   18.4890    0.9680 C.ar  201  HYB201     -0.0003
     14  O14        2.1590   16.6320   -0.4430 O.3   201  HYB201     -0.2185
     15  C15        1.1910   17.7140   -0.7010 C.3   201  HYB201      0.2039
     16  N16        2.2440   18.8780    1.1540 N.am  201  HYB201     -0.2027
     17  C17        1.9270   19.0160   -0.2780 C.3   201  HYB201      0.1325
     18  C18        3.2600   19.1980   -1.0430 C.3   201  HYB201      0.0507
     19  C19        3.9850   20.5270   -0.9940 C.ar  201  HYB201     -0.0204
     20  C20        5.0320   20.8010   -0.1070 C.ar  201  HYB201     -0.0042
     21  C21        5.7340   22.0130   -0.1100 C.ar  201  HYB201     -0.0003
     22  C22        5.3690   22.9990   -1.0340 C.ar  201  HYB201     -0.0000
     23  C23        4.3470   22.7430   -1.9450 C.ar  201  HYB201     -0.0003
     24  C24        3.6590   21.5260   -1.9270 C.ar  201  HYB201     -0.0042
     25  N25        3.6960   19.9570    3.6110 N.am  201  HYB201     -0.1977
     26  C26        2.3190   19.4000    3.5590 C.3   201  HYB201      0.1726
     27  C27        1.8300   19.7870    2.1110 C.2   201  HYB201      0.2612
     28  O28        1.1100   20.7340    1.8380 O.2   201  HYB201     -0.2715
     29  C29        1.3810   19.9220    4.6750 C.3   201  HYB201      0.0290
     30  C30       -0.0900   19.5970    4.3670 C.3   201  HYB201      0.0023
     31  C31        1.8700   19.2880    5.9980 C.3   201  HYB201      0.0023
     32  C32        4.7730   19.2870    4.1060 C.2   201  HYB201      0.2433
     33  O33        4.7100   18.1280    4.5340 O.2   201  HYB201     -0.2733
     34  C34        6.1180   20.0380    4.0130 C.3   201  HYB201      0.1061
     35  C35        6.8410   19.4250    2.7860 C.3   201  HYB201      0.0373
     36  C36        6.9770   19.9000    5.3110 C.3   201  HYB201      0.1601
     37  C37        6.9310   19.4080    8.6970 C.3   201  HYB201      0.0236
     38  C38        7.4420   20.7170    8.0430 C.3   201  HYB201      0.1108
     39  C39        7.1320   21.8660    9.0330 C.3   201  HYB201      0.0236
     40  C40        8.9560   20.6600    7.7230 C.3   201  HYB201      0.0236
@<TRIPOS>BOND
     1    23    24   ar
     2    23    22   ar
     3    24    19   ar
     4    18    19    1
     5    18    17    1
     6    22    21   ar
     7    19    20   ar
     8    15    14    1
     9    15    17    1
    10    11    10   ar
    11    11    12   ar
    12    17    16    1
    13    10     9   ar
    14    21    20   ar
    15    12    13   ar
    16     9     4   ar
    17     9     8   ar
    18     4     5   ar
    19    13     8   ar
    20    16    27   am
    21     8     7   ar
    22     5     6   ar
    23    28    27    2
    24    27    26    1
    25     7     6   ar
    26     7    35    1
    27    35    34    1
    28    26    25    1
    29    26    29    1
    30    25    32   am
    31    34    32    1
    32    34    36    1
    33    32    33    2
    34    30    29    1
    35    29    31    1
    36    36     1    1
    37     2     1    2
    38     1     3    2
    39     1    38    1
    40    40    38    1
    41    38    37    1
    42    38    39    1
