@<TRIPOS>MOLECULE
1fmc_CHO_A_1.pdb
 28 31 0 0 0
SMALL
GASTEIGER

@<TRIPOS>ATOM
      1  C1        45.5720   29.6820    1.9250 C.3   257  CHO257      0.0026
      2  C2        44.6110   29.3470    0.7870 C.3   257  CHO257      0.0329
      3  C3        43.2180   28.9760    1.3130 C.3   257  CHO257      0.1520
      4  O3        42.2940   28.6340    0.2600 O.3   257  CHO257     -0.2232
      5  C4        43.3110   27.8330    2.3210 C.3   257  CHO257      0.0333
      6  C5        44.3210   28.0930    3.4610 C.3   257  CHO257      0.0099
      7  C6        44.3970   26.8640    4.3480 C.3   257  CHO257      0.0646
      8  C7        45.1580   25.7350    3.7050 C.2   257  CHO257      0.1502
      9  O7        44.6440   24.6520    3.3660 O.2   257  CHO257     -0.2961
     10  C8        46.5890   26.1260    3.4060 C.3   257  CHO257      0.0576
     11  C9        46.5500   27.2890    2.3810 C.3   257  CHO257      0.0069
     12  C10       45.7590   28.5470    2.9630 C.3   257  CHO257      0.0010
     13  C11       47.9420   27.6080    1.8690 C.3   257  CHO257      0.0004
     14  C12       48.7530   26.3840    1.3890 C.3   257  CHO257      0.0000
     15  C13       48.8650   25.3010    2.4520 C.3   257  CHO257      0.0004
     16  C14       47.4230   24.9510    2.8510 C.3   257  CHO257      0.0069
     17  C15       47.5970   23.7110    3.6940 C.3   257  CHO257      0.0004
     18  C16       48.5720   22.9040    2.8390 C.3   257  CHO257      0.0000
     19  C17       49.3340   23.8970    1.9400 C.3   257  CHO257      0.0000
     20  C18       49.7440   25.7570    3.6620 C.3   257  CHO257      0.0000
     21  C19       46.5810   29.1920    4.0800 C.3   257  CHO257      0.0000
     22  C20       50.8400   23.5460    1.8320 C.3   257  CHO257      0.0005
     23  C21       51.6320   24.5210    0.9310 C.3   257  CHO257      0.0000
     24  C22       50.9710   22.1320    1.3310 C.3   257  CHO257      0.0097
     25  C23       52.3760   21.6020    1.3450 C.3   257  CHO257      0.0885
     26  C24       52.4960   20.2180    0.6610 C.2   257  CHO257      0.2607
     27  O24       51.6420   19.3660    0.8860 O.2   257  CHO257     -0.2717
     28  N25       53.4530   20.0140   -0.0960 N.am  257  CHO257     -0.0878
@<TRIPOS>BOND
     1    28    26   am
     2     4     3    1
     3    26    27    2
     4    26    25    1
     5     2     3    1
     6     2     1    1
     7    23    22    1
     8     3     5    1
     9    24    25    1
    10    24    22    1
    11    14    13    1
    12    14    15    1
    13    22    19    1
    14    13    11    1
    15     1    12    1
    16    19    15    1
    17    19    18    1
    18     5     6    1
    19    11    12    1
    20    11    10    1
    21    15    16    1
    22    15    20    1
    23    18    17    1
    24    16    10    1
    25    16    17    1
    26    12     6    1
    27    12    21    1
    28     9     8    2
    29    10     8    1
    30     6     7    1
    31     8     7    1
