@<TRIPOS>MOLECULE
1fmc_NAD_A_1.pdb
 44 48 0 0 0
SMALL
GASTEIGER

@<TRIPOS>ATOM
      1  PA        52.7420   19.3860    8.2660 P.3   256  NAD256      0.2189
      2  O1A       53.7060   19.4110    7.1380 O.2   256  NAD256     -0.5170
      3  O2A       53.0460   20.2730    9.4010 O.3   256  NAD256     -0.4371
      4  O5B       52.5900   17.8720    8.7460 O.3   256  NAD256     -0.3112
      5  C5B       52.3340   16.8950    7.7560 C.3   256  NAD256      0.1813
      6  C4B       52.7710   15.5790    8.2580 C.3   256  NAD256      0.1821
      7  O4B       52.2750   14.6630    7.2740 O.3   256  NAD256     -0.3135
      8  C3B       54.2950   15.4300    8.3190 C.3   256  NAD256      0.2184
      9  O3B       54.7330   14.8040    9.5620 O.3   256  NAD256     -0.2174
     10  C2B       54.6170   14.5520    7.1080 C.3   256  NAD256      0.2570
     11  O2B       55.8330   13.7660    7.2620 O.3   256  NAD256     -0.2130
     12  C1B       53.3270   13.7330    6.9840 C.3   256  NAD256      0.3186
     13  N9A       53.0770   13.1790    5.6360 N.pl3 256  NAD256     -0.1439
     14  C8A       53.2100   13.8450    4.4690 C.3   256  NAD256      0.3377
     15  N7A       52.9490   13.0600    3.4210 N.2   256  NAD256     -0.2095
     16  C5A       52.6540   11.9000    3.9780 C.2   256  NAD256      0.2526
     17  C6A       52.3200   10.7480    3.2730 C.2   256  NAD256      0.4393
     18  N6A       52.3500   10.7460    1.9450 N.pl3 256  NAD256      0.2180
     19  N1A       52.0420    9.6420    3.9980 N.2   256  NAD256      0.0021
     20  C2A       52.1020    9.6900    5.3350 C.3   256  NAD256      0.5254
     21  N3A       52.4320   10.7950    6.0070 N.2   256  NAD256     -0.0055
     22  C4A       52.7160   11.9330    5.3550 C.2   256  NAD256      0.3518
     23  O3        51.2420   19.6160    7.7240 O.3   256  NAD256     -0.2703
     24  PN        49.8850   20.1850    8.3340 P.3   256  NAD256      0.2189
     25  O1N       49.8210   21.6470    8.1010 O.2   256  NAD256     -0.5170
     26  O2N       49.6860   19.7000    9.7240 O.3   256  NAD256     -0.4371
     27  O5D       48.7280   19.5430    7.4330 O.3   256  NAD256     -0.3112
     28  C5D       48.1440   18.2780    7.6730 C.3   256  NAD256      0.1813
     29  C4D       46.8090   18.3480    6.9660 C.3   256  NAD256      0.1799
     30  O4D       46.1130   19.5710    7.2880 O.3   256  NAD256     -0.3327
     31  C3D       46.8900   18.2990    5.4170 C.3   256  NAD256      0.2158
     32  O3D       45.8360   17.4530    4.9000 O.3   256  NAD256     -0.2175
     33  C2D       46.6730   19.7410    5.0020 C.3   256  NAD256      0.2309
     34  O2D       46.2120   19.8550    3.6640 O.3   256  NAD256     -0.2158
     35  C1D       45.6550   20.1640    6.0530 C.3   256  NAD256      0.2263
     36  N1N       45.5120   21.6210    6.2550 N.pl3 256  NAD256     -0.2787
     37  C2N       46.5740   22.4130    6.7390 C.3   256  NAD256      0.1244
     38  C3N       46.3710   23.7800    6.9780 C.2   256  NAD256      0.0544
     39  C7N       47.5230   24.7430    7.3720 C.2   256  NAD256      0.2818
     40  O7N       47.3770   25.9620    7.2580 O.2   256  NAD256     -0.2670
     41  N7N       48.6620   24.2080    7.8110 N.am  256  NAD256     -0.0839
     42  C4N       45.1070   24.3260    6.7460 C.2   256  NAD256      0.0033
     43  C5N       44.0650   23.5310    6.2610 C.2   256  NAD256      0.0157
     44  C6N       44.2600   22.1840    6.0090 C.2   256  NAD256      0.0633
@<TRIPOS>BOND
     1    18    17    1
     2    17    16    1
     3    17    19    2
     4    15    16    2
     5    15    14    1
     6    34    33    1
     7    16    22    1
     8    19    20    1
     9    14    13    1
    10    32    31    1
    11    33    31    1
    12    33    35    1
    13    20    21    1
    14    22    13    1
    15    22    21    2
    16    31    29    1
    17    13    12    1
    18    44    36    1
    19    44    43    2
    20    35    36    1
    21    35    30    1
    22    36    37    1
    23    43    42    1
    24    37    38    1
    25    42    38    2
    26    29    30    1
    27    29    28    1
    28    38    39    1
    29    12    10    1
    30    12     7    1
    31    10    11    1
    32    10     8    1
    33     2     1    2
    34    40    39    2
    35     7     6    1
    36    39    41   am
    37    27    28    1
    38    27    24    1
    39    23     1    1
    40    23    24    1
    41     5     6    1
    42     5     4    1
    43    25    24    2
    44     6     8    1
    45     1     4    1
    46     1     3    1
    47     8     9    1
    48    24    26    1
