@<TRIPOS>MOLECULE
1fmj_RTL_A_1.pdb
 21 21 0 0 0
SMALL
GASTEIGER

@<TRIPOS>ATOM
      1  C1        24.4830   -7.0460   41.5760 C.3   401  RTL401      0.0365
      2  C2        25.6940   -7.8400   40.9890 C.2   401  RTL401     -0.0270
      3  C3        25.5770   -9.3450   41.1960 C.2   401  RTL401     -0.0260
      4  C4        24.5610  -10.2420   41.8990 C.3   401  RTL401      0.0473
      5  C5        23.4720   -9.2990   42.4170 C.2   401  RTL401     -0.0432
      6  C6        23.3790   -7.9030   42.3030 C.2   401  RTL401     -0.0266
      7  C7        22.2400   -7.1210   42.8530 C.2   401  RTL401     -0.0049
      8  C8        21.0420   -6.9600   42.2180 C.2   401  RTL401     -0.0049
      9  C9        19.9120   -6.1880   42.7520 C.2   401  RTL401     -0.0258
     10  C10       18.7640   -6.1210   41.9840 C.2   401  RTL401     -0.0257
     11  C11       17.4800   -5.4330   42.2420 C.3   401  RTL401      0.0510
     12  C12       17.0680   -4.7040   41.1510 C.2   401  RTL401     -0.0298
     13  C13       15.9120   -3.8420   40.8290 C.2   401  RTL401     -0.0452
     14  C14       15.5410   -3.1270   39.7250 C.3   401  RTL401      0.0572
     15  C15       14.6390   -3.7510   38.7430 C.3   401  RTL401      0.1864
     16  O1        13.3250   -3.5430   39.0460 O.3   401  RTL401     -0.2201
     17  C16       23.9890   -6.3370   40.2990 C.3   401  RTL401      0.0087
     18  C17       25.1710   -6.0030   42.4710 C.3   401  RTL401      0.0087
     19  C18       22.4100  -10.1170   43.1680 C.3   401  RTL401      0.0264
     20  C19       20.0380   -5.4910   44.1200 C.3   401  RTL401      0.0307
     21  C20       15.0180   -3.8250   42.0800 C.3   401  RTL401      0.0261
@<TRIPOS>BOND
     1    15    16    1
     2    15    14    1
     3    14    13    1
     4    17     1    1
     5    13    12    2
     6    13    21    1
     7     2     3    2
     8     2     1    1
     9    12    11    1
    10     3     4    1
    11     1     6    1
    12     1    18    1
    13     4     5    1
    14    10    11    1
    15    10     9    2
    16     8     9    1
    17     8     7    2
    18     6     5    2
    19     6     7    1
    20     5    19    1
    21     9    20    1
