@<TRIPOS>MOLECULE
1fmj_A3P_A_1.pdb
 27 29 0 0 0
SMALL
GASTEIGER

@<TRIPOS>ATOM
      1  P1        13.0770    8.5890   38.2980 P.3   400  A3P400      0.5327
      2  O1P       14.3740    7.9200   38.0950 O.3   400  A3P400     -0.1145
      3  O2P       13.0550    9.3560   39.5610 O.3   400  A3P400     -0.1145
      4  O3P       12.7760    9.4810   37.1680 O.2   400  A3P400     -0.2224
      5  P2        10.3770    1.5110   38.6810 P.3   400  A3P400      0.5327
      6  O4P        9.7360    1.3130   39.9910 O.3   400  A3P400     -0.1145
      7  O5P        9.5960    0.8530   37.6120 O.2   400  A3P400     -0.2224
      8  O6P       11.7740    0.9910   38.7190 O.3   400  A3P400     -0.1145
      9  O5'       10.4270    3.0580   38.3660 O.3   400  A3P400     -0.2675
     10  C5'       11.1290    3.9680   39.1970 C.3   400  A3P400      0.1859
     11  C4'       10.7890    5.4170   38.8350 C.3   400  A3P400      0.1796
     12  O4'        9.5800    5.7850   39.5580 O.3   400  A3P400     -0.3136
     13  C3'       11.8590    6.4050   39.3030 C.3   400  A3P400      0.1928
     14  O3'       11.9300    7.4900   38.3490 O.3   400  A3P400     -0.2673
     15  C2'       11.3580    6.7480   40.6910 C.3   400  A3P400      0.2543
     16  O2'       11.9580    7.8480   41.3680 O.3   400  A3P400     -0.2131
     17  C1'        9.8700    6.8960   40.4140 C.3   400  A3P400      0.3185
     18  N9         9.0560    6.8240   41.6340 N.pl3 400  A3P400     -0.1439
     19  C8         9.0990    5.9040   42.6700 C.3   400  A3P400      0.3377
     20  N7         8.2330    6.1100   43.6260 N.2   400  A3P400     -0.2095
     21  C5         7.5560    7.2480   43.2090 C.2   400  A3P400      0.2526
     22  C6         6.4830    8.0210   43.7750 C.2   400  A3P400      0.4393
     23  N6         5.8990    7.7200   44.9390 N.pl3 400  A3P400      0.2180
     24  N1         6.0300    9.1350   43.0710 N.2   400  A3P400      0.0021
     25  C2         6.6010    9.4780   41.8710 C.3   400  A3P400      0.5254
     26  N3         7.6230    8.8260   41.2350 N.2   400  A3P400     -0.0055
     27  C4         8.0550    7.7140   41.9640 C.2   400  A3P400      0.3518
@<TRIPOS>BOND
     1     4     1    2
     2     7     5    2
     3     2     1    1
     4     1    14    1
     5     1     3    1
     6    14    13    1
     7     9     5    1
     8     9    10    1
     9     5     8    1
    10     5     6    1
    11    11    10    1
    12    11    13    1
    13    11    12    1
    14    13    15    1
    15    12    17    1
    16    17    15    1
    17    17    18    1
    18    15    16    1
    19    26    25    1
    20    26    27    2
    21    18    27    1
    22    18    19    1
    23    25    24    1
    24    27    21    1
    25    19    20    1
    26    24    22    2
    27    21    20    2
    28    21    22    1
    29    22    23    1
