@<TRIPOS>MOLECULE
1fml_A3P_A_1.pdb
 27 29 0 0 0
SMALL
GASTEIGER

@<TRIPOS>ATOM
      1  P1        12.5770    8.2880   38.3070 P.3   400  A3P400      0.5327
      2  O1P       13.8590    7.5600   38.0330 O.3   400  A3P400     -0.1145
      3  O2P       12.6370    9.0030   39.6140 O.3   400  A3P400     -0.1145
      4  O3P       12.2870    9.2430   37.1720 O.2   400  A3P400     -0.2224
      5  P2         9.4910    1.4120   38.6260 P.3   400  A3P400      0.5327
      6  O4P        8.9300    1.2080   40.0160 O.3   400  A3P400     -0.1145
      7  O5P        8.5710    0.8680   37.5690 O.2   400  A3P400     -0.2224
      8  O6P       10.8560    0.7810   38.5150 O.3   400  A3P400     -0.1145
      9  O5'        9.6480    2.9760   38.3660 O.3   400  A3P400     -0.2675
     10  C5'       10.4730    3.7770   39.1840 C.3   400  A3P400      0.1859
     11  C4'       10.1810    5.2460   38.9020 C.3   400  A3P400      0.1796
     12  O4'        8.9980    5.6380   39.6700 O.3   400  A3P400     -0.3136
     13  C3'       11.2850    6.1760   39.3510 C.3   400  A3P400      0.1928
     14  O3'       11.3600    7.2490   38.3870 O.3   400  A3P400     -0.2673
     15  C2'       10.8200    6.5460   40.7560 C.3   400  A3P400      0.2543
     16  O2'       11.4620    7.6510   41.3990 O.3   400  A3P400     -0.2131
     17  C1'        9.3230    6.7170   40.5300 C.3   400  A3P400      0.3185
     18  N9         8.5110    6.5910   41.7400 N.pl3 400  A3P400     -0.1439
     19  C8         8.5840    5.6390   42.7640 C.3   400  A3P400      0.3377
     20  N7         7.6960    5.7920   43.7280 N.2   400  A3P400     -0.2095
     21  C5         6.9830    6.9200   43.3230 C.2   400  A3P400      0.2526
     22  C6         5.8780    7.6380   43.8990 C.2   400  A3P400      0.4393
     23  N6         5.3120    7.2660   45.0630 N.pl3 400  A3P400      0.2180
     24  N1         5.3650    8.7820   43.2120 N.2   400  A3P400      0.0021
     25  C2         5.9300    9.1810   42.0170 C.3   400  A3P400      0.5254
     26  N3         6.9980    8.5620   41.3740 N.2   400  A3P400     -0.0055
     27  C4         7.4740    7.4350   42.0830 C.2   400  A3P400      0.3518
@<TRIPOS>BOND
     1     4     1    2
     2     7     5    2
     3     2     1    1
     4     1    14    1
     5     1     3    1
     6     9     5    1
     7     9    10    1
     8    14    13    1
     9     8     5    1
    10     5     6    1
    11    11    10    1
    12    11    13    1
    13    11    12    1
    14    13    15    1
    15    12    17    1
    16    17    15    1
    17    17    18    1
    18    15    16    1
    19    26    25    1
    20    26    27    2
    21    18    27    1
    22    18    19    1
    23    25    24    1
    24    27    21    1
    25    19    20    1
    26    24    22    2
    27    21    20    2
    28    21    22    1
    29    22    23    1
