@<TRIPOS>MOLECULE
1fml_RTL_A_1.pdb
 21 21 0 0 0
SMALL
GASTEIGER

@<TRIPOS>ATOM
      1  C1        23.0190   -7.8460   41.6800 C.3   401  RTL401      0.0365
      2  C2        24.2660   -8.6650   41.2390 C.2   401  RTL401     -0.0270
      3  C3        24.1090  -10.1510   41.5010 C.2   401  RTL401     -0.0260
      4  C4        23.0170  -11.0070   42.1280 C.3   401  RTL401      0.0473
      5  C5        21.9010  -10.0380   42.5000 C.2   401  RTL401     -0.0432
      6  C6        21.8400   -8.6580   42.3250 C.2   401  RTL401     -0.0266
      7  C7        20.6770   -7.8300   42.7370 C.2   401  RTL401     -0.0049
      8  C8        19.4460   -7.7860   42.1450 C.2   401  RTL401     -0.0049
      9  C9        18.3790   -6.9080   42.6430 C.2   401  RTL401     -0.0258
     10  C10       17.1610   -6.9000   42.0110 C.2   401  RTL401     -0.0257
     11  C11       15.9670   -6.0820   42.3440 C.3   401  RTL401      0.0510
     12  C12       15.6540   -5.2050   41.3320 C.2   401  RTL401     -0.0298
     13  C13       14.6250   -4.1660   41.1050 C.2   401  RTL401     -0.0452
     14  C14       14.3370   -3.3340   40.0580 C.3   401  RTL401      0.0572
     15  C15       13.4830   -3.8580   38.9720 C.3   401  RTL401      0.1864
     16  O1        12.1500   -3.8210   39.2830 O.3   401  RTL401     -0.2201
     17  C16       22.6490   -7.1790   40.3480 C.3   401  RTL401      0.0087
     18  C17       23.6450   -6.7870   42.5950 C.3   401  RTL401      0.0087
     19  C18       20.7610  -10.8150   43.1710 C.3   401  RTL401      0.0264
     20  C19       18.6500   -6.0110   43.8590 C.3   401  RTL401      0.0307
     21  C20       13.7550   -4.1240   42.3750 C.3   401  RTL401      0.0261
@<TRIPOS>BOND
     1    15    16    1
     2    15    14    1
     3    14    13    1
     4    17     1    1
     5    13    12    2
     6    13    21    1
     7     2     3    2
     8     2     1    1
     9    12    11    1
    10     3     4    1
    11     1     6    1
    12     1    18    1
    13    10    11    1
    14    10     9    2
    15     4     5    1
    16     8     9    1
    17     8     7    2
    18     6     5    2
    19     6     7    1
    20     5    19    1
    21     9    20    1
