@<TRIPOS>MOLECULE
1fmo_ADN_E_1.pdb
 19 21 0 0 0
SMALL
GASTEIGER

@<TRIPOS>ATOM
      1  O5'       11.5450    8.5200    1.5450 O.3   351  ADN351     -0.2176
      2  C5'       11.0870    9.7900    2.0520 C.3   351  ADN351      0.2143
      3  C4'       10.6880    9.6800    3.5230 C.3   351  ADN351      0.1851
      4  O4'        9.7140   10.7250    3.8100 O.3   351  ADN351     -0.3134
      5  C3'        9.9730    8.3740    3.9030 C.3   351  ADN351      0.2186
      6  O3'       10.8790    7.3610    4.3040 O.3   351  ADN351     -0.2174
      7  C2'        9.1150    8.8200    5.0590 C.3   351  ADN351      0.2570
      8  O2'        9.8870    9.0340    6.2320 O.3   351  ADN351     -0.2130
      9  C1'        8.6250   10.1600    4.5000 C.3   351  ADN351      0.3186
     10  N9         7.4440   10.0560    3.6460 N.pl3 351  ADN351     -0.1439
     11  C8         7.3740    9.8720    2.2910 C.3   351  ADN351      0.3377
     12  N7         6.1460    9.7910    1.8430 N.2   351  ADN351     -0.2095
     13  C5         5.3530    9.9520    2.9740 C.2   351  ADN351      0.2526
     14  C6         3.9570    9.9570    3.1460 C.2   351  ADN351      0.4393
     15  N6         3.0830    9.8260    2.1420 N.pl3 351  ADN351      0.2180
     16  N1         3.4990   10.1040    4.4020 N.2   351  ADN351      0.0021
     17  C2         4.3760   10.2590    5.3870 C.3   351  ADN351      0.5254
     18  N3         5.7050   10.2490    5.3510 N.2   351  ADN351     -0.0055
     19  C4         6.1360   10.0870    4.0940 C.2   351  ADN351      0.3518
@<TRIPOS>BOND
     1     1     2    1
     2    12    11    1
     3    12    13    2
     4     2     3    1
     5    15    14    1
     6    11    10    1
     7    13    14    1
     8    13    19    1
     9    14    16    2
    10     3     4    1
    11     3     5    1
    12    10    19    1
    13    10     9    1
    14     4     9    1
    15     5     6    1
    16     5     7    1
    17    19    18    2
    18    16    17    1
    19     9     7    1
    20     7     8    1
    21    18    17    1
