@<TRIPOS>MOLECULE
1fmw_ATP_A_1.pdb
 31 33 0 0 0
SMALL
GASTEIGER

@<TRIPOS>ATOM
      1  PG        33.2000   58.5340   23.2160 P.3   999  ATP999      0.5373
      2  O1G       33.0680   59.7790   22.4140 O.2   999  ATP999     -0.2221
      3  O2G       33.5890   59.0100   24.5840 O.3   999  ATP999     -0.1143
      4  O3G       31.8760   57.7540   23.3260 O.3   999  ATP999     -0.1143
      5  PB        34.6390   56.9260   21.1660 P.3   999  ATP999      0.2277
      6  O1B       34.1620   57.9070   20.1660 O.2   999  ATP999     -0.5168
      7  O2B       34.0710   55.5730   20.9580 O.3   999  ATP999     -0.4368
      8  O3B       34.3230   57.5660   22.6010 O.3   999  ATP999     -0.2258
      9  PA        37.3510   57.5670   20.1610 P.3   999  ATP999      0.2189
     10  O1A       37.3990   59.0190   20.4180 O.3   999  ATP999     -0.4371
     11  O2A       37.2050   57.2860   18.6760 O.2   999  ATP999     -0.5170
     12  O3A       36.2800   56.7830   20.9930 O.3   999  ATP999     -0.2700
     13  O5'       38.6880   56.8330   20.7440 O.3   999  ATP999     -0.3112
     14  C5'       39.3500   57.1790   21.9980 C.3   999  ATP999      0.1813
     15  C4'       40.8510   57.4450   21.7680 C.3   999  ATP999      0.1821
     16  O4'       41.5560   56.2380   21.3990 O.3   999  ATP999     -0.3135
     17  C3'       41.0410   58.3240   20.5970 C.3   999  ATP999      0.2184
     18  O3'       41.4470   59.6220   20.9460 O.3   999  ATP999     -0.2174
     19  C2'       41.6530   57.7120   19.6330 C.3   999  ATP999      0.2570
     20  O2'       42.6970   58.5520   19.1250 O.3   999  ATP999     -0.2130
     21  C1'       42.1890   56.4130   20.1460 C.3   999  ATP999      0.3186
     22  N9        41.8750   55.2660   19.2860 N.pl3 999  ATP999     -0.1439
     23  C8        40.6860   54.7180   18.9970 C.3   999  ATP999      0.3377
     24  N7        40.7110   53.9370   17.8970 N.2   999  ATP999     -0.2095
     25  C5        42.0250   53.9920   17.4480 C.2   999  ATP999      0.2526
     26  C6        42.7440   53.3990   16.3220 C.2   999  ATP999      0.4393
     27  N6        42.2260   52.5780   15.3870 N.pl3 999  ATP999      0.2180
     28  N1        44.0620   53.7130   16.2670 N.2   999  ATP999      0.0021
     29  C2        44.5830   54.5380   17.2070 C.3   999  ATP999      0.5254
     30  N3        44.0220   55.1130   18.2240 N.2   999  ATP999     -0.0055
     31  C4        42.7310   54.8050   18.3070 C.2   999  ATP999      0.3518
@<TRIPOS>BOND
     1    27    26    1
     2    28    26    2
     3    28    29    1
     4    26    25    1
     5    29    30    1
     6    25    24    2
     7    25    31    1
     8    24    23    1
     9    30    31    2
    10    31    22    1
    11    11     9    2
    12    23    22    1
    13    20    19    1
    14    22    21    1
    15    19    21    1
    16    19    17    1
    17    21    16    1
    18     9    10    1
    19     9    13    1
    20     9    12    1
    21     6     5    2
    22    17    18    1
    23    17    15    1
    24    13    14    1
    25     7     5    1
    26    12     5    1
    27     5     8    1
    28    16    15    1
    29    15    14    1
    30     2     1    2
    31     8     1    1
    32     1     4    1
    33     1     3    1
