@<TRIPOS>MOLECULE
1fn3_HNI_A_1.pdb
 43 50 0 0 0
SMALL
GASTEIGER

@<TRIPOS>ATOM
      1 NI         39.4300   40.1770   15.0950 Ni    142  HNI142      0.0000
      2  CHA       41.0650   42.5880   16.5860 C.2   142  HNI142      0.0000
      3  CHB       41.8710   39.9040   12.7060 C.2   142  HNI142      0.0000
      4  CHC       37.7170   37.6480   13.4690 C.2   142  HNI142      0.0000
      5  CHD       36.9020   40.3560   17.3720 C.2   142  HNI142      0.0000
      6  NA        41.0180   40.9910   14.6730 N.ar  142  HNI142      0.0000
      7  C1A       41.6080   42.0230   15.4230 C.ar  142  HNI142      0.0000
      8  C2A       42.8830   42.4970   14.8930 C.ar  142  HNI142      0.0000
      9  C3A       43.0830   41.7250   13.7990 C.ar  142  HNI142      0.0000
     10  C4A       41.9850   40.7790   13.7270 C.ar  142  HNI142      0.0000
     11  CMA       44.2700   41.7290   12.8510 C.3   142  HNI142      0.0000
     12  CAA       43.7260   43.6860   15.4020 C.3   142  HNI142      0.0000
     13  CBA       45.1870   43.5580   15.7510 C.3   142  HNI142      0.0000
     14  CGA       45.6740   44.4190   16.8960 C.2   142  HNI142      0.0000
     15  O1A       44.9580   45.3520   17.2700 O.co2 142  HNI142      0.0000
     16  O2A       46.7520   44.1810   17.4290 O.co2 142  HNI142      0.0000
     17  NB        39.7500   39.0420   13.4930 N.2   142  HNI142      0.0000
     18  C1B       40.7900   39.0830   12.6030 C.2   142  HNI142      0.0000
     19  C2B       40.6960   38.0840   11.5590 C.2   142  HNI142      0.0000
     20  C3B       39.4970   37.4590   11.7690 C.2   142  HNI142      0.0000
     21  C4B       38.9490   38.0680   12.9700 C.2   142  HNI142      0.0000
     22  CMB       41.7540   37.9310   10.4630 C.3   142  HNI142      0.0000
     23  CAB       38.7040   36.3480   11.1030 C.2   142  HNI142      0.0000
     24  CBB       38.5350   36.0630    9.7700 C.2   142  HNI142      0.0000
     25  NC        37.7080   39.1950   15.3470 N.ar  142  HNI142      0.0000
     26  C1C       37.1380   38.1930   14.5970 C.ar  142  HNI142      0.0000
     27  C2C       35.8590   37.7810   15.1320 C.ar  142  HNI142      0.0000
     28  C3C       35.6380   38.5300   16.2150 C.ar  142  HNI142      0.0000
     29  C4C       36.7760   39.4290   16.3380 C.ar  142  HNI142      0.0000
     30  CMC       35.0300   36.6920   14.4960 C.3   142  HNI142      0.0000
     31  CAC       34.4830   38.5650   17.1560 C.2   142  HNI142      0.0000
     32  CBC       33.3600   39.2890   16.8690 C.2   142  HNI142      0.0000
     33  ND        39.0670   41.2370   16.6410 N.2   142  HNI142      0.0000
     34  C1D       37.9820   41.2110   17.5180 C.2   142  HNI142      0.0000
     35  C2D       38.1080   42.2110   18.5730 C.2   142  HNI142      0.0000
     36  C3D       39.2830   42.8190   18.3590 C.2   142  HNI142      0.0000
     37  C4D       39.8400   42.2520   17.1520 C.2   142  HNI142      0.0000
     38  CMD       37.1450   42.4800   19.7170 C.3   142  HNI142      0.0000
     39  CAD       39.9120   43.9280   19.1770 C.3   142  HNI142      0.0000
     40  CBD       39.4370   45.2930   18.7320 C.3   142  HNI142      0.0000
     41  CGD       40.1040   46.3820   19.5400 C.2   142  HNI142      0.0000
     42  O1D       40.3060   47.4710   18.9920 O.co2 142  HNI142      0.0000
     43  O2D       40.4220   46.1190   20.6980 O.co2 142  HNI142      0.0000
@<TRIPOS>BOND
     1    24    23    2
     2    22    19    1
     3    23    20    1
     4    19    20    2
     5    19    18    1
     6    20    21    1
     7    18     3    1
     8    18    17    2
     9     3    10    2
    10    11     9    1
    11    21     4    2
    12    21    17    1
    13     4    26    1
    14    17     1    1
    15    10     9   ar
    16    10     6   ar
    17     9     8   ar
    18    30    27    1
    19    26    27   ar
    20    26    25   ar
    21     6     1    1
    22     6     7   ar
    23     8    12    1
    24     8     7   ar
    25     1    25    1
    26     1    33    1
    27    27    28   ar
    28    25    29   ar
    29    12    13    1
    30     7     2    2
    31    13    14    1
    32    28    29   ar
    33    28    31    1
    34    29     5    1
    35     2    37    1
    36    33    37    2
    37    33    34    1
    38    32    31    2
    39    14    15   ar
    40    14    16   ar
    41    37    36    1
    42     5    34    2
    43    34    35    1
    44    36    35    2
    45    36    39    1
    46    35    38    1
    47    40    39    1
    48    40    41    1
    49    42    41   ar
    50    41    43   ar
