@<TRIPOS>MOLECULE
1fn8_III_B_1.pdb
 20 19 0 0 0
SMALL
GASTEIGER

@<TRIPOS>ATOM
      1  N         11.4270    0.2450  -10.2910 N.3     1  GLY1       -0.1210
      2  CA        10.0080    0.3070  -10.5920 C.3     1  GLY1        0.1956
      3  C          9.1630    0.5490   -9.3580 C.2     1  GLY1        0.2612
      4  O          7.9600    0.6340   -9.4000 O.2     1  GLY1       -0.2717
      5  N          9.8160    0.6960   -8.2070 N.am    2  ALA2       -0.1965
      6  CA         9.1080    0.8310   -6.9450 C.3     2  ALA2        0.1728
      7  C          8.2640    2.0870   -6.8270 C.2     2  ALA2        0.2612
      8  O          8.6630    3.1580   -7.3040 O.2     2  ALA2       -0.2715
      9  CB        10.1350    0.7450   -5.8250 C.3     2  ALA2        0.0334
     10  N          7.1280    1.9410   -6.1180 N.am    3  ARG3       -0.2031
     11  CA         6.3060    3.1610   -6.0330 C.3     3  ARG3        0.1283
     12  C          6.4200    4.0350   -4.7320 C.3     3  ARG3        0.2036
     13  O          5.4730    5.0410   -4.2090 O.3     3  ARG3       -0.2185
     14  CB         4.8420    2.7650   -6.3290 C.3     3  ARG3        0.0281
     15  CG         4.7270    2.3020   -7.7550 C.3     3  ARG3        0.0488
     16  CD         3.4140    1.7300   -8.1860 C.3     3  ARG3        0.2205
     17  NE         3.4500    1.6080   -9.6540 N.pl3   3  ARG3       -0.0865
     18  CZ         2.3550    1.2860  -10.3180 C.cat   3  ARG3        0.5346
     19  NH1        1.2180    1.0570   -9.6310 N.pl3   3  ARG3        0.1354
     20  NH2        2.3320    1.1540  -11.6440 N.pl3   3  ARG3        0.1354
@<TRIPOS>BOND
     1    20    18    1
     2     2     1    1
     3     2     3    1
     4    18    17    2
     5    18    19    1
     6    17    16    1
     7     4     3    2
     8     3     5   am
     9     5     6    1
    10    16    15    1
    11    15    14    1
    12     8     7    2
    13     6     7    1
    14     6     9    1
    15     7    10   am
    16    14    11    1
    17    10    11    1
    18    11    12    1
    19    12    13    1
