@<TRIPOS>MOLECULE
1fnc_A2P_A_1.pdb
 27 29 0 0 0
SMALL
GASTEIGER

@<TRIPOS>ATOM
      1  P1         9.2760   -4.5530   12.2410 P.3   316  A2P316      0.5328
      2  O1P        8.2710   -3.8760   11.3910 O.2   316  A2P316     -0.2224
      3  O2P       10.4430   -4.9360   11.4170 O.3   316  A2P316     -0.1145
      4  O3P        8.6760   -5.7660   12.8430 O.3   316  A2P316     -0.1145
      5  P2        15.0690   -3.4910   11.2420 P.3   316  A2P316      0.5327
      6  O4P       15.0430   -4.9000   10.7800 O.3   316  A2P316     -0.1145
      7  O5P       15.2710   -2.5530   10.1320 O.2   316  A2P316     -0.2224
      8  O6P       16.0950   -3.3450   12.1910 O.3   316  A2P316     -0.1145
      9  O5'       13.7780   -3.1070   12.1140 O.3   316  A2P316     -0.2675
     10  C5'       14.1610   -2.2480   13.2760 C.3   316  A2P316      0.1860
     11  C4'       13.0390   -2.2840   14.3050 C.3   316  A2P316      0.1822
     12  O4'       12.2280   -1.0600   14.1290 O.3   316  A2P316     -0.3136
     13  C3'       12.0330   -3.4300   14.2860 C.3   316  A2P316      0.2157
     14  O3'       11.4660   -3.7400   15.5230 O.3   316  A2P316     -0.2175
     15  C2'       11.0240   -2.8870   13.2580 C.3   316  A2P316      0.2314
     16  O2'        9.7540   -3.5420   13.4240 O.3   316  A2P316     -0.2630
     17  C1'       10.8630   -1.4920   13.7880 C.3   316  A2P316      0.3158
     18  N9        10.3050   -0.5520   12.7770 N.pl3 316  A2P316     -0.1439
     19  C8        10.2290   -0.7010   11.3900 C.3   316  A2P316      0.3377
     20  N7         9.6280    0.3340   10.8170 N.2   316  A2P316     -0.2095
     21  C5         9.2940    1.1550   11.8540 C.2   316  A2P316      0.2526
     22  C6         8.6240    2.4370   11.8980 C.2   316  A2P316      0.4393
     23  N6         8.1890    3.0680   10.8330 N.pl3 316  A2P316      0.2180
     24  N1         8.4700    2.9590   13.1460 N.2   316  A2P316      0.0021
     25  C2         8.9130    2.3270   14.2760 C.3   316  A2P316      0.5254
     26  N3         9.5270    1.1690   14.3140 N.2   316  A2P316     -0.0055
     27  C4         9.6880    0.6350   13.0950 C.2   316  A2P316      0.3518
@<TRIPOS>BOND
     1     7     5    2
     2     6     5    1
     3    20    19    1
     4    20    21    2
     5    23    22    1
     6     5     9    1
     7     5     8    1
     8    19    18    1
     9     2     1    2
    10     3     1    1
    11    21    22    1
    12    21    27    1
    13    22    24    2
    14     9    10    1
    15     1     4    1
    16     1    16    1
    17    18    27    1
    18    18    17    1
    19    27    26    2
    20    24    25    1
    21    15    16    1
    22    15    17    1
    23    15    13    1
    24    10    11    1
    25    17    12    1
    26    12    11    1
    27    25    26    1
    28    13    11    1
    29    13    14    1
