@<TRIPOS>MOLECULE
1fnd_A2P_A_1.pdb
 27 29 0 0 0
SMALL
GASTEIGER

@<TRIPOS>ATOM
      1  P1         9.1350   -4.6300   12.2120 P.3   316  A2P316      0.5328
      2  O1P        8.0850   -3.8170   11.4070 O.2   316  A2P316     -0.2224
      3  O2P       10.3490   -5.1310   11.4130 O.3   316  A2P316     -0.1145
      4  O3P        8.5710   -5.8260   13.0520 O.3   316  A2P316     -0.1145
      5  P2        15.9780   -4.3740   13.0170 P.3   316  A2P316      0.5327
      6  O4P       16.9270   -3.6920   12.1750 O.3   316  A2P316     -0.1145
      7  O5P       16.7180   -5.4050   13.8740 O.3   316  A2P316     -0.1145
      8  O6P       14.9740   -5.0220   12.1700 O.2   316  A2P316     -0.2224
      9  O5'       15.1900   -3.3240   13.9970 O.3   316  A2P316     -0.2675
     10  C5'       14.2180   -2.3000   13.4210 C.3   316  A2P316      0.1860
     11  C4'       13.0510   -2.2460   14.3730 C.3   316  A2P316      0.1822
     12  O4'       12.2940   -1.0630   13.9290 O.3   316  A2P316     -0.3136
     13  C3'       12.0610   -3.4070   14.3130 C.3   316  A2P316      0.2157
     14  O3'       11.4330   -3.7580   15.5110 O.3   316  A2P316     -0.2175
     15  C2'       11.1190   -2.8770   13.1980 C.3   316  A2P316      0.2314
     16  O2'        9.8310   -3.4630   13.2880 O.3   316  A2P316     -0.2630
     17  C1'       10.9220   -1.5100   13.7720 C.3   316  A2P316      0.3158
     18  N9        10.2840   -0.5930   12.8010 N.pl3 316  A2P316     -0.1439
     19  C8        10.2360   -0.7230   11.4170 C.3   316  A2P316      0.3377
     20  N7         9.6310    0.3260   10.8560 N.2   316  A2P316     -0.2095
     21  C5         9.3090    1.1600   11.8730 C.2   316  A2P316      0.2526
     22  C6         8.6110    2.4130   11.8920 C.2   316  A2P316      0.4393
     23  N6         8.1770    2.9920   10.8150 N.pl3 316  A2P316      0.2180
     24  N1         8.4250    2.9580   13.1380 N.2   316  A2P316      0.0021
     25  C2         8.8840    2.3440   14.2730 C.3   316  A2P316      0.5254
     26  N3         9.5550    1.1990   14.3190 N.2   316  A2P316     -0.0055
     27  C4         9.7210    0.6520   13.1120 C.2   316  A2P316      0.3518
@<TRIPOS>BOND
     1    23    22    1
     2    20    19    1
     3    20    21    2
     4     2     1    2
     5     3     1    1
     6    19    18    1
     7    21    22    1
     8    21    27    1
     9    22    24    2
    10     8     5    2
    11     6     5    1
    12     1     4    1
    13     1    16    1
    14    18    27    1
    15    18    17    1
    16     5     7    1
    17     5     9    1
    18    27    26    2
    19    24    25    1
    20    15    16    1
    21    15    17    1
    22    15    13    1
    23    10     9    1
    24    10    11    1
    25    17    12    1
    26    12    11    1
    27    25    26    1
    28    13    11    1
    29    13    14    1
