@<TRIPOS>MOLECULE
1fnm_GDP_A_1.pdb
 28 30 0 0 0
SMALL
GASTEIGER

@<TRIPOS>ATOM
      1  PB        40.6860   18.5540   37.7460 P.3   900  GDP900      0.5373
      2  O1B       39.2330   18.6350   37.8900 O.3   900  GDP900     -0.1143
      3  O2B       41.3560   17.6500   38.6750 O.3   900  GDP900     -0.1143
      4  O3B       41.1170   18.1980   36.3660 O.2   900  GDP900     -0.2221
      5  O3A       41.2390   20.0150   38.0830 O.3   900  GDP900     -0.2261
      6  PA        41.9820   21.1200   37.1240 P.3   900  GDP900      0.2231
      7  O1A       41.0800   21.5220   36.0330 O.2   900  GDP900     -0.5169
      8  O2A       43.2880   20.5710   36.7350 O.3   900  GDP900     -0.4370
      9  O5'       42.1630   22.2490   38.2130 O.3   900  GDP900     -0.3111
     10  C5'       41.0260   22.9460   38.7680 C.3   900  GDP900      0.1813
     11  C4'       41.3390   24.4120   39.0220 C.3   900  GDP900      0.1799
     12  O4'       42.4750   24.4580   39.9330 O.3   900  GDP900     -0.3326
     13  C3'       41.7640   25.1580   37.7730 C.3   900  GDP900      0.2158
     14  O3'       41.2880   26.4980   37.9710 O.3   900  GDP900     -0.2175
     15  C2'       43.3010   25.0160   37.8450 C.3   900  GDP900      0.2310
     16  O2'       43.9970   26.0060   37.0660 O.3   900  GDP900     -0.2158
     17  C1'       43.5720   25.1570   39.3370 C.3   900  GDP900      0.2293
     18  N9        44.8550   24.5000   39.7250 N.pl3 900  GDP900     -0.2354
     19  C8        45.3850   23.2620   39.3470 C.3   900  GDP900      0.2246
     20  N7        46.5580   22.9770   39.8670 N.2   900  GDP900     -0.2322
     21  C5        46.8230   24.1040   40.6430 C.2   900  GDP900      0.2182
     22  C6        47.9290   24.4340   41.4630 C.1   900  GDP900      0.2372
     23  O6        48.9620   23.7590   41.6730 O.2   900  GDP900     -0.2069
     24  N1        47.8100   25.6700   42.0880 N.2   900  GDP900     -0.2485
     25  C2        46.7300   26.5370   41.9550 C.1   900  GDP900      0.2531
     26  N2        46.7640   27.6860   42.6220 N.pl3 900  GDP900     -0.0226
     27  N3        45.6710   26.2500   41.1790 N.2   900  GDP900     -0.3074
     28  C4        45.7740   25.0370   40.5640 C.2   900  GDP900      0.2300
@<TRIPOS>BOND
     1     7     6    2
     2     4     1    2
     3     8     6    1
     4    16    15    1
     5     6     5    1
     6     6     9    1
     7     1     2    1
     8     1     5    1
     9     1     3    1
    10    13    15    1
    11    13    14    1
    12    13    11    1
    13    15    17    1
    14     9    10    1
    15    10    11    1
    16    11    12    1
    17    17    18    1
    18    17    12    1
    19    19    18    1
    20    19    20    1
    21    18    28    1
    22    20    21    2
    23    28    21    1
    24    28    27    2
    25    21    22    1
    26    27    25    2
    27    22    23    2
    28    22    24    2
    29    25    24    2
    30    25    26    1
