@<TRIPOS>MOLECULE
1fnn_ADP_A_1.pdb
 27 29 0 0 0
SMALL
GASTEIGER

@<TRIPOS>ATOM
      1  PB        34.1170    2.2770   18.9880 P.3   398  ADP398      0.5373
      2  O1B       35.5320    2.8310   18.8850 O.3   398  ADP398     -0.1143
      3  O2B       33.5780    2.3230   20.3030 O.3   398  ADP398     -0.1143
      4  O3B       34.3080    0.9080   18.5210 O.2   398  ADP398     -0.2221
      5  PA        32.8210    4.0370   17.1730 P.3   398  ADP398      0.2231
      6  O1A       33.3180    5.3010   17.7450 O.3   398  ADP398     -0.4370
      7  O2A       33.5080    3.7070   15.9190 O.2   398  ADP398     -0.5169
      8  O3A       32.9450    2.8990   18.1950 O.3   398  ADP398     -0.2261
      9  O5'       31.2290    4.1330   16.7970 O.3   398  ADP398     -0.3111
     10  C5'       30.7450    3.1180   15.9350 C.3   398  ADP398      0.1813
     11  C4'       29.8170    3.8200   14.9230 C.3   398  ADP398      0.1821
     12  O4'       28.7480    4.3970   15.6380 O.3   398  ADP398     -0.3135
     13  C3'       30.4620    4.9700   14.1600 C.3   398  ADP398      0.2184
     14  O3'       29.8480    5.0500   12.8850 O.3   398  ADP398     -0.2174
     15  C2'       30.1420    6.1000   15.0790 C.3   398  ADP398      0.2570
     16  O2'       30.1650    7.3650   14.4160 O.3   398  ADP398     -0.2130
     17  C1'       28.6960    5.7630   15.4660 C.3   398  ADP398      0.3186
     18  N9        28.4600    6.2960   16.7510 N.pl3 398  ADP398     -0.1439
     19  C8        28.8430    5.7300   17.9380 C.3   398  ADP398      0.3377
     20  N7        28.2990    6.2580   18.9940 N.2   398  ADP398     -0.2095
     21  C5        27.4950    7.2490   18.4550 C.2   398  ADP398      0.2526
     22  C6        26.6580    8.2030   19.0560 C.2   398  ADP398      0.4393
     23  N6        26.5390    8.2810   20.3720 N.pl3 398  ADP398      0.2180
     24  N1        26.0130    9.0650   18.2660 N.2   398  ADP398      0.0021
     25  C2        26.1850    8.9890   16.9600 C.3   398  ADP398      0.5254
     26  N3        26.9410    8.1450   16.2600 N.2   398  ADP398     -0.0055
     27  C4        27.5830    7.2850   17.0960 C.2   398  ADP398      0.3518
@<TRIPOS>BOND
     1    14    13    1
     2    13    11    1
     3    13    15    1
     4    16    15    1
     5    11    12    1
     6    11    10    1
     7    15    17    1
     8    17    12    1
     9    17    18    1
    10     7     5    2
    11    10     9    1
    12    26    25    1
    13    26    27    2
    14    18    27    1
    15    18    19    1
    16     9     5    1
    17    25    24    1
    18    27    21    1
    19     5     6    1
    20     5     8    1
    21    19    20    1
    22     8     1    1
    23    24    22    2
    24    21    20    2
    25    21    22    1
    26     4     1    2
    27     2     1    1
    28     1     3    1
    29    22    23    1
