@<TRIPOS>MOLECULE
1fnp_U10_L_1.pdb
 48 48 0 0 0
SMALL
GASTEIGER

@<TRIPOS>ATOM
      1  C1        36.1490   74.4130   30.9990 C.2   502  U10502      0.0198
      2  C2        36.2720   73.6120   29.7970 C.2   502  U10502      0.2282
      3  C3        35.6930   74.0730   28.5590 C.2   502  U10502      0.2140
      4  C4        35.0900   75.2840   28.5120 C.2   502  U10502      0.2140
      5  C5        35.0190   76.1150   29.7000 C.2   502  U10502      0.2285
      6  C6        35.5600   75.6320   30.9620 C.2   502  U10502      0.0235
      7  C1M       36.7120   73.8180   32.2920 C.3   502  U10502      0.0343
      8  C3M       36.1820   71.8350   27.2160 C.3   502  U10502      0.2528
      9  C4M       34.1470   75.1720   26.1810 C.3   502  U10502      0.2528
     10  C7        35.5200   76.4520   32.2700 C.3   502  U10502      0.0548
     11  C8        34.3290   77.2120   32.5070 C.2   502  U10502     -0.0298
     12  C9        34.0410   78.0760   33.5570 C.2   502  U10502     -0.0475
     13  C10       32.7100   78.8270   33.7240 C.3   502  U10502      0.0260
     14  C11       35.0490   78.3520   34.6890 C.3   502  U10502      0.0264
     15  C12       34.8350   79.6870   35.3890 C.3   502  U10502      0.0297
     16  C13       34.8910   79.5490   36.8410 C.2   502  U10502     -0.0342
     17  C14       34.0290   78.9360   37.7500 C.2   502  U10502     -0.0478
     18  C15       34.2530   78.9390   39.2810 C.3   502  U10502      0.0260
     19  C16       32.7340   78.2090   37.3090 C.3   502  U10502      0.0263
     20  C17       32.1580   77.2460   38.3410 C.3   502  U10502      0.0297
     21  C18       31.1090   77.8830   39.1160 C.2   502  U10502     -0.0342
     22  C19       30.7680   77.7670   40.4590 C.2   502  U10502     -0.0478
     23  C20       31.5020   76.8680   41.4770 C.3   502  U10502      0.0260
     24  C21       29.6110   78.5520   41.0890 C.3   502  U10502      0.0263
     25  C22       28.2850   78.3670   40.3610 C.3   502  U10502      0.0297
     26  C23       27.6490   77.0500   40.6330 C.2   502  U10502     -0.0342
     27  C24       27.2370   76.4330   41.8160 C.2   502  U10502     -0.0478
     28  C25       27.4150   77.0210   43.2320 C.3   502  U10502      0.0260
     29  C26       26.5600   75.0550   41.8380 C.3   502  U10502      0.0263
     30  C27       25.0920   75.0870   41.4080 C.3   502  U10502      0.0297
     31  C28       24.2110   75.5770   42.4910 C.2   502  U10502     -0.0342
     32  C29       22.8220   75.6650   42.5830 C.2   502  U10502     -0.0478
     33  C30       21.8370   75.2310   41.4820 C.3   502  U10502      0.0260
     34  C31       22.1070   76.2250   43.8180 C.3   502  U10502      0.0263
     35  C32       21.6970   75.1590   44.8300 C.3   502  U10502      0.0297
     36  C33       20.3680   75.4710   45.4120 C.2   502  U10502     -0.0342
     37  C34       19.7560   75.0900   46.6080 C.2   502  U10502     -0.0478
     38  C35       20.4050   74.1950   47.6840 C.3   502  U10502      0.0260
     39  C36       18.3330   75.5310   46.9900 C.3   502  U10502      0.0263
     40  C37       18.2570   76.9480   47.5460 C.3   502  U10502      0.0297
     41  C38       16.8680   77.3230   47.8120 C.2   502  U10502     -0.0342
     42  C39       16.3100   78.2840   48.6530 C.2   502  U10502     -0.0478
     43  C40       17.1300   79.2260   49.5580 C.3   502  U10502      0.0260
     44  C41       14.7940   78.5260   48.7940 C.3   502  U10502      0.0260
     45  O2        36.9370   72.6340   29.8100 O.2   502  U10502     -0.2836
     46  O3        35.6800   73.1200   27.4240 O.2   502  U10502     -0.4652
     47  O4        34.4060   75.8460   27.3710 O.2   502  U10502     -0.4652
     48  O5        34.5850   77.2540   29.6120 O.2   502  U10502     -0.2835
@<TRIPOS>BOND
     1     9    47    1
     2     8    46    1
     3    47     4    1
     4    46     3    1
     5     4     3    2
     6     4     5    1
     7     3     2    1
     8    48     5    2
     9     5     6    1
    10     2    45    2
    11     2     1    1
    12     6     1    2
    13     6    10    1
    14     1     7    1
    15    10    11    1
    16    11    12    2
    17    12    13    1
    18    12    14    1
    19    14    15    1
    20    15    16    1
    21    16    17    2
    22    19    17    1
    23    19    20    1
    24    17    18    1
    25    20    21    1
    26    21    22    2
    27    25    26    1
    28    25    24    1
    29    22    24    1
    30    22    23    1
    31    26    27    2
    32    30    29    1
    33    30    31    1
    34    33    32    1
    35    27    29    1
    36    27    28    1
    37    31    32    2
    38    32    34    1
    39    34    35    1
    40    35    36    1
    41    36    37    2
    42    37    39    1
    43    37    38    1
    44    39    40    1
    45    40    41    1
    46    41    42    2
    47    42    44    1
    48    42    43    1
