@<TRIPOS>MOLECULE
1fnp_SPO_M_1.pdb
 42 41 0 0 0
SMALL
GASTEIGER

@<TRIPOS>ATOM
      1  CM1       42.6490   84.7730   55.6670 C.3   600  SPO600      0.1739
      2  O1        43.7060   85.8930   55.6440 O.3   600  SPO600     -0.3559
      3  C1        44.6750   85.8840   54.4400 C.3   600  SPO600      0.0933
      4  C2        46.1030   85.8420   54.9680 C.3   600  SPO600      0.0296
      5  C3        44.4120   84.6580   53.5550 C.3   600  SPO600      0.0296
      6  C4        44.4770   87.1600   53.6370 C.3   600  SPO600      0.0319
      7  C5        43.0580   87.4690   53.3640 C.3   600  SPO600      0.0281
      8  C6        42.7140   88.3670   52.1530 C.2   600  SPO600     -0.0303
      9  C7        41.4420   88.9000   51.9250 C.2   600  SPO600     -0.0261
     10  C8        40.3080   88.8350   52.9810 C.3   600  SPO600      0.0307
     11  C9        41.3430   89.6680   50.7640 C.2   600  SPO600     -0.0046
     12  C10       40.0510   90.3240   50.2950 C.2   600  SPO600     -0.0007
     13  C11       40.0910   91.1220   48.9740 C.2   600  SPO600     -0.0043
     14  C12       38.9210   91.5740   48.3800 C.2   600  SPO600     -0.0222
     15  C13       37.5410   91.2470   48.9810 C.3   600  SPO600      0.0310
     16  C14       39.0490   92.2920   47.1920 C.2   600  SPO600     -0.0085
     17  C15       37.7980   92.7950   46.5170 C.2   600  SPO600     -0.0221
     18  C16       37.8070   93.5250   45.1690 C.3   600  SPO600      0.0480
     19  C17       36.5670   93.9030   44.6540 C.2   600  SPO600     -0.0395
     20  C18       35.2760   93.4810   45.3630 C.3   600  SPO600      0.0267
     21  C19       36.5050   94.5840   43.4410 C.2   600  SPO600     -0.0085
     22  C20       37.7230   94.8980   42.6810 C.2   600  SPO600     -0.0052
     23  C21       37.7850   96.1040   41.8020 C.2   600  SPO600     -0.0258
     24  C22       39.1300   96.5580   41.4730 C.3   600  SPO600      0.0304
     25  C23       39.4850   97.0550   40.2310 C.3   600  SPO600      0.0264
     26  C24       38.4430   97.6850   39.2790 C.3   600  SPO600      0.0050
     27  C25       40.8390   97.3480   40.1390 C.2   600  SPO600     -0.0261
     28  C26       41.4750   97.8430   38.9050 C.2   600  SPO600     -0.0052
     29  C27       42.9660   98.0750   38.9270 C.2   600  SPO600     -0.0088
     30  C28       43.6190   98.5300   37.7920 C.2   600  SPO600     -0.0439
     31  C29       42.9410   98.8210   36.4370 C.3   600  SPO600      0.0264
     32  C30       45.1100   98.8250   37.7870 C.3   600  SPO600      0.0220
     33  C31       45.4920   99.7930   38.8900 C.3   600  SPO600      0.0043
     34  C32       46.8130  100.3470   38.6770 C.3   600  SPO600      0.0003
     35  C33       47.5160  101.3080   39.3970 C.3   600  SPO600      0.0000
     36  C34       46.8330  102.3150   40.3400 C.3   600  SPO600      0.0000
     37  C35       48.9310  101.7700   38.9860 C.3   600  SPO600      0.0000
     38  C36       49.9250  100.6170   38.8570 C.3   600  SPO600      0.0000
     39  C37       51.1850  101.0470   38.2040 C.3   600  SPO600      0.0000
     40  C38       51.5660  101.0570   36.8610 C.3   600  SPO600      0.0000
     41  C39       51.9450   99.7890   36.0600 C.3   600  SPO600      0.0000
     42  C40       51.4840  102.3050   35.9530 C.3   600  SPO600      0.0000
@<TRIPOS>BOND
     1    42    40    1
     2    41    40    1
     3    31    30    1
     4    40    39    1
     5    32    30    1
     6    32    33    1
     7    30    29    2
     8    39    38    1
     9    34    33    1
    10    34    35    1
    11    38    37    1
    12    28    29    1
    13    28    27    2
    14    37    35    1
    15    26    25    1
    16    35    36    1
    17    27    25    1
    18    25    24    1
    19    24    23    1
    20    23    22    2
    21    22    21    1
    22    21    19    2
    23    19    18    1
    24    19    20    1
    25    18    17    1
    26    17    16    2
    27    16    14    1
    28    14    13    2
    29    14    15    1
    30    13    12    1
    31    12    11    2
    32    11     9    1
    33     9     8    2
    34     9    10    1
    35     8     7    1
    36     7     6    1
    37     5     3    1
    38     6     3    1
    39     3     4    1
    40     3     2    1
    41     2     1    1
