@<TRIPOS>MOLECULE
1fnq_U10_L_1.pdb
 48 48 0 0 0
SMALL
GASTEIGER

@<TRIPOS>ATOM
      1  C1        35.9180   75.3390   32.3580 C.2   502  U10502      0.0198
      2  C2        36.5640   74.4470   31.4170 C.2   502  U10502      0.2282
      3  C3        36.2060   74.4880   30.0180 C.2   502  U10502      0.2140
      4  C4        35.3030   75.3880   29.5780 C.2   502  U10502      0.2140
      5  C5        34.6610   76.2890   30.5120 C.2   502  U10502      0.2285
      6  C6        34.9740   76.2280   31.9300 C.2   502  U10502      0.0235
      7  C1M       36.3580   75.1940   33.8220 C.3   502  U10502      0.0343
      8  C3M       36.3300   72.9010   28.0870 C.3   502  U10502      0.2528
      9  C4M       35.3920   76.7460   27.5690 C.3   502  U10502      0.2528
     10  C7        34.1930   77.1280   32.9220 C.3   502  U10502      0.0548
     11  C8        35.0300   78.0510   33.6920 C.2   502  U10502     -0.0298
     12  C9        34.9140   78.4880   35.0080 C.2   502  U10502     -0.0475
     13  C10       33.7890   78.0460   35.9730 C.3   502  U10502      0.0260
     14  C11       35.9140   79.4670   35.6410 C.3   502  U10502      0.0264
     15  C12       35.9340   79.4030   37.1650 C.3   502  U10502      0.0297
     16  C13       37.3020   79.4180   37.6970 C.2   502  U10502     -0.0342
     17  C14       38.3230   78.4680   37.6640 C.2   502  U10502     -0.0478
     18  C15       38.2170   77.0740   37.0040 C.3   502  U10502      0.0260
     19  C16       39.6950   78.7000   38.3110 C.3   502  U10502      0.0263
     20  C17       40.3730   79.9970   37.8840 C.3   502  U10502      0.0297
     21  C18       41.8100   79.9010   38.1130 C.2   502  U10502     -0.0342
     22  C19       42.8020   80.8550   38.3140 C.2   502  U10502     -0.0478
     23  C20       42.5800   82.3730   38.3650 C.3   502  U10502      0.0260
     24  C21       44.2620   80.4690   38.5290 C.3   502  U10502      0.0263
     25  C22       44.4940   79.8550   39.8980 C.3   502  U10502      0.0297
     26  C23       45.3670   78.6870   39.8240 C.2   502  U10502     -0.0342
     27  C24       45.0830   77.3370   39.6200 C.2   502  U10502     -0.0478
     28  C25       43.6700   76.7560   39.4000 C.3   502  U10502      0.0260
     29  C26       46.1740   76.2630   39.5920 C.3   502  U10502      0.0263
     30  C27       46.8410   76.0440   40.9460 C.3   502  U10502      0.0297
     31  C28       48.1390   75.3800   40.7840 C.2   502  U10502     -0.0342
     32  C29       49.2460   75.3010   41.6270 C.2   502  U10502     -0.0478
     33  C30       49.3320   75.9570   43.0220 C.3   502  U10502      0.0260
     34  C31       50.5360   74.5530   41.2420 C.3   502  U10502      0.0263
     35  C32       50.5230   73.0620   41.5660 C.3   502  U10502      0.0297
     36  C33       51.8310   72.6470   42.0930 C.2   502  U10502     -0.0342
     37  C34       52.4080   71.3940   42.2910 C.2   502  U10502     -0.0478
     38  C35       51.7370   70.0460   41.9440 C.3   502  U10502      0.0260
     39  C36       53.8150   71.2210   42.8910 C.3   502  U10502      0.0263
     40  C37       53.8690   71.5420   44.3840 C.3   502  U10502      0.0297
     41  C38       55.2040   71.2930   44.9350 C.2   502  U10502     -0.0342
     42  C39       55.6740   71.2860   46.2480 C.2   502  U10502     -0.0478
     43  C40       54.7930   71.5650   47.4880 C.3   502  U10502      0.0260
     44  C41       57.1410   70.9970   46.6340 C.3   502  U10502      0.0260
     45  O2        37.4460   73.7050   31.7940 O.2   502  U10502     -0.2836
     46  O3        36.8850   73.4950   29.2170 O.2   502  U10502     -0.4652
     47  O4        34.9840   75.5960   28.1970 O.2   502  U10502     -0.4652
     48  O5        33.8260   77.0970   30.1070 O.2   502  U10502     -0.2835
@<TRIPOS>BOND
     1     9    47    1
     2     8    46    1
     3    47     4    1
     4    46     3    1
     5     4     3    2
     6     4     5    1
     7     3     2    1
     8    48     5    2
     9     5     6    1
    10     2    45    2
    11     2     1    1
    12     6     1    2
    13     6    10    1
    14     1     7    1
    15    10    11    1
    16    11    12    2
    17    12    14    1
    18    12    13    1
    19    14    15    1
    20    18    17    1
    21    15    16    1
    22    17    16    2
    23    17    19    1
    24    20    21    1
    25    20    19    1
    26    21    22    2
    27    22    23    1
    28    22    24    1
    29    24    25    1
    30    28    27    1
    31    29    27    1
    32    29    30    1
    33    27    26    2
    34    26    25    1
    35    31    30    1
    36    31    32    2
    37    34    35    1
    38    34    32    1
    39    35    36    1
    40    32    33    1
    41    38    37    1
    42    36    37    2
    43    37    39    1
    44    39    40    1
    45    40    41    1
    46    41    42    2
    47    42    44    1
    48    42    43    1
