@<TRIPOS>MOLECULE
1fnq_SPO_M_1.pdb
 42 41 0 0 0
SMALL
GASTEIGER

@<TRIPOS>ATOM
      1  CM1       42.9270   84.4070   55.3820 C.3   600  SPO600      0.1739
      2  O1        44.1270   85.3310   55.6590 O.3   600  SPO600     -0.3559
      3  C1        44.9150   85.8100   54.4180 C.3   600  SPO600      0.0930
      4  C2        46.3810   85.9430   54.7990 C.3   600  SPO600      0.0296
      5  C3        44.7830   84.7920   53.2840 C.3   600  SPO600      0.0296
      6  C4        44.3900   87.1720   53.9830 C.3   600  SPO600      0.0276
      7  C5        42.9710   87.1750   53.5640 C.3   600  SPO600      0.0067
      8  C6        42.6060   87.8460   52.2300 C.3   600  SPO600      0.0218
      9  C7        41.4620   88.6250   52.0560 C.2   600  SPO600     -0.0482
     10  C8        40.4160   88.8240   53.1720 C.3   600  SPO600      0.0260
     11  C9        41.3140   89.1770   50.7860 C.2   600  SPO600     -0.0343
     12  C10       40.1370   90.0590   50.4100 C.3   600  SPO600      0.0297
     13  C11       40.2130   90.8880   49.1080 C.3   600  SPO600      0.0264
     14  C12       39.0470   91.3340   48.4950 C.2   600  SPO600     -0.0475
     15  C13       37.6610   90.9050   49.0070 C.3   600  SPO600      0.0260
     16  C14       39.1770   92.0820   47.3300 C.2   600  SPO600     -0.0299
     17  C15       37.9120   92.5620   46.6560 C.3   600  SPO600      0.0507
     18  C16       37.9130   93.2940   45.3140 C.2   600  SPO600     -0.0296
     19  C17       36.6710   93.5660   44.7470 C.2   600  SPO600     -0.0435
     20  C18       35.3830   93.0670   45.4200 C.3   600  SPO600      0.0264
     21  C19       36.6110   94.2480   43.5340 C.3   600  SPO600      0.0473
     22  C20       37.8250   94.6770   42.8380 C.2   600  SPO600     -0.0263
     23  C21       37.8030   95.8880   41.9670 C.2   600  SPO600     -0.0300
     24  C22       39.1130   96.4820   41.6770 C.3   600  SPO600      0.0300
     25  C23       39.5010   96.7980   40.3910 C.3   600  SPO600      0.0264
     26  C24       38.4600   97.2020   39.3380 C.3   600  SPO600      0.0050
     27  C25       40.8140   97.2350   40.3080 C.2   600  SPO600     -0.0261
     28  C26       41.4530   97.5480   39.0180 C.2   600  SPO600     -0.0052
     29  C27       42.9230   97.8390   39.0100 C.2   600  SPO600     -0.0088
     30  C28       43.5740   98.1840   37.8340 C.2   600  SPO600     -0.0439
     31  C29       42.8710   98.5410   36.5010 C.3   600  SPO600      0.0264
     32  C30       45.0530   98.5320   37.8350 C.3   600  SPO600      0.0220
     33  C31       45.3250   99.7060   38.7470 C.3   600  SPO600      0.0043
     34  C32       46.7250   99.9400   38.9170 C.3   600  SPO600      0.0003
     35  C33       47.3810  100.9400   39.6230 C.3   600  SPO600      0.0000
     36  C34       46.7210  102.2780   39.9870 C.3   600  SPO600      0.0000
     37  C35       48.9080  101.0180   39.6970 C.3   600  SPO600      0.0000
     38  C36       49.5230  101.4390   38.3710 C.3   600  SPO600      0.0000
     39  C37       50.9790  101.2780   38.3770 C.3   600  SPO600      0.0000
     40  C38       51.9030  101.2490   37.3270 C.3   600  SPO600      0.0000
     41  C39       53.4350  101.4140   37.5220 C.3   600  SPO600      0.0000
     42  C40       51.5450  100.8310   35.8740 C.3   600  SPO600      0.0000
@<TRIPOS>BOND
     1    42    40    1
     2    31    30    1
     3    40    41    1
     4    40    39    1
     5    30    32    1
     6    30    29    2
     7    32    33    1
     8    38    39    1
     9    38    37    1
    10    33    34    1
    11    34    35    1
    12    29    28    1
    13    28    27    2
    14    26    25    1
    15    35    37    1
    16    35    36    1
    17    27    25    1
    18    25    24    1
    19    24    23    1
    20    23    22    2
    21    22    21    1
    22    21    19    1
    23    19    18    2
    24    19    20    1
    25    18    17    1
    26    17    16    1
    27    16    14    2
    28    14    15    1
    29    14    13    1
    30    13    12    1
    31    12    11    1
    32    11     9    2
    33     9     8    1
    34     9    10    1
    35     8     7    1
    36     5     3    1
    37     7     6    1
    38     6     3    1
    39     3     4    1
    40     3     2    1
    41     1     2    1
