@<TRIPOS>MOLECULE
1fnz_A2G_A_1.pdb
 15 15 0 0 0
SMALL
GASTEIGER

@<TRIPOS>ATOM
      1  C1        66.4380  -28.1860   25.6820 C.3   555  A2G555      0.2917
      2  C2        65.8540  -27.3550   26.8750 C.3   555  A2G555      0.1871
      3  C3        66.2480  -25.8750   26.7220 C.3   555  A2G555      0.2095
      4  C4        67.7900  -25.7540   26.6890 C.3   555  A2G555      0.2136
      5  C5        68.3310  -26.5940   25.5000 C.3   555  A2G555      0.1835
      6  C6        69.8380  -26.5700   25.4030 C.3   555  A2G555      0.2142
      7  C7        63.7840  -27.8080   28.0850 C.2   555  A2G555      0.2421
      8  C8        62.2650  -27.9420   28.0380 C.3   555  A2G555      0.0964
      9  O         67.8970  -28.0070   25.6010 O.3   555  A2G555     -0.3242
     10  O1        65.8680  -27.8290   24.4550 O.3   555  A2G555     -0.1879
     11  O3        65.7280  -25.1230   27.8100 O.3   555  A2G555     -0.2183
     12  O4        68.3370  -26.2330   27.9210 O.3   555  A2G555     -0.2176
     13  O6        70.2440  -26.3740   24.0530 O.3   555  A2G555     -0.2176
     14  O7        64.3790  -27.9810   29.1610 O.2   555  A2G555     -0.2733
     15  N2        64.3990  -27.5040   26.9320 N.am  555  A2G555     -0.1991
@<TRIPOS>BOND
     1    13     6    1
     2    10     1    1
     3     6     5    1
     4     5     9    1
     5     5     4    1
     6     9     1    1
     7     1     2    1
     8     4     3    1
     9     4    12    1
    10     3     2    1
    11     3    11    1
    12     2    15    1
    13    15     7   am
    14     8     7    1
    15     7    14    2
