@<TRIPOS>MOLECULE
1fo2_DMJ_A_1.pdb
 11 11 0 0 0
SMALL
GASTEIGER

@<TRIPOS>ATOM
      1  C4        39.0090   40.2680   25.5130 C.3   704  DMJ704      0.2031
      2  O4        39.2170   40.5810   26.8980 O.3   704  DMJ704     -0.2187
      3  C3        37.8240   39.1900   25.5270 C.3   704  DMJ704      0.2151
      4  O3        37.4510   38.7100   24.2400 O.3   704  DMJ704     -0.2176
      5  C2        36.5330   39.8070   26.2310 C.3   704  DMJ704      0.2020
      6  O2        35.4780   38.8590   26.2210 O.3   704  DMJ704     -0.2188
      7  C1        36.1110   41.1420   25.4880 C.3   704  DMJ704      0.1243
      8  N5        37.2720   42.0180   25.5830 N.3   704  DMJ704     -0.2113
      9  C5        38.5930   41.6400   24.8470 C.3   704  DMJ704      0.1386
     10  C6        38.3690   41.5450   23.3070 C.3   704  DMJ704      0.2020
     11  O6        38.1770   42.3670   22.1460 O.3   704  DMJ704     -0.2188
@<TRIPOS>BOND
     1    11    10    1
     2    10     9    1
     3     4     3    1
     4     9     1    1
     5     9     8    1
     6     7     8    1
     7     7     5    1
     8     1     3    1
     9     1     2    1
    10     3     5    1
    11     6     5    1
