@<TRIPOS>MOLECULE
1fo3_KIF_A_1.pdb
 16 17 0 0 0
SMALL
GASTEIGER

@<TRIPOS>ATOM
      1  C4        38.5320   40.2520   25.6920 C.3   704  KIF704      0.2054
      2  O4        38.7330   40.4580   27.1030 O.3   704  KIF704     -0.2184
      3  C3        37.2750   39.2810   25.5610 C.3   704  KIF704      0.2177
      4  O3        36.9690   38.8970   24.2210 O.3   704  KIF704     -0.2175
      5  C2        35.9920   39.9660   26.1760 C.3   704  KIF704      0.2268
      6  O2        34.8570   39.1200   26.0040 O.3   704  KIF704     -0.2163
      7  C1        35.7780   41.3480   25.4640 C.3   704  KIF704      0.2260
      8  N9        34.6510   42.0700   26.0750 N.2   704  KIF704     -0.1772
      9  C8        35.1260   43.3360   26.1780 C.1   704  KIF704      0.2069
     10  O8        34.4420   44.3180   26.4090 O.2   704  KIF704     -0.2176
     11  C7        36.6030   43.3560   25.9670 C.2   704  KIF704      0.3335
     12  O7        37.3260   44.3350   26.0040 O.2   704  KIF704     -0.2568
     13  N         36.9520   42.1040   25.7920 N.am  704  KIF704     -0.2424
     14  C5        38.2610   41.6890   25.1200 C.3   704  KIF704      0.1439
     15  C6        38.2190   41.7310   23.5610 C.3   704  KIF704      0.2045
     16  O6        37.8300   42.5590   22.4540 O.3   704  KIF704     -0.2185
@<TRIPOS>BOND
     1    16    15    1
     2    15    14    1
     3     4     3    1
     4    14     1    1
     5    14    13    1
     6     7    13    1
     7     7     8    1
     8     7     5    1
     9     3     1    1
    10     3     5    1
    11     1     2    1
    12    13    11   am
    13    11    12    2
    14    11     9    1
    15     6     5    1
    16     8     9    2
    17     9    10    2
