@<TRIPOS>MOLECULE
1foa_UD1_A_1.pdb
 39 41 0 0 0
SMALL
GASTEIGER

@<TRIPOS>ATOM
      1  C1'        2.9320   19.7170   14.6360 C.3   449  UD1449      0.2633
      2  C2'        2.4840   18.4610   15.3710 C.3   449  UD1449      0.1845
      3  C3'        1.2370   17.9610   14.6540 C.3   449  UD1449      0.2094
      4  C4'        0.1230   19.0250   14.6930 C.3   449  UD1449      0.2136
      5  C5'        0.6140   20.4430   14.3350 C.3   449  UD1449      0.1834
      6  C6'       -0.3490   21.4330   14.9750 C.3   449  UD1449      0.2142
      7  C7'        4.0990   17.0500   16.4860 C.2   449  UD1449      0.2420
      8  C8'        5.0600   15.8860   16.2990 C.3   449  UD1449      0.0964
      9  N2'        3.5340   17.4600   15.3490 N.am  449  UD1449     -0.1992
     10  O1'        3.0560   19.4260   13.2590 O.3   449  UD1449     -0.2864
     11  O3'        0.7830   16.7640   15.2680 O.3   449  UD1449     -0.2183
     12  O4'       -0.9180   18.6640   13.7880 O.3   449  UD1449     -0.2176
     13  O5'        1.9340   20.7200   14.8840 O.3   449  UD1449     -0.3260
     14  O6'       -0.2670   22.7120   14.3800 O.3   449  UD1449     -0.2176
     15  O7'        3.6890   17.3410   17.6290 O.2   449  UD1449     -0.2733
     16  N1        -0.7010   19.4610    6.8590 N.am  449  UD1449     -0.1766
     17  C2        -1.9080   19.8400    6.2690 C.1   449  UD1449      0.2845
     18  N3        -1.8460   21.0030    5.5350 N.2   449  UD1449     -0.2452
     19  C4        -0.7270   21.8150    5.3290 C.1   449  UD1449      0.2182
     20  C5         0.4750   21.3620    5.9670 C.2   449  UD1449      0.1242
     21  C6         0.4510   20.2270    6.6940 C.2   449  UD1449      0.0929
     22  O2        -2.9490   19.1990    6.3870 O.2   449  UD1449     -0.1918
     23  O4        -0.8320   22.8300    4.6370 O.2   449  UD1449     -0.2085
     24  C1B       -0.6870   18.2260    7.6610 C.3   449  UD1449      0.2401
     25  C2B        0.4350   17.2430    7.3220 C.3   449  UD1449      0.2319
     26  O2'        0.1130   16.4570    6.1900 O.3   449  UD1449     -0.2157
     27  C3B        0.5610   16.4640    8.6310 C.3   449  UD1449      0.2158
     28  C4B        0.1350   17.4690    9.7070 C.3   449  UD1449      0.1799
     29  O4B       -0.4970   18.5750    9.0160 O.3   449  UD1449     -0.3320
     30  O3B       -0.2280   15.2710    8.6960 O.3   449  UD1449     -0.2175
     31  C5B        1.2950   18.0340   10.4960 C.3   449  UD1449      0.1813
     32  O5B        2.2190   18.6830    9.6100 O.3   449  UD1449     -0.3112
     33  PA         3.8010   18.5760    9.8270 P.3   449  UD1449      0.2189
     34  O1A        4.3820   19.0180    8.5410 O.2   449  UD1449     -0.5170
     35  O2A        4.1600   17.1640   10.1120 O.3   449  UD1449     -0.4371
     36  O3A        4.1490   19.4880   10.9690 O.3   449  UD1449     -0.2703
     37  PB         4.4570   19.2630   12.5000 P.3   449  UD1449      0.2208
     38  O1B        5.4520   20.2380   13.0050 O.3   449  UD1449     -0.4371
     39  O2B        4.8190   17.8480   12.7820 O.2   449  UD1449     -0.5170
@<TRIPOS>BOND
     1    23    19    2
     2    19    18    2
     3    19    20    1
     4    18    17    2
     5    20    21    2
     6    26    25    1
     7    17    22    2
     8    17    16   am
     9    21    16    1
    10    16    24    1
    11    25    24    1
    12    25    27    1
    13    24    29    1
    14    34    33    2
    15    27    30    1
    16    27    28    1
    17    29    28    1
    18    32    33    1
    19    32    31    1
    20    28    31    1
    21    33    35    1
    22    33    36    1
    23    36    37    1
    24    37    39    2
    25    37    38    1
    26    37    10    1
    27    10     1    1
    28    12     4    1
    29     5     4    1
    30     5    13    1
    31     5     6    1
    32    14     6    1
    33     1    13    1
    34     1     2    1
    35     3     4    1
    36     3    11    1
    37     3     2    1
    38     9     2    1
    39     9     7   am
    40     8     7    1
    41     7    15    2
