@<TRIPOS>MOLECULE
1foc_HEM_A_1.pdb
 43 50 0 0 0
SMALL
GASTEIGER

@<TRIPOS>ATOM
      1  CHA       43.0070   23.0890   -0.8820 C.2   200  HEM200      0.0000
      2  CHB       39.7560   24.5170    2.0910 C.2   200  HEM200      0.0000
      3  CHC       39.4860   20.1190    3.9340 C.2   200  HEM200      0.0000
      4  CHD       42.6610   18.7370    0.7770 C.2   200  HEM200      0.0000
      5  C1A       42.1440   23.9360   -0.2620 C.2   200  HEM200      0.0000
      6  C2A       41.9640   25.2660   -0.5390 C.2   200  HEM200      0.0000
      7  C3A       40.9420   25.6710    0.3660 C.2   200  HEM200      0.0000
      8  C4A       40.6060   24.5750    1.0820 C.2   200  HEM200      0.0000
      9  CMA       40.3210   26.9750    0.5080 C.3   200  HEM200      0.0000
     10  CAA       42.6850   26.0220   -1.5950 C.3   200  HEM200      0.0000
     11  CBA       43.7060   26.9080   -1.0030 C.3   200  HEM200      0.0000
     12  CGA       43.8560   28.3250   -1.6240 C.2   200  HEM200      0.0000
     13  O1A       44.9110   28.7090   -2.0650 O.co2 200  HEM200      0.0000
     14  O2A       42.9240   29.1030   -1.6930 O.co2 200  HEM200      0.0000
     15  C1B       39.4070   23.4480    2.9830 C.ar  200  HEM200      0.0000
     16  C2B       38.5740   23.5360    4.1700 C.ar  200  HEM200      0.0000
     17  C3B       38.4680   22.2530    4.6430 C.ar  200  HEM200      0.0000
     18  C4B       39.2640   21.4940    3.7610 C.ar  200  HEM200      0.0000
     19  CMB       37.9600   24.7740    4.7310 C.3   200  HEM200      0.0000
     20  CAB       37.7740   21.7050    5.7810 C.3   200  HEM200      0.0000
     21  CBB       36.7410   22.2800    6.5260 C.3   200  HEM200      0.0000
     22  C1C       40.2920   19.2620    3.2330 C.2   200  HEM200      0.0000
     23  C2C       40.4700   17.8410    3.4850 C.2   200  HEM200      0.0000
     24  C3C       41.3300   17.4380    2.5650 C.2   200  HEM200      0.0000
     25  C4C       41.6670   18.6290    1.7830 C.2   200  HEM200      0.0000
     26  CMC       39.8090   16.9970    4.5720 C.3   200  HEM200      0.0000
     27  CAC       41.8590   16.2020    2.3150 C.3   200  HEM200      0.0000
     28  CBC       42.2820   15.2100    3.2240 C.3   200  HEM200      0.0000
     29  C1D       42.9960   19.7760    0.0540 C.ar  200  HEM200      0.0000
     30  C2D       43.9380   19.7120   -0.9370 C.ar  200  HEM200      0.0000
     31  C3D       43.9830   20.9550   -1.4950 C.ar  200  HEM200      0.0000
     32  C4D       43.0590   21.7050   -0.7910 C.ar  200  HEM200      0.0000
     33  CMD       44.7150   18.5150   -1.3260 C.3   200  HEM200      0.0000
     34  CAD       44.8040   21.4440   -2.6020 C.3   200  HEM200      0.0000
     35  CBD       44.2270   21.3770   -4.0160 C.3   200  HEM200      0.0000
     36  CGD       45.2630   21.9530   -5.1290 C.2   200  HEM200      0.0000
     37  O1D       44.8660   22.0650   -6.3490 O.co2 200  HEM200      0.0000
     38  O2D       46.4930   22.2910   -4.7270 O.co2 200  HEM200      0.0000
     39  NA        41.3030   23.5290    0.6910 N.2   200  HEM200      0.0000
     40  NB        39.7960   22.2460    2.8230 N.ar  200  HEM200      0.0000
     41  NC        41.0230   19.7040    2.2040 N.2   200  HEM200      0.0000
     42  ND        42.4910   20.9510    0.1530 N.ar  200  HEM200      0.0000
     43 FE         41.2850   21.6590    1.5610 Fe    200  HEM200      0.0000
@<TRIPOS>BOND
     1    37    36   ar
     2    36    38   ar
     3    36    35    1
     4    35    34    1
     5    34    31    1
     6    13    12   ar
     7    14    12   ar
     8    12    11    1
     9    10    11    1
    10    10     6    1
    11    31    30   ar
    12    31    32   ar
    13    33    30    1
    14    30    29   ar
    15     1    32    2
    16     1     5    1
    17    32    42   ar
    18     6     5    1
    19     6     7    2
    20     5    39    2
    21    29    42   ar
    22    29     4    2
    23    42    43    1
    24     7     9    1
    25     7     8    1
    26    39     8    1
    27    39    43    1
    28     4    25    1
    29     8     2    2
    30    43    41    1
    31    43    40    1
    32    25    41    2
    33    25    24    1
    34     2    15    1
    35    41    22    1
    36    27    24    1
    37    27    28    1
    38    24    23    2
    39    40    15   ar
    40    40    18   ar
    41    15    16   ar
    42    22    23    1
    43    22     3    2
    44    23    26    1
    45    18     3    1
    46    18    17   ar
    47    16    17   ar
    48    16    19    1
    49    17    20    1
    50    20    21    1
