@<TRIPOS>MOLECULE
1foi_14W_A_1.pdb
 11 11 0 0 0
SMALL
GASTEIGER

@<TRIPOS>ATOM
      1  C2        10.4670   12.4540   33.6440 C.ar  810  14W810     -0.0002
      2  C3        11.2660   13.4890   34.1970 C.ar  810  14W810     -0.0002
      3  C4        10.9580   14.8440   33.9230 C.ar  810  14W810     -0.0000
      4  C5         9.8520   15.1710   33.0910 C.ar  810  14W810     -0.0002
      5  C6         9.0500   14.1370   32.5380 C.ar  810  14W810     -0.0002
      6  C1         9.3540   12.7700   32.8100 C.ar  810  14W810      0.0285
      7  C7         8.5010   11.6510   32.2140 C.3   810  14W810      0.2775
      8  N8         7.0260   11.8890   32.2700 N.pl3 810  14W810     -0.0264
      9  C9         6.1550   11.6400   31.2450 C.2   810  14W810      0.3904
     10  C10        6.5540   11.0680   29.8850 C.3   810  14W810      0.1389
     11  N11        4.8820   11.9260   31.5160 N.2   810  14W810      0.1918
@<TRIPOS>BOND
     1    10     9    1
     2     9    11    2
     3     9     8    1
     4     7     8    1
     5     7     6    1
     6     5     6   ar
     7     5     4   ar
     8     6     1   ar
     9     4     3   ar
    10     1     2   ar
    11     3     2   ar
