@<TRIPOS>MOLECULE
1foi_HEM_A_1.pdb
 43 50 0 0 0
SMALL
GASTEIGER

@<TRIPOS>ATOM
      1  CHA        9.3170    8.9560   35.0740 C.2   500  HEM500      0.0000
      2  CHB        4.6960    9.0940   33.6150 C.2   500  HEM500      0.0000
      3  CHC        6.1120    7.4180   29.2750 C.2   500  HEM500      0.0000
      4  CHD       10.5290    6.6040   31.0190 C.2   500  HEM500      0.0000
      5  C1A        7.9390    9.2120   35.0060 C.2   500  HEM500      0.0000
      6  C2A        7.2280   10.0430   35.9540 C.2   500  HEM500      0.0000
      7  C3A        5.9350   10.1010   35.5540 C.2   500  HEM500      0.0000
      8  C4A        5.8420    9.2850   34.3540 C.2   500  HEM500      0.0000
      9  CMA        4.8130   10.8220   36.3030 C.3   500  HEM500      0.0000
     10  CAA        7.8620   10.7700   37.1510 C.3   500  HEM500      0.0000
     11  CBA        7.9910   12.2340   36.7640 C.3   500  HEM500      0.0000
     12  CGA        8.7590   13.0450   37.7840 C.2   500  HEM500      0.0000
     13  O1A        8.4210   12.9720   38.9850 O.co2 500  HEM500      0.0000
     14  O2A        9.7010   13.7650   37.3790 O.co2 500  HEM500      0.0000
     15  C1B        4.6600    8.4750   32.3550 C.ar  500  HEM500      0.0000
     16  C2B        3.5040    8.5330   31.4950 C.ar  500  HEM500      0.0000
     17  C3B        3.8830    8.0690   30.2630 C.ar  500  HEM500      0.0000
     18  C4B        5.3060    7.7710   30.3620 C.ar  500  HEM500      0.0000
     19  CMB        2.1090    8.9890   31.9080 C.3   500  HEM500      0.0000
     20  CAB        3.0450    7.9450   29.1490 C.2   500  HEM500      0.0000
     21  CBB        2.9870    6.8660   28.3030 C.2   500  HEM500      0.0000
     22  C1C        7.4640    7.1130   29.3640 C.2   500  HEM500      0.0000
     23  C2C        8.2490    6.6300   28.2490 C.2   500  HEM500      0.0000
     24  C3C        9.4800    6.3370   28.7420 C.2   500  HEM500      0.0000
     25  C4C        9.4300    6.6550   30.1640 C.2   500  HEM500      0.0000
     26  CMC        7.7230    6.4140   26.8310 C.3   500  HEM500      0.0000
     27  CAC       10.6060    5.8390   28.0720 C.2   500  HEM500      0.0000
     28  CBC       10.6560    5.0400   26.9710 C.2   500  HEM500      0.0000
     29  C1D       10.5500    7.1000   32.3300 C.ar  500  HEM500      0.0000
     30  C2D       11.7590    7.1960   33.1370 C.ar  500  HEM500      0.0000
     31  C3D       11.4570    7.9390   34.2210 C.ar  500  HEM500      0.0000
     32  C4D       10.0320    8.2510   34.1100 C.ar  500  HEM500      0.0000
     33  CMD       13.1240    6.5440   32.8450 C.3   500  HEM500      0.0000
     34  CAD       12.3870    8.3260   35.3880 C.3   500  HEM500      0.0000
     35  CBD       13.3090    9.4940   35.0630 C.3   500  HEM500      0.0000
     36  CGD       13.9240   10.1120   36.3020 C.2   500  HEM500      0.0000
     37  O1D       14.4880    9.3630   37.1270 O.co2 500  HEM500      0.0000
     38  O2D       13.8460   11.3550   36.4480 O.co2 500  HEM500      0.0000
     39  NA         7.0850    8.7480   33.9950 N.2   500  HEM500      0.0000
     40  NB         5.7760    7.9830   31.6640 N.ar  500  HEM500      0.0000
     41  NC         8.1810    7.1140   30.5600 N.2   500  HEM500      0.0000
     42  ND         9.4630    7.6820   32.9600 N.ar  500  HEM500      0.0000
     43 FE          7.5350    7.5740   32.4160 Fe    500  HEM500      0.0000
@<TRIPOS>BOND
     1    26    23    1
     2    28    27    2
     3    27    24    1
     4    23    24    2
     5    23    22    1
     6    21    20    2
     7    24    25    1
     8    20    17    1
     9     3    22    2
    10     3    18    1
    11    22    41    1
    12    25    41    2
    13    25     4    1
    14    17    18   ar
    15    17    16   ar
    16    18    40   ar
    17    41    43    1
    18     4    29    2
    19    16    19    1
    20    16    15   ar
    21    40    15   ar
    22    40    43    1
    23    29    42   ar
    24    29    30   ar
    25    15     2    1
    26    43    42    1
    27    43    39    1
    28    33    30    1
    29    42    32   ar
    30    30    31   ar
    31     2     8    2
    32    39     8    1
    33    39     5    2
    34    32    31   ar
    35    32     1    2
    36    31    34    1
    37     8     7    1
    38     5     1    1
    39     5     6    1
    40    35    34    1
    41    35    36    1
    42     7     6    2
    43     7     9    1
    44     6    10    1
    45    36    38   ar
    46    36    37   ar
    47    11    10    1
    48    11    12    1
    49    14    12   ar
    50    12    13   ar
