@<TRIPOS>MOLECULE
1foj_HEM_A_1.pdb
 43 50 0 0 0
SMALL
GASTEIGER

@<TRIPOS>ATOM
      1  CHA        9.1740    8.9900   35.0930 C.2   500  HEM500      0.0000
      2  CHB        4.6040    9.2280   33.5040 C.2   500  HEM500      0.0000
      3  CHC        6.0390    7.4010   29.2320 C.2   500  HEM500      0.0000
      4  CHD       10.4970    6.8370   30.9880 C.2   500  HEM500      0.0000
      5  C1A        7.8040    9.2410   34.9950 C.2   500  HEM500      0.0000
      6  C2A        7.0320    9.9900   35.9590 C.2   500  HEM500      0.0000
      7  C3A        5.7410   10.0360   35.5480 C.2   500  HEM500      0.0000
      8  C4A        5.7180    9.3200   34.3020 C.2   500  HEM500      0.0000
      9  CMA        4.5540   10.5800   36.3650 C.3   500  HEM500      0.0000
     10  CAA        7.5620   10.5030   37.2880 C.3   500  HEM500      0.0000
     11  CBA        7.3770   11.9850   37.5260 C.3   500  HEM500      0.0000
     12  CGA        7.9120   12.4130   38.8730 C.2   500  HEM500      0.0000
     13  O1A        7.4600   11.8620   39.9040 O.co2 500  HEM500      0.0000
     14  O2A        8.7890   13.2950   38.8970 O.co2 500  HEM500      0.0000
     15  C1B        4.5940    8.6730   32.2320 C.ar  500  HEM500      0.0000
     16  C2B        3.4260    8.6830   31.3890 C.ar  500  HEM500      0.0000
     17  C3B        3.8010    8.1340   30.2040 C.ar  500  HEM500      0.0000
     18  C4B        5.2190    7.7990   30.3120 C.ar  500  HEM500      0.0000
     19  CMB        2.0630    9.2160   31.7800 C.3   500  HEM500      0.0000
     20  CAB        2.9740    7.9610   29.1000 C.2   500  HEM500      0.0000
     21  CBB        2.8030    6.7610   28.4610 C.2   500  HEM500      0.0000
     22  C1C        7.4180    7.2040   29.3210 C.2   500  HEM500      0.0000
     23  C2C        8.2560    6.7530   28.2230 C.2   500  HEM500      0.0000
     24  C3C        9.4860    6.4970   28.7240 C.2   500  HEM500      0.0000
     25  C4C        9.4020    6.8650   30.1150 C.2   500  HEM500      0.0000
     26  CMC        7.8420    6.5840   26.7570 C.3   500  HEM500      0.0000
     27  CAC       10.6230    5.9880   28.0880 C.2   500  HEM500      0.0000
     28  CBC       10.7200    5.3220   26.8980 C.2   500  HEM500      0.0000
     29  C1D       10.5010    7.2810   32.3010 C.ar  500  HEM500      0.0000
     30  C2D       11.6970    7.3780   33.1120 C.ar  500  HEM500      0.0000
     31  C3D       11.3240    8.0500   34.2050 C.ar  500  HEM500      0.0000
     32  C4D        9.9150    8.3250   34.1140 C.ar  500  HEM500      0.0000
     33  CMD       13.1130    6.8840   32.8010 C.3   500  HEM500      0.0000
     34  CAD       12.2130    8.5140   35.3330 C.3   500  HEM500      0.0000
     35  CBD       12.8300    9.8730   35.0580 C.3   500  HEM500      0.0000
     36  CGD       13.5530   10.4250   36.2670 C.2   500  HEM500      0.0000
     37  O1D       14.1660    9.6230   37.0070 O.co2 500  HEM500      0.0000
     38  O2D       13.5170   11.6580   36.4720 O.co2 500  HEM500      0.0000
     39  NA         6.9820    8.8110   33.9480 N.2   500  HEM500      0.0000
     40  NB         5.6940    8.1020   31.5900 N.ar  500  HEM500      0.0000
     41  NC         8.1250    7.2920   30.4900 N.2   500  HEM500      0.0000
     42  ND         9.4000    7.8100   32.9320 N.ar  500  HEM500      0.0000
     43 FE          7.4990    7.7220   32.3470 Fe    500  HEM500      0.0000
@<TRIPOS>BOND
     1    26    23    1
     2    28    27    2
     3    27    24    1
     4    23    24    2
     5    23    22    1
     6    21    20    2
     7    24    25    1
     8    20    17    1
     9     3    22    2
    10     3    18    1
    11    22    41    1
    12    25    41    2
    13    25     4    1
    14    17    18   ar
    15    17    16   ar
    16    18    40   ar
    17    41    43    1
    18     4    29    2
    19    16    19    1
    20    16    15   ar
    21    40    15   ar
    22    40    43    1
    23    15     2    1
    24    29    42   ar
    25    29    30   ar
    26    43    42    1
    27    43    39    1
    28    33    30    1
    29    42    32   ar
    30    30    31   ar
    31     2     8    2
    32    39     8    1
    33    39     5    2
    34    32    31   ar
    35    32     1    2
    36    31    34    1
    37     8     7    1
    38     5     1    1
    39     5     6    1
    40    35    34    1
    41    35    36    1
    42     7     6    2
    43     7     9    1
    44     6    10    1
    45    36    38   ar
    46    36    37   ar
    47    10    11    1
    48    11    12    1
    49    12    14   ar
    50    12    13   ar
