@<TRIPOS>MOLECULE
1foj_7I2_B_1.pdb
 15 16 0 0 0
SMALL
GASTEIGER

@<TRIPOS>ATOM
      1  N1        10.7250   13.7300   44.4160 N.ar  1770  7I21770    -0.1007
      2  N2         9.9460   12.7160   43.8930 N.ar  1770  7I21770    -0.0924
      3  C3        10.0950   11.5620   44.8200 C.ar  1770  7I21770     0.1814
      4  C4        11.5070   11.4190   46.9440 C.ar  1770  7I21770     0.0047
      5  C5        12.3710   12.1010   47.7700 C.ar  1770  7I21770     0.0019
      6  C6        12.7330   13.3980   47.5070 C.ar  1770  7I21770     0.0257
      7  C7        12.2190   14.0340   46.3880 C.ar  1770  7I21770     0.1634
      8  C8        11.3290   13.3500   45.5210 C.ar  1770  7I21770     0.1413
      9  C9        10.9740   12.0350   45.8050 C.ar  1770  7I21770     0.0582
     10  N10       12.5610   15.2840   46.1270 N.pl3 1770  7I21770     0.0593
     11  O11       12.1110   15.8460   45.1510 O.2   1770  7I21770    -0.1261
     12  O12       13.3280   15.8730   46.8670 O.2   1770  7I21770    -0.1261
     13  C13        9.2000   12.7500   42.7000 C.2   1770  7I21770     0.5297
     14  N14        7.9920   12.2010   42.6570 N.pl3 1770  7I21770     0.1348
     15  N15        9.7060   13.3240   41.6190 N.pl3 1770  7I21770     0.1348
@<TRIPOS>BOND
     1    15    13    2
     2    14    13    1
     3    13     2    1
     4     2     1   ar
     5     2     3   ar
     6     1     8   ar
     7     3     9   ar
     8    11    10    2
     9     8     9   ar
    10     8     7   ar
    11     9     4   ar
    12    10     7    1
    13    10    12    2
    14     7     6   ar
    15     4     5   ar
    16     6     5   ar
