@<TRIPOS>MOLECULE
1foj_7NI_A_1.pdb
 12 13 0 0 0
SMALL
GASTEIGER

@<TRIPOS>ATOM
      1  N1         5.5730   11.2500   30.1330 N.ar  1750  7NI1750    -0.1462
      2  N2         6.2050   10.6490   29.0610 N.ar  1750  7NI1750    -0.1463
      3  C3         7.6630   10.6040   29.4520 C.ar  1750  7NI1750     0.1237
      4  C4         8.7560   11.4410   31.5950 C.ar  1750  7NI1750     0.0033
      5  C5         8.5290   12.0550   32.8000 C.ar  1750  7NI1750     0.0019
      6  C6         7.2710   12.4370   33.1840 C.ar  1750  7NI1750     0.0257
      7  C7         6.2030   12.2050   32.3430 C.ar  1750  7NI1750     0.1622
      8  C8         6.4120   11.5750   31.0900 C.ar  1750  7NI1750     0.1267
      9  C9         7.6890   11.1960   30.7190 C.ar  1750  7NI1750     0.0420
     10  N10        4.9840   12.5750   32.7020 N.pl3 1750  7NI1750     0.0592
     11  O11        4.8060   13.1230   33.7730 O.2   1750  7NI1750    -0.1261
     12  O12        4.0400   12.3690   31.9680 O.2   1750  7NI1750    -0.1261
@<TRIPOS>BOND
     1     2     3   ar
     2     2     1   ar
     3     3     9   ar
     4     1     8   ar
     5     9     8   ar
     6     9     4   ar
     7     8     7   ar
     8     4     5   ar
     9    12    10    2
    10     7    10    1
    11     7     6   ar
    12    10    11    2
    13     5     6   ar
