@<TRIPOS>MOLECULE
1fol_HEM_A_1.pdb
 43 50 0 0 0
SMALL
GASTEIGER

@<TRIPOS>ATOM
      1  CHA        9.0940    9.1400   34.9930 C.2   500  HEM500      0.0000
      2  CHB        4.4570    9.0320   33.4830 C.2   500  HEM500      0.0000
      3  CHC        5.9630    7.5310   29.1730 C.2   500  HEM500      0.0000
      4  CHD       10.4170    6.7150   31.0240 C.2   500  HEM500      0.0000
      5  C1A        7.7360    9.4150   34.8480 C.2   500  HEM500      0.0000
      6  C2A        6.9790   10.1830   35.8160 C.2   500  HEM500      0.0000
      7  C3A        5.6580   10.0840   35.4450 C.2   500  HEM500      0.0000
      8  C4A        5.6240    9.2760   34.2390 C.2   500  HEM500      0.0000
      9  CMA        4.4640   10.6160   36.2700 C.3   500  HEM500      0.0000
     10  CAA        7.5480   10.7760   37.1230 C.3   500  HEM500      0.0000
     11  CBA        7.3150   12.2600   37.0590 C.3   500  HEM500      0.0000
     12  CGA        8.2160   13.0220   38.0050 C.2   500  HEM500      0.0000
     13  O1A        8.0480   12.8860   39.2400 O.co2 500  HEM500      0.0000
     14  O2A        9.0940   13.7620   37.4940 O.co2 500  HEM500      0.0000
     15  C1B        4.4550    8.4070   32.2500 C.ar  500  HEM500      0.0000
     16  C2B        3.2730    8.3810   31.4260 C.ar  500  HEM500      0.0000
     17  C3B        3.6450    8.0020   30.1830 C.ar  500  HEM500      0.0000
     18  C4B        5.1130    7.7900   30.2540 C.ar  500  HEM500      0.0000
     19  CMB        1.8520    8.6730   31.9220 C.3   500  HEM500      0.0000
     20  CAB        2.7490    7.9150   29.1400 C.2   500  HEM500      0.0000
     21  CBB        2.8380    7.0900   28.0650 C.2   500  HEM500      0.0000
     22  C1C        7.3720    7.3990   29.2590 C.2   500  HEM500      0.0000
     23  C2C        8.1760    6.8800   28.1760 C.2   500  HEM500      0.0000
     24  C3C        9.3900    6.5060   28.7230 C.2   500  HEM500      0.0000
     25  C4C        9.3190    6.8230   30.1370 C.2   500  HEM500      0.0000
     26  CMC        7.7000    6.6210   26.7480 C.3   500  HEM500      0.0000
     27  CAC       10.5200    5.8840   28.1460 C.2   500  HEM500      0.0000
     28  CBC       10.7230    5.4630   26.8590 C.2   500  HEM500      0.0000
     29  C1D       10.4340    7.2650   32.3050 C.ar  500  HEM500      0.0000
     30  C2D       11.6200    7.4510   33.1400 C.ar  500  HEM500      0.0000
     31  C3D       11.2180    8.1320   34.2250 C.ar  500  HEM500      0.0000
     32  C4D        9.8210    8.3850   34.0870 C.ar  500  HEM500      0.0000
     33  CMD       13.0380    6.9670   32.8680 C.3   500  HEM500      0.0000
     34  CAD       12.0010    8.6290   35.4240 C.3   500  HEM500      0.0000
     35  CBD       12.8560    9.8130   34.9950 C.3   500  HEM500      0.0000
     36  CGD       13.5290   10.5090   36.1620 C.2   500  HEM500      0.0000
     37  O1D       14.1290    9.8180   37.0130 O.co2 500  HEM500      0.0000
     38  O2D       13.4590   11.7540   36.2170 O.co2 500  HEM500      0.0000
     39  NA         6.9120    8.8670   33.8770 N.2   500  HEM500      0.0000
     40  NB         5.5820    8.0300   31.5550 N.ar  500  HEM500      0.0000
     41  NC         8.0650    7.3710   30.4850 N.2   500  HEM500      0.0000
     42  ND         9.3120    7.8440   32.9070 N.ar  500  HEM500      0.0000
     43 FE          7.4290    7.7790   32.3110 Fe    500  HEM500      0.0000
@<TRIPOS>BOND
     1    26    23    1
     2    28    27    2
     3    21    20    2
     4    27    24    1
     5    23    24    2
     6    23    22    1
     7    24    25    1
     8    20    17    1
     9     3    22    2
    10     3    18    1
    11    22    41    1
    12    25    41    2
    13    25     4    1
    14    17    18   ar
    15    17    16   ar
    16    18    40   ar
    17    41    43    1
    18     4    29    2
    19    16    19    1
    20    16    15   ar
    21    40    15   ar
    22    40    43    1
    23    15     2    1
    24    29    42   ar
    25    29    30   ar
    26    43    42    1
    27    43    39    1
    28    33    30    1
    29    42    32   ar
    30    30    31   ar
    31     2     8    2
    32    39     8    1
    33    39     5    2
    34    32    31   ar
    35    32     1    2
    36    31    34    1
    37     8     7    1
    38     5     1    1
    39     5     6    1
    40    35    34    1
    41    35    36    1
    42     7     6    2
    43     7     9    1
    44     6    10    1
    45    36    38   ar
    46    36    37   ar
    47    11    10    1
    48    11    12    1
    49    14    12   ar
    50    12    13   ar
