@<TRIPOS>MOLECULE
1fol_ARG_A_1.pdb
 12 11 0 0 0
SMALL
GASTEIGER

@<TRIPOS>ATOM
      1  N          7.6900   15.4420   35.3210 N.3   1700  ARG1700    -0.1208
      2  CA         8.2560   15.9140   34.0170 C.3   1700  ARG1700     0.1944
      3  C          7.6190   17.2390   33.6080 C.2   1700  ARG1700     0.3819
      4  O          7.9950   17.7820   32.5350 O.co2 1700  ARG1700    -0.2441
      5  CB         8.0130   14.8710   32.9130 C.3   1700  ARG1700     0.0343
      6  CG         8.6310   13.5110   33.1870 C.3   1700  ARG1700     0.0490
      7  CD         8.1030   12.4940   32.1980 C.3   1700  ARG1700     0.2205
      8  NE         6.6440   12.5020   32.1780 N.pl3 1700  ARG1700    -0.0865
      9  CZ         5.8960   11.8140   31.3210 C.cat 1700  ARG1700     0.5346
     10  NH1        6.4570   11.0470   30.3980 N.pl3 1700  ARG1700     0.1354
     11  NH2        4.5750   11.9020   31.3830 N.pl3 1700  ARG1700     0.1354
     12  OXT        6.7440   17.7140   34.3700 O.co2 1700  ARG1700    -0.2441
@<TRIPOS>BOND
     1    10     9    1
     2     9    11    1
     3     9     8    2
     4     8     7    1
     5     7     6    1
     6     4     3   ar
     7     5     6    1
     8     5     2    1
     9     3     2    1
    10     3    12   ar
    11     2     1    1
