@<TRIPOS>MOLECULE
1foo_HEM_A_1.pdb
 43 50 0 0 0
SMALL
GASTEIGER

@<TRIPOS>ATOM
      1  CHA        9.3880    8.9590   35.0210 C.2   500  HEM500      0.0000
      2  CHB        4.7720    9.0900   33.5620 C.2   500  HEM500      0.0000
      3  CHC        6.1610    7.4880   29.1850 C.2   500  HEM500      0.0000
      4  CHD       10.5660    6.5640   30.9980 C.2   500  HEM500      0.0000
      5  C1A        8.0190    9.2140   34.9500 C.2   500  HEM500      0.0000
      6  C2A        7.2690    9.9140   35.9650 C.2   500  HEM500      0.0000
      7  C3A        5.9700    9.9320   35.5830 C.2   500  HEM500      0.0000
      8  C4A        5.9220    9.2480   34.3160 C.2   500  HEM500      0.0000
      9  CMA        4.8210   10.6130   36.3260 C.3   500  HEM500      0.0000
     10  CAA        7.8840   10.6360   37.1610 C.3   500  HEM500      0.0000
     11  CBA        7.8900   12.0730   36.6930 C.3   500  HEM500      0.0000
     12  CGA        8.6110   12.9940   37.6320 C.2   500  HEM500      0.0000
     13  O1A        8.2600   13.0150   38.8370 O.co2 500  HEM500      0.0000
     14  O2A        9.5260   13.7050   37.1570 O.co2 500  HEM500      0.0000
     15  C1B        4.7470    8.5490   32.2810 C.ar  500  HEM500      0.0000
     16  C2B        3.5440    8.4990   31.4760 C.ar  500  HEM500      0.0000
     17  C3B        3.8990    8.0820   30.2350 C.ar  500  HEM500      0.0000
     18  C4B        5.3500    7.8900   30.2850 C.ar  500  HEM500      0.0000
     19  CMB        2.1580    8.8180   31.9900 C.3   500  HEM500      0.0000
     20  CAB        3.0210    7.9610   29.1560 C.2   500  HEM500      0.0000
     21  CBB        3.0470    6.9890   28.1990 C.2   500  HEM500      0.0000
     22  C1C        7.5260    7.1730   29.2880 C.2   500  HEM500      0.0000
     23  C2C        8.3260    6.6620   28.1960 C.2   500  HEM500      0.0000
     24  C3C        9.5450    6.3240   28.7080 C.2   500  HEM500      0.0000
     25  C4C        9.4870    6.6620   30.1240 C.2   500  HEM500      0.0000
     26  CMC        7.8590    6.4960   26.7460 C.3   500  HEM500      0.0000
     27  CAC       10.6590    5.7790   28.0430 C.2   500  HEM500      0.0000
     28  CBC       10.7210    5.1120   26.8560 C.2   500  HEM500      0.0000
     29  C1D       10.6230    7.1300   32.2730 C.ar  500  HEM500      0.0000
     30  C2D       11.8420    7.2370   33.0730 C.ar  500  HEM500      0.0000
     31  C3D       11.5250    7.9770   34.1480 C.ar  500  HEM500      0.0000
     32  C4D       10.1120    8.2780   34.0390 C.ar  500  HEM500      0.0000
     33  CMD       13.2210    6.6520   32.7420 C.3   500  HEM500      0.0000
     34  CAD       12.4300    8.5190   35.2600 C.3   500  HEM500      0.0000
     35  CBD       13.1760    9.7990   34.9000 C.3   500  HEM500      0.0000
     36  CGD       13.7330   10.5190   36.1170 C.2   500  HEM500      0.0000
     37  O1D       14.2580    9.8420   37.0260 O.co2 500  HEM500      0.0000
     38  O2D       13.6560   11.7670   36.1540 O.co2 500  HEM500      0.0000
     39  NA         7.1870    8.7990   33.9210 N.2   500  HEM500      0.0000
     40  NB         5.8450    8.1400   31.5630 N.ar  500  HEM500      0.0000
     41  NC         8.2390    7.1990   30.4850 N.2   500  HEM500      0.0000
     42  ND         9.5630    7.7680   32.8750 N.ar  500  HEM500      0.0000
     43 FE          7.6710    7.8370   32.2710 Fe    500  HEM500      0.0000
@<TRIPOS>BOND
     1    26    23    1
     2    28    27    2
     3    27    24    1
     4    23    24    2
     5    23    22    1
     6    21    20    2
     7    24    25    1
     8    20    17    1
     9     3    22    2
    10     3    18    1
    11    22    41    1
    12    25    41    2
    13    25     4    1
    14    17    18   ar
    15    17    16   ar
    16    18    40   ar
    17    41    43    1
    18     4    29    2
    19    16    19    1
    20    16    15   ar
    21    40    43    1
    22    40    15   ar
    23    43    42    1
    24    43    39    1
    25    29    42   ar
    26    29    30   ar
    27    15     2    1
    28    33    30    1
    29    42    32   ar
    30    30    31   ar
    31     2     8    2
    32    39     8    1
    33    39     5    2
    34    32    31   ar
    35    32     1    2
    36    31    34    1
    37     8     7    1
    38    35    34    1
    39    35    36    1
    40     5     1    1
    41     5     6    1
    42     7     6    2
    43     7     9    1
    44     6    10    1
    45    36    38   ar
    46    36    37   ar
    47    11    10    1
    48    11    12    1
    49    14    12   ar
    50    12    13   ar
