@<TRIPOS>MOLECULE
1foo_ARG_A_1.pdb
 12 11 0 0 0
SMALL
GASTEIGER

@<TRIPOS>ATOM
      1  N          7.6750   15.5580   35.2950 N.3   1700  ARG1700    -0.1208
      2  CA         8.2520   16.1140   34.0390 C.3   1700  ARG1700     0.1944
      3  C          7.5610   17.4310   33.7000 C.2   1700  ARG1700     0.3819
      4  O          7.9830   18.1000   32.7330 O.co2 1700  ARG1700    -0.2441
      5  CB         8.0550   15.1260   32.8910 C.3   1700  ARG1700     0.0343
      6  CG         8.6290   13.7380   33.1470 C.3   1700  ARG1700     0.0490
      7  CD         8.0540   12.7560   32.1380 C.3   1700  ARG1700     0.2205
      8  NE         6.5970   12.6880   32.2310 N.pl3 1700  ARG1700    -0.0865
      9  CZ         5.8100   12.0370   31.3790 C.cat 1700  ARG1700     0.5346
     10  NH1        6.3300   11.3830   30.3460 N.pl3 1700  ARG1700     0.1354
     11  NH2        4.4970   12.0360   31.5640 N.pl3 1700  ARG1700     0.1354
     12  OXT        6.5970   17.7740   34.4160 O.co2 1700  ARG1700    -0.2441
@<TRIPOS>BOND
     1    10     9    1
     2     9    11    1
     3     9     8    2
     4     7     8    1
     5     7     6    1
     6     4     3   ar
     7     5     6    1
     8     5     2    1
     9     3     2    1
    10     3    12   ar
    11     2     1    1
