@<TRIPOS>MOLECULE
1fop_H4B_A_1.pdb
 17 18 0 0 0
SMALL
GASTEIGER

@<TRIPOS>ATOM
      1  N1         8.1090   11.6090   42.7060 N.2   1600  H4B1600    -0.2683
      2  C2         8.0430   11.9360   41.3920 C.1   1600  H4B1600     0.2608
      3  N2         7.2400   11.3240   40.5360 N.pl3 1600  H4B1600    -0.0220
      4  N3         8.8430   12.9430   40.9520 N.2   1600  H4B1600    -0.2474
      5  C4         9.7460   13.6740   41.7600 C.1   1600  H4B1600     0.2441
      6  O4        10.4160   14.5650   41.2390 O.2   1600  H4B1600    -0.2063
      7  C4A        9.7590   13.2750   43.1120 C.2   1600  H4B1600     0.2463
      8  C8A        8.9580   12.2490   43.5920 C.1   1600  H4B1600     0.1270
      9  N5        10.6780   13.9770   44.0030 N.2   1600  H4B1600    -0.2460
     10  N8         8.9620   11.8590   44.8810 N.2   1600  H4B1600    -0.2054
     11  C6        11.0780   13.1630   45.2450 C.3   1600  H4B1600     0.1627
     12  C7         9.8440   12.5100   45.8710 C.3   1600  H4B1600     0.1643
     13  C9        11.8500   14.1470   46.1310 C.3   1600  H4B1600     0.2063
     14  O9        11.1480   15.3430   46.3980 O.3   1600  H4B1600    -0.2183
     15  C10       12.3220   13.5230   47.4780 C.3   1600  H4B1600     0.1842
     16  C11       13.2640   14.4320   48.1970 C.3   1600  H4B1600     0.0383
     17  O10       12.9890   12.2990   47.1410 O.3   1600  H4B1600    -0.2204
@<TRIPOS>BOND
     1     3     2    1
     2     4     2    2
     3     4     5    2
     4     6     5    2
     5     2     1    2
     6     5     7    1
     7     1     8    2
     8     7     8    1
     9     7     9    2
    10     8    10    2
    11     9    11    1
    12    10    12    1
    13    11    12    1
    14    11    13    1
    15    13    14    1
    16    13    15    1
    17    17    15    1
    18    15    16    1
