@<TRIPOS>MOLECULE
1fop_ARG_A_1.pdb
 12 11 0 0 0
SMALL
GASTEIGER

@<TRIPOS>ATOM
      1  N          7.7130   15.6490   35.1790 N.3   1700  ARG1700    -0.1208
      2  CA         8.0000   16.1760   33.8120 C.3   1700  ARG1700     0.1944
      3  C          7.2250   17.4650   33.5610 C.2   1700  ARG1700     0.3819
      4  O          7.4240   18.0730   32.4820 O.co2 1700  ARG1700    -0.2441
      5  CB         7.6210   15.1430   32.7430 C.3   1700  ARG1700     0.0343
      6  CG         8.4170   13.8630   32.8260 C.3   1700  ARG1700     0.0490
      7  CD         7.9320   12.8710   31.7930 C.3   1700  ARG1700     0.2205
      8  NE         6.5020   12.6420   31.9450 N.pl3 1700  ARG1700    -0.0865
      9  CZ         5.7600   11.8890   31.1350 C.cat 1700  ARG1700     0.5346
     10  NH1        6.2960   11.2670   30.0850 N.pl3 1700  ARG1700     0.1354
     11  NH2        4.4610   11.7620   31.3780 N.pl3 1700  ARG1700     0.1354
     12  OXT        6.4280   17.8490   34.4470 O.co2 1700  ARG1700    -0.2441
@<TRIPOS>BOND
     1    10     9    1
     2     9    11    1
     3     9     8    2
     4     7     8    1
     5     7     6    1
     6     4     3   ar
     7     5     6    1
     8     5     2    1
     9     3     2    1
    10     3    12   ar
    11     2     1    1
