@<TRIPOS>MOLECULE
1fop_HEM_A_1.pdb
 43 50 0 0 0
SMALL
GASTEIGER

@<TRIPOS>ATOM
      1  CHA        9.1930    8.9180   34.7750 C.2   500  HEM500      0.0000
      2  CHB        4.5230    8.7970   33.3490 C.2   500  HEM500      0.0000
      3  CHC        5.9200    7.1870   29.0460 C.2   500  HEM500      0.0000
      4  CHD       10.3750    6.3560   30.8720 C.2   500  HEM500      0.0000
      5  C1A        7.8080    9.1030   34.6930 C.2   500  HEM500      0.0000
      6  C2A        7.0010    9.8540   35.6240 C.2   500  HEM500      0.0000
      7  C3A        5.6920    9.7660   35.3290 C.2   500  HEM500      0.0000
      8  C4A        5.6710    8.9940   34.1030 C.2   500  HEM500      0.0000
      9  CMA        4.5340   10.3480   36.1490 C.3   500  HEM500      0.0000
     10  CAA        7.5560   10.7160   36.7040 C.3   500  HEM500      0.0000
     11  CBA        7.5520   12.1650   36.2630 C.3   500  HEM500      0.0000
     12  CGA        8.2770   13.0330   37.2570 C.2   500  HEM500      0.0000
     13  O1A        7.9990   12.8790   38.4610 O.co2 500  HEM500      0.0000
     14  O2A        9.1180   13.8590   36.8400 O.co2 500  HEM500      0.0000
     15  C1B        4.4920    8.2120   32.1090 C.ar  500  HEM500      0.0000
     16  C2B        3.2840    8.0860   31.3300 C.ar  500  HEM500      0.0000
     17  C3B        3.6230    7.6180   30.0930 C.ar  500  HEM500      0.0000
     18  C4B        5.0970    7.4720   30.1210 C.ar  500  HEM500      0.0000
     19  CMB        1.9170    8.5030   31.7960 C.3   500  HEM500      0.0000
     20  CAB        2.6690    7.5150   29.0630 C.2   500  HEM500      0.0000
     21  CBB        2.7520    6.9800   27.8070 C.2   500  HEM500      0.0000
     22  C1C        7.3180    7.0170   29.1320 C.2   500  HEM500      0.0000
     23  C2C        8.1380    6.5550   28.0290 C.2   500  HEM500      0.0000
     24  C3C        9.3530    6.1710   28.5730 C.2   500  HEM500      0.0000
     25  C4C        9.2660    6.4660   29.9880 C.2   500  HEM500      0.0000
     26  CMC        7.7140    6.5020   26.5680 C.3   500  HEM500      0.0000
     27  CAC       10.4950    5.6080   27.9650 C.2   500  HEM500      0.0000
     28  CBC       10.6180    5.0580   26.7220 C.2   500  HEM500      0.0000
     29  C1D       10.4380    6.9080   32.1410 C.ar  500  HEM500      0.0000
     30  C2D       11.6520    7.0770   32.9020 C.ar  500  HEM500      0.0000
     31  C3D       11.3190    7.8560   33.9450 C.ar  500  HEM500      0.0000
     32  C4D        9.9320    8.1800   33.8300 C.ar  500  HEM500      0.0000
     33  CMD       13.0970    6.7210   32.5420 C.3   500  HEM500      0.0000
     34  CAD       12.2470    8.4340   34.9980 C.3   500  HEM500      0.0000
     35  CBD       12.9190    9.7320   34.5620 C.3   500  HEM500      0.0000
     36  CGD       13.3560   10.5650   35.7500 C.2   500  HEM500      0.0000
     37  O1D       13.9580    9.9880   36.6830 O.co2 500  HEM500      0.0000
     38  O2D       13.1000   11.7920   35.7490 O.co2 500  HEM500      0.0000
     39  NA         6.9810    8.6120   33.7000 N.2   500  HEM500      0.0000
     40  NB         5.6050    7.8120   31.3820 N.ar  500  HEM500      0.0000
     41  NC         8.0370    7.0270   30.3230 N.2   500  HEM500      0.0000
     42  ND         9.3850    7.5840   32.7010 N.ar  500  HEM500      0.0000
     43 FE          7.4990    7.6800   32.0810 Fe    500  HEM500      0.0000
@<TRIPOS>BOND
     1    26    23    1
     2    28    27    2
     3    21    20    2
     4    27    24    1
     5    23    24    2
     6    23    22    1
     7    24    25    1
     8     3    22    2
     9     3    18    1
    10    20    17    1
    11    22    41    1
    12    25    41    2
    13    25     4    1
    14    17    18   ar
    15    17    16   ar
    16    18    40   ar
    17    41    43    1
    18     4    29    2
    19    16    19    1
    20    16    15   ar
    21    40    43    1
    22    40    15   ar
    23    43    42    1
    24    43    39    1
    25    15     2    1
    26    29    42   ar
    27    29    30   ar
    28    33    30    1
    29    42    32   ar
    30    30    31   ar
    31     2     8    2
    32    39     8    1
    33    39     5    2
    34    32    31   ar
    35    32     1    2
    36    31    34    1
    37     8     7    1
    38    35    34    1
    39    35    36    1
    40     5     1    1
    41     5     6    1
    42     7     6    2
    43     7     9    1
    44     6    10    1
    45    38    36   ar
    46    36    37   ar
    47    11    10    1
    48    11    12    1
    49    14    12   ar
    50    12    13   ar
