@<TRIPOS>MOLECULE
1fp2_HMO_A_1.pdb
 20 22 0 0 0
SMALL
GASTEIGER

@<TRIPOS>ATOM
      1  C1       -19.2850    6.9240   14.4890 C.2   2000  HMO2000     0.1383
      2  C2       -18.6640    5.8230   15.1630 C.2   2000  HMO2000     0.0366
      3  C3       -17.9090    5.9730   16.3840 C.2   2000  HMO2000     0.0058
      4  C4       -17.7890    7.3010   16.9290 C.2   2000  HMO2000     0.0604
      5  C5       -18.4150    8.4730   16.3050 C.3   2000  HMO2000     0.2165
      6  C6       -19.1550    8.2730   15.1000 C.2   2000  HMO2000     0.0582
      7  C7       -16.9830    7.4860   18.1540 C.2   2000  HMO2000     0.1950
      8  C8       -16.8760    8.9160   18.6500 C.2   2000  HMO2000     0.0613
      9  C9       -17.5390    9.9420   17.9640 C.2   2000  HMO2000     0.1725
     10  O10      -18.3230    9.7420   16.7890 O.2   2000  HMO2000    -0.4672
     11  C11      -16.0450    9.1800   19.8290 C.3   2000  HMO2000     0.0725
     12  C12      -16.2850    8.5190   21.0990 C.2   2000  HMO2000    -0.0142
     13  C13      -15.4720    8.7780   22.2130 C.2   2000  HMO2000     0.0381
     14  C14      -14.3210    9.7730   22.0630 C.2   2000  HMO2000     0.1951
     15  C15      -14.0850   10.4200   20.8300 C.2   2000  HMO2000     0.0381
     16  C16      -14.8950   10.1630   19.7200 C.2   2000  HMO2000    -0.0142
     17  O17      -13.5680   10.0480   23.0270 O.2   2000  HMO2000    -0.2866
     18  O18      -16.4190    6.4660   18.7010 O.2   2000  HMO2000    -0.2870
     19  O19      -19.9660    6.7190   13.2730 O.2   2000  HMO2000    -0.4716
     20  C20      -20.5220    7.7420   12.5750 C.3   2000  HMO2000     0.2525
@<TRIPOS>BOND
     1    20    19    1
     2    19     1    1
     3     1     6    2
     4     1     2    1
     5     6     5    1
     6     2     3    2
     7     5    10    1
     8     5     4    1
     9     3     4    1
    10    10     9    1
    11     4     7    2
    12     9     8    2
    13     7     8    1
    14     7    18    1
    15     8    11    1
    16    16    11    1
    17    16    15    2
    18    11    12    1
    19    15    14    1
    20    12    13    2
    21    14    13    1
    22    14    17    2
