@<TRIPOS>MOLECULE
1fp2_SAH_A_1.pdb
 26 28 0 0 0
SMALL
GASTEIGER

@<TRIPOS>ATOM
      1  N        -21.5100    7.5750    5.8670 N.3   1699  SAH1699    -0.1208
      2  CA       -20.2400    8.2940    6.3610 C.3   1699  SAH1699     0.1952
      3  CB       -20.5330    8.9120    7.6460 C.3   1699  SAH1699     0.0422
      4  CG       -19.6410    9.7130    8.5010 C.3   1699  SAH1699     0.0597
      5  SD       -20.4170   10.1560   10.0700 S.3   1699  SAH1699    -0.1375
      6  C        -19.1820    7.3130    6.5150 C.2   1699  SAH1699     0.3819
      7  O        -18.0100    7.7880    6.6160 O.co2 1699  SAH1699    -0.2441
      8  OXT      -19.5180    6.0930    6.6080 O.co2 1699  SAH1699    -0.2441
      9  C5'      -22.0830   10.8550    9.2710 C.3   1699  SAH1699     0.0899
     10  C4'      -22.2260   11.7440    9.2160 C.3   1699  SAH1699     0.1630
     11  O4'      -23.6860   12.1590    9.2040 O.3   1699  SAH1699    -0.3153
     12  C3'      -21.4100   13.0450    9.0360 C.3   1699  SAH1699     0.2168
     13  O3'      -20.8630   13.1010    7.6850 O.3   1699  SAH1699    -0.2175
     14  C2'      -22.4560   14.0910    9.2780 C.3   1699  SAH1699     0.2569
     15  O2'      -22.1450   15.3350    8.6830 O.3   1699  SAH1699    -0.2130
     16  C1'      -23.8220   13.6050    9.1290 C.3   1699  SAH1699     0.3185
     17  N9       -24.9620   14.2850    9.2880 N.pl3 1699  SAH1699    -0.1439
     18  C8       -25.2450   14.6730   10.6030 C.3   1699  SAH1699     0.3377
     19  N7       -26.3370   15.3010   10.7010 N.2   1699  SAH1699    -0.2095
     20  C5       -26.8350   15.3560    9.4280 C.2   1699  SAH1699     0.2526
     21  C6       -28.0950   15.9750    8.9150 C.2   1699  SAH1699     0.4393
     22  N6       -28.9580   16.6060    9.6810 N.pl3 1699  SAH1699     0.2180
     23  N1       -28.2710   15.8340    7.5840 N.2   1699  SAH1699     0.0021
     24  C2       -27.3780   15.1900    6.7620 C.3   1699  SAH1699     0.5254
     25  N3       -26.2160   14.6210    7.1760 N.2   1699  SAH1699    -0.0055
     26  C4       -26.0030   14.7340    8.5080 C.2   1699  SAH1699     0.3518
@<TRIPOS>BOND
     1     1     2    1
     2     2     6    1
     3     2     3    1
     4     6     8   ar
     5     6     7   ar
     6    24    25    1
     7    24    23    1
     8    25    26    2
     9    23    21    2
    10     3     4    1
    11    13    12    1
    12     4     5    1
    13    26    17    1
    14    26    20    1
    15    15    14    1
    16    21    20    1
    17    21    22    1
    18    12    10    1
    19    12    14    1
    20    16    11    1
    21    16    14    1
    22    16    17    1
    23    11    10    1
    24    10     9    1
    25     9     5    1
    26    17    18    1
    27    20    19    2
    28    18    19    1
