@<TRIPOS>MOLECULE
1fp4_HCA_A_1.pdb
 14 13 0 0 0
SMALL
GASTEIGER

@<TRIPOS>ATOM
      1  C1        -5.1960  -18.0840   -2.5120 C.2   494  HCA494      0.3679
      2  C2        -4.0410  -18.6270   -3.3590 C.3   494  HCA494      0.1555
      3  C3        -3.4920  -19.9990   -2.9110 C.3   494  HCA494      0.2301
      4  C4        -2.9520  -19.9430   -1.4740 C.3   494  HCA494      0.0540
      5  C5        -1.5590  -20.4600   -1.1640 C.3   494  HCA494      0.1172
      6  C6        -1.5170  -21.6020   -0.1760 C.2   494  HCA494      0.3650
      7  C7        -2.4530  -20.5140   -3.9390 C.2   494  HCA494      0.3922
      8  O1        -6.1950  -18.8310   -2.1170 O.co2 494  HCA494     -0.2455
      9  O2        -5.1990  -16.8390   -2.1210 O.co2 494  HCA494     -0.2455
     10  O3        -0.5030  -22.4120   -0.2290 O.co2 494  HCA494     -0.2457
     11  O4        -2.2150  -21.5840    0.9270 O.co2 494  HCA494     -0.2457
     12  O5        -2.7790  -21.6800   -4.6900 O.co2 494  HCA494     -0.2429
     13  O6        -1.4470  -19.8970   -4.1960 O.co2 494  HCA494     -0.2429
     14  O7        -4.6380  -20.8480   -2.8630 O.3   494  HCA494     -0.2135
@<TRIPOS>BOND
     1    12     7   ar
     2    13     7   ar
     3     7     3    1
     4     2     3    1
     5     2     1    1
     6     3    14    1
     7     3     4    1
     8     1     9   ar
     9     1     8   ar
    10     4     5    1
    11     5     6    1
    12    10     6   ar
    13     6    11   ar
