@<TRIPOS>MOLECULE
1fp4_CFM_A_1.pdb
 17 34 0 0 0
SMALL
GASTEIGER

@<TRIPOS>ATOM
      1 FE1        -9.5240  -24.3720   -9.0280 Fe    496  CFM496      0.0000
      2 FE2        -8.8150  -22.4940   -7.1940 Fe    496  CFM496      0.0000
      3 FE3        -6.8940  -23.7800   -8.6690 Fe    496  CFM496      0.0000
      4 FE4        -8.2760  -25.2030   -6.6930 Fe    496  CFM496      0.0000
      5 FE5        -6.5680  -24.5040   -5.0150 Fe    496  CFM496      0.0000
      6 FE6        -7.1110  -21.9020   -5.4870 Fe    496  CFM496      0.0000
      7 FE7        -5.2740  -23.0970   -6.8690 Fe    496  CFM496      0.0000
      8 MO1        -4.7040  -22.6070   -4.1480 Mo    496  CFM496      0.0000
      9  S1A      -10.3300  -24.1940   -6.8690 S.3   496  CFM496      0.0000
     10  S4A       -7.8080  -25.8900   -8.8420 S.3   496  CFM496      0.0000
     11  S3A       -7.7590  -26.4530   -4.8350 S.3   496  CFM496      0.0000
     12  S2A       -8.5100  -22.3670   -9.4800 S.3   496  CFM496      0.0000
     13  S1B       -6.9230  -22.8850   -3.4230 S.3   496  CFM496      0.0000
     14  S2B       -8.9150  -20.5670   -5.9780 S.3   496  CFM496      0.0000
     15  S3B       -5.0350  -21.0410   -5.8770 S.3   496  CFM496      0.0000
     16  S4B       -4.3180  -24.5510   -5.3880 S.3   496  CFM496      0.0000
     17  S5        -4.6730  -23.4660   -9.0360 S.3   496  CFM496      0.0000
@<TRIPOS>BOND
     1    12     1    1
     2    12     3    1
     3    12     2    1
     4    17     3    1
     5    17     7    1
     6     1    10    1
     7     1     3    1
     8     1     2    1
     9     1     9    1
    10     1     4    1
    11    10     3    1
    12    10     4    1
    13     3     2    1
    14     3     7    1
    15     2     9    1
    16     2    14    1
    17     2     6    1
    18     7    15    1
    19     7     6    1
    20     7    16    1
    21     7     5    1
    22     9     4    1
    23     4     5    1
    24     4    11    1
    25    14     6    1
    26    15     6    1
    27    15     8    1
    28     6     5    1
    29     6    13    1
    30    16     5    1
    31    16     8    1
    32     5    11    1
    33     5    13    1
    34     8    13    1
