@<TRIPOS>MOLECULE
1fp4_CLP_A_1.pdb
 15 32 0 0 0
SMALL
GASTEIGER

@<TRIPOS>ATOM
      1 FE1        -8.1180   -7.8950    2.6980 Fe    498  CLP498      0.0000
      2 FE2       -10.0380   -6.9680    1.2800 Fe    498  CLP498      0.0000
      3 FE3        -8.7570   -9.2440    0.4550 Fe    498  CLP498      0.0000
      4 FE4        -7.4210   -6.9300    0.1730 Fe    498  CLP498      0.0000
      5  S1A       -8.2130   -5.7180    1.9660 S.3   498  CLP498      0.0000
      6  S2A      -10.0670   -9.0230    2.2940 S.3   498  CLP498      0.0000
      7  S4A       -6.6180   -8.8430    1.2070 S.3   498  CLP498      0.0000
      8  S3A       -9.3990   -7.4700   -0.8860 S.3   498  CLP498      0.0000
      9 FE5        -4.5010   -5.0290    1.3100 Fe    498  CLP498      0.0000
     10 FE6        -5.9170   -3.0000    3.3270 Fe    498  CLP498      0.0000
     11 FE7        -3.7740   -4.5370    3.7710 Fe    498  CLP498      0.0000
     12 FE8        -6.3170   -5.7050    3.7940 Fe    498  CLP498      0.0000
     13  S2B       -3.9720   -2.9500    2.0970 S.3   498  CLP498      0.0000
     14  S3B       -5.4730   -4.1500    5.2530 S.3   498  CLP498      0.0000
     15  S4B       -4.3610   -6.6300    2.9740 S.3   498  CLP498      0.0000
@<TRIPOS>BOND
     1     8     4    1
     2     8     3    1
     3     8     2    1
     4     4     3    1
     5     4     7    1
     6     4     2    1
     7     4     5    1
     8     4     1    1
     9     3     7    1
    10     3     2    1
    11     3     6    1
    12     3     1    1
    13     7     1    1
    14     2     5    1
    15     2     6    1
    16     2     1    1
    17     9    13    1
    18     9    15    1
    19     9    11    1
    20     5     1    1
    21     5    12    1
    22    13    10    1
    23    13    11    1
    24     6     1    1
    25    15    11    1
    26    15    12    1
    27    10    11    1
    28    10    12    1
    29    10    14    1
    30    11    12    1
    31    11    14    1
    32    12    14    1
