@<TRIPOS>MOLECULE
1fp6_ADP_A_1.pdb
 27 29 0 0 0
SMALL
GASTEIGER

@<TRIPOS>ATOM
      1  PB        28.1940    3.6980   28.3550 P.3   5291  ADP5291     0.5373
      2  O1B       28.4330    4.7210   29.3800 O.3   5291  ADP5291    -0.1143
      3  O2B       27.2000    4.0780   27.3480 O.2   5291  ADP5291    -0.2221
      4  O3B       27.3100    2.5090   29.1990 O.3   5291  ADP5291    -0.1143
      5  PA        29.7710    1.5940   27.7210 P.3   5291  ADP5291     0.2231
      6  O1A       28.9280    0.8130   26.7830 O.2   5291  ADP5291    -0.5169
      7  O2A       30.0750    0.9230   28.9970 O.3   5291  ADP5291    -0.4370
      8  O3A       29.4280    3.0390   27.8400 O.3   5291  ADP5291    -0.2261
      9  O5'       31.2040    1.5710   26.9820 O.3   5291  ADP5291    -0.3111
     10  C5'       31.3640    2.2730   25.7440 C.3   5291  ADP5291     0.1813
     11  C4'       32.5000    1.8290   24.7820 C.3   5291  ADP5291     0.1821
     12  O4'       33.7530    1.9290   25.5040 O.3   5291  ADP5291    -0.3135
     13  C3'       32.4190    0.3440   24.3130 C.3   5291  ADP5291     0.2184
     14  O3'       33.3380    0.0770   23.2450 O.3   5291  ADP5291    -0.2174
     15  C2'       32.9910   -0.2440   25.5950 C.3   5291  ADP5291     0.2570
     16  O2'       33.2760   -1.6210   25.3660 O.3   5291  ADP5291    -0.2130
     17  C1'       34.2720    0.5920   25.6390 C.3   5291  ADP5291     0.3186
     18  N9        34.9870    0.4770   26.9410 N.pl3 5291  ADP5291    -0.1439
     19  C8        34.5910    0.9380   28.1690 C.3   5291  ADP5291     0.3377
     20  N7        35.5280    0.9230   29.0790 N.2   5291  ADP5291    -0.2095
     21  C5        36.6410    0.4170   28.4170 C.2   5291  ADP5291     0.2526
     22  C6        37.9690    0.1640   28.8240 C.2   5291  ADP5291     0.4393
     23  N6        38.4580    0.4310   30.0310 N.pl3 5291  ADP5291     0.2180
     24  N1        38.7900   -0.3730   27.9170 N.2   5291  ADP5291     0.0021
     25  C2        38.3410   -0.6120   26.6960 C.3   5291  ADP5291     0.5254
     26  N3        37.1410   -0.3980   26.1830 N.2   5291  ADP5291    -0.0055
     27  C4        36.3180    0.1280   27.1160 C.2   5291  ADP5291     0.3518
@<TRIPOS>BOND
     1    14    13    1
     2    13    11    1
     3    13    15    1
     4    11    12    1
     5    11    10    1
     6    16    15    1
     7    12    17    1
     8    15    17    1
     9    17    18    1
    10    10     9    1
    11    26    25    1
    12    26    27    2
    13    25    24    1
    14     6     5    2
    15    18    27    1
    16    18    19    1
    17     9     5    1
    18    27    21    1
    19     3     1    2
    20     5     8    1
    21     5     7    1
    22     8     1    1
    23    24    22    2
    24    19    20    1
    25     1     4    1
    26     1     2    1
    27    21    22    1
    28    21    20    2
    29    22    23    1
