@<TRIPOS>MOLECULE
1fpb_FDP_A_1.pdb
 22 22 0 0 0
SMALL
GASTEIGER

@<TRIPOS>ATOM
      1  P1        37.8380   87.7910   26.4760 P.3   336  FDP336      0.5345
      2  O1P       39.2580   87.3900   26.1480 O.2   336  FDP336     -0.2223
      3  O2P       36.9370   86.5690   26.3670 O.3   336  FDP336     -0.1145
      4  O3P       37.7850   88.3380   27.8920 O.3   336  FDP336     -0.1145
      5  O1        39.7820   90.2670   25.2660 O.3   336  FDP336     -0.2149
      6  C1        38.6850   90.8740   25.9670 C.3   336  FDP336      0.2409
      7  C2        37.3060   90.2860   25.6550 C.3   336  FDP336      0.2551
      8  O2        37.3600   88.8680   25.4000 O.3   336  FDP336     -0.2441
      9  C3        36.6190   91.0040   24.4730 C.3   336  FDP336      0.1945
     10  O3        37.0130   90.4640   23.2380 O.3   336  FDP336     -0.3776
     11  C4        35.1340   90.8810   24.7500 C.3   336  FDP336      0.1718
     12  O4        34.3590   91.9510   24.2430 O.3   336  FDP336     -0.3794
     13  C5        35.0630   90.7110   26.2820 C.3   336  FDP336      0.1770
     14  O5        36.4060   90.5050   26.7490 O.3   336  FDP336     -0.3273
     15  C6        34.2210   89.5550   26.7110 C.3   336  FDP336      0.1858
     16  O6        34.3270   89.5850   28.1500 O.3   336  FDP336     -0.2675
     17  P2        33.0930   89.2080   29.0900 P.3   336  FDP336      0.5327
     18  O4P       33.2320   89.9920   30.3860 O.3   336  FDP336     -0.1145
     19  O5P       31.7880   89.5970   28.4250 O.2   336  FDP336     -0.2224
     20  O6P       33.1410   87.7120   29.3620 O.3   336  FDP336     -0.1145
     21  HO3       36.7970   89.5290   23.2130 H     336  FDP336      0.2106
     22  HO4       34.3490   91.9120   23.2880 H     336  FDP336      0.2105
@<TRIPOS>BOND
     1    21    10    1
     2    10     9    1
     3    22    12    1
     4    12    11    1
     5     9    11    1
     6     9     7    1
     7    11    13    1
     8     5     6    1
     9     8     7    1
    10     8     1    1
    11     7     6    1
    12     7    14    1
    13     2     1    2
    14    13    15    1
    15    13    14    1
    16     3     1    1
    17     1     4    1
    18    15    16    1
    19    16    17    1
    20    19    17    2
    21    17    20    1
    22    17    18    1
