@<TRIPOS>MOLECULE
1fpc_0ZI_H_1.pdb
 35 37 0 0 0
SMALL
GASTEIGER

@<TRIPOS>ATOM
      1  C1        17.5650  -17.0930   22.3550 C.ar  371  0ZI371      0.1236
      2  C2        18.3640  -17.0780   21.1800 C.ar  371  0ZI371      0.0200
      3  C3        19.6660  -16.6580   21.2390 C.ar  371  0ZI371      0.0014
      4  C4        20.2110  -16.2220   22.4590 C.ar  371  0ZI371      0.0013
      5  C4A       19.4500  -16.2300   23.6240 C.ar  371  0ZI371      0.0146
      6  C5        19.9740  -15.8220   24.8170 C.ar  371  0ZI371      0.0479
      7  C6        19.2000  -15.7920   25.9650 C.ar  371  0ZI371      0.0145
      8  C7        17.8740  -16.2710   25.8910 C.ar  371  0ZI371      0.0013
      9  C8        17.3140  -16.6790   24.6970 C.ar  371  0ZI371      0.0014
     10  C8A       18.0840  -16.6810   23.5630 C.ar  371  0ZI371      0.0199
     11  N         21.2910  -15.3480   24.8670 N.pl3 371  0ZI371     -0.3041
     12  CM1       21.6710  -13.9230   24.9480 C.3   371  0ZI371      0.1122
     13  CM2       22.2730  -16.2210   25.8110 C.3   371  0ZI371      0.1122
     14  S         15.7800  -17.6380   22.1970 S.O2  371  0ZI371      0.0772
     15  O1S       15.6560  -18.0790   20.7840 O.2   371  0ZI371     -0.1516
     16  O2S       15.0610  -18.5890   23.1260 O.2   371  0ZI371     -0.1516
     17  N1        14.6980  -16.2450   22.3190 N.3   371  0ZI371     -0.0700
     18  CA        14.7870  -15.1650   21.3470 C.3   371  0ZI371      0.1738
     19  C         15.8750  -14.1850   21.7940 C.2   371  0ZI371      0.2434
     20  O         16.1180  -13.9270   22.9870 O.2   371  0ZI371     -0.2733
     21  CB        13.4540  -14.4560   21.2730 C.3   371  0ZI371      0.0324
     22  CG        11.9190  -14.5210   21.3030 C.3   371  0ZI371      0.0489
     23  CD        11.4410  -13.1890   21.2000 C.3   371  0ZI371      0.2205
     24  NE        10.9800  -12.7740   22.5580 N.pl3 371  0ZI371     -0.0865
     25  CZ        11.1730  -11.7290   23.3130 C.cat 371  0ZI371      0.5346
     26  NH1       11.8990  -10.7000   22.7900 N.pl3 371  0ZI371      0.1354
     27  NH2       10.6820  -11.7010   24.4910 N.pl3 371  0ZI371      0.1354
     28  N11       16.8870  -13.8810   20.8120 N.am  371  0ZI371     -0.2784
     29  C21       17.8720  -12.8090   21.3660 C.3   371  0ZI371      0.0934
     30  C31       19.1770  -12.8640   20.5860 C.3   371  0ZI371      0.0216
     31  C41       18.8650  -12.9240   19.0080 C.3   371  0ZI371      0.0034
     32  C51       17.7980  -14.0640   18.5390 C.3   371  0ZI371      0.0216
     33  C61       16.4600  -13.9480   19.3070 C.3   371  0ZI371      0.0934
     34  C1'       20.1770  -13.1700   18.4840 C.3   371  0ZI371      0.0001
     35  C2'       20.3190  -13.0360   16.9390 C.3   371  0ZI371      0.0000
@<TRIPOS>BOND
     1    35    34    1
     2    34    31    1
     3    32    31    1
     4    32    33    1
     5    31    30    1
     6    33    28    1
     7    30    29    1
     8    15    14    2
     9    28    29    1
    10    28    19   am
    11     2     3   ar
    12     2     1   ar
    13    23    22    1
    14    23    24    1
    15     3     4   ar
    16    21    22    1
    17    21    18    1
    18    18    19    1
    19    18    17    1
    20    19    20    2
    21    14    17    1
    22    14     1    1
    23    14    16    2
    24     1    10   ar
    25     4     5   ar
    26    24    25    2
    27    26    25    1
    28    25    27    1
    29    10     5   ar
    30    10     9   ar
    31     5     6   ar
    32     9     8   ar
    33     6    11    1
    34     6     7   ar
    35    11    12    1
    36    11    13    1
    37     8     7   ar
