@<TRIPOS>MOLECULE
1fpd_AMP_A_1.pdb
 23 25 0 0 0
SMALL
GASTEIGER

@<TRIPOS>ATOM
      1  P         35.8650   90.5820  -13.3850 P.3   339  AMP339      0.5327
      2  O1P       35.9180   89.6880  -14.5850 O.2   339  AMP339     -0.2224
      3  O2P       37.1640   91.1710  -13.2000 O.3   339  AMP339     -0.1145
      4  O3P       35.5040   89.6550  -12.2290 O.3   339  AMP339     -0.1145
      5  O5'       34.6930   91.5940  -13.5050 O.3   339  AMP339     -0.2675
      6  C5'       34.9980   92.7270  -14.3430 C.3   339  AMP339      0.1860
      7  C4'       34.0820   93.8900  -14.0570 C.3   339  AMP339      0.1823
      8  O4'       32.7460   93.4740  -13.9210 O.3   339  AMP339     -0.3135
      9  C3'       34.4480   94.5410  -12.7310 C.3   339  AMP339      0.2184
     10  O3'       35.5110   95.2110  -12.7120 O.3   339  AMP339     -0.2174
     11  C2'       33.1500   95.2040  -12.2950 C.3   339  AMP339      0.2570
     12  O2'       33.1050   96.3120  -12.9910 O.3   339  AMP339     -0.2130
     13  C1'       32.2150   94.0220  -12.7080 C.3   339  AMP339      0.3186
     14  N9        31.9660   92.9860  -11.6830 N.pl3 339  AMP339     -0.1439
     15  C8        32.6330   91.8040  -11.6040 C.3   339  AMP339      0.3377
     16  N7        32.2000   91.1330  -10.5190 N.2   339  AMP339     -0.2095
     17  C5        31.2530   91.8840   -9.8330 C.2   339  AMP339      0.2526
     18  C6        30.4870   91.7910   -8.6500 C.2   339  AMP339      0.4393
     19  N6        30.4370   90.7300   -7.8050 N.pl3 339  AMP339      0.2180
     20  N1        29.6920   92.8330   -8.3460 N.2   339  AMP339      0.0021
     21  C2        29.5840   93.9680   -9.0930 C.3   339  AMP339      0.5254
     22  N3        30.3140   94.1250  -10.2460 N.2   339  AMP339     -0.0055
     23  C4        31.1190   93.0680  -10.5900 C.2   339  AMP339      0.3518
@<TRIPOS>BOND
     1     2     1    2
     2     6     7    1
     3     6     5    1
     4     7     8    1
     5     7     9    1
     6     8    13    1
     7     5     1    1
     8     1     3    1
     9     1     4    1
    10    12    11    1
    11     9    10    1
    12     9    11    1
    13    13    11    1
    14    13    14    1
    15    14    15    1
    16    14    23    1
    17    15    16    1
    18    23    22    2
    19    23    17    1
    20    16    17    2
    21    22    21    1
    22    17    18    1
    23    21    20    1
    24    18    20    2
    25    18    19    1
