@<TRIPOS>MOLECULE
1fpd_AHG_A_1.pdb
 29 29 0 0 0
SMALL
GASTEIGER

@<TRIPOS>ATOM
      1  P1        45.1010  106.9970   12.4550 P.3   338  AHG338      0.5320
      2  O1P       44.2450  105.8250   11.9650 O.3   338  AHG338     -0.1145
      3  O2P       45.7050  106.7090   13.8330 O.3   338  AHG338     -0.1145
      4  O3P       46.1260  107.2740   11.3320 O.2   338  AHG338     -0.2224
      5  O1        44.2800  108.3010   12.7010 O.3   338  AHG338     -0.2809
      6  C1        42.9060  108.2240   12.7150 C.3   338  AHG338      0.0879
      7  C2        42.5070  109.4880   12.0720 C.3   338  AHG338      0.1113
      8  C3        41.0740  109.5640   11.6880 C.3   338  AHG338      0.1117
      9  O3        40.5340  108.2450   11.9770 O.3   338  AHG338     -0.3865
     10  C4        40.4820  110.6860   12.5630 C.3   338  AHG338      0.1117
     11  O4        39.4360  111.1670   11.7010 O.3   338  AHG338     -0.3865
     12  C5        41.6850  111.5460   12.8510 C.3   338  AHG338      0.1113
     13  O5        42.7240  110.6110   12.9310 O.3   338  AHG338     -0.3635
     14  C6        41.4980  112.3100   14.0990 C.3   338  AHG338      0.0879
     15  O6        42.6790  113.0540   14.2300 O.3   338  AHG338     -0.2809
     16  P2        42.6720  114.2940   15.3270 P.3   338  AHG338      0.5320
     17  O4P       43.0610  113.8160   16.6710 O.3   338  AHG338     -0.1145
     18  O5P       41.3070  114.8850   15.3790 O.3   338  AHG338     -0.1145
     19  O6P       43.7210  115.1820   14.8180 O.2   338  AHG338     -0.2224
     20  H11       42.6010  107.3300   12.2070 H     338  AHG338      0.0592
     21  H12       42.5730  108.1050   13.7320 H     338  AHG338      0.0592
     22  H2        43.1650  109.6130   11.2050 H     338  AHG338      0.0646
     23  H3        41.2060  109.9810   10.6130 H     338  AHG338      0.0647
     24  HO3       39.6800  107.8540   11.6190 H     338  AHG338      0.2100
     25  H4        40.2070  110.2140   13.5490 H     338  AHG338      0.0647
     26  HO4       39.0260  112.0770   11.6540 H     338  AHG338      0.2100
     27  H5        42.0340  112.2310   12.0820 H     338  AHG338      0.0646
     28  H61       41.3990  111.7150   15.0000 H     338  AHG338      0.0592
     29  H62       40.6590  112.9790   14.1330 H     338  AHG338      0.0592
@<TRIPOS>BOND
     1    23     8    1
     2    22     7    1
     3     4     1    2
     4    24     9    1
     5    26    11    1
     6     8     9    1
     7     8     7    1
     8     8    10    1
     9    11    10    1
    10     2     1    1
    11     7     6    1
    12     7    13    1
    13    27    12    1
    14    20     6    1
    15     1     5    1
    16     1     3    1
    17    10    12    1
    18    10    25    1
    19     5     6    1
    20     6    21    1
    21    12    13    1
    22    12    14    1
    23    14    29    1
    24    14    15    1
    25    14    28    1
    26    15    16    1
    27    19    16    2
    28    16    18    1
    29    16    17    1
