@<TRIPOS>MOLECULE
1fpe_AHG_A_1.pdb
 29 29 0 0 0
SMALL
GASTEIGER

@<TRIPOS>ATOM
      1  P1        44.8810  106.6930   11.8850 P.3   338  AHG338      0.5320
      2  O1P       44.8110  105.2580   11.3490 O.3   338  AHG338     -0.1145
      3  O2P       45.3800  106.6890   13.3580 O.3   338  AHG338     -0.1145
      4  O3P       45.7550  107.5590   11.0080 O.2   338  AHG338     -0.2224
      5  O1        43.4100  107.4290   11.9170 O.3   338  AHG338     -0.2809
      6  C1        43.2360  108.4570   12.8840 C.3   338  AHG338      0.0879
      7  C2        42.6230  109.5870   12.1560 C.3   338  AHG338      0.1113
      8  C3        41.1180  109.4330   11.7480 C.3   338  AHG338      0.1117
      9  O3        40.5690  108.2080   12.3060 O.3   338  AHG338     -0.3865
     10  C4        40.4400  110.5610   12.5280 C.3   338  AHG338      0.1117
     11  O4        39.3200  111.2590   12.0360 O.3   338  AHG338     -0.3865
     12  C5        41.5330  111.5540   12.8370 C.3   338  AHG338      0.1113
     13  O5        42.6160  110.7060   13.0610 O.3   338  AHG338     -0.3635
     14  C6        41.4000  112.4490   14.0710 C.3   338  AHG338      0.0879
     15  O6        42.6000  113.2250   14.1380 O.3   338  AHG338     -0.2809
     16  P2        42.7280  114.3660   15.3210 P.3   338  AHG338      0.5320
     17  O4P       43.0470  113.8020   16.6510 O.3   338  AHG338     -0.1145
     18  O5P       41.4200  115.0510   15.3670 O.3   338  AHG338     -0.1145
     19  O6P       43.8340  115.1670   14.9070 O.2   338  AHG338     -0.2224
     20  H11       42.6360  108.0940   13.7120 H     338  AHG338      0.0592
     21  H12       44.1710  108.7840   13.3330 H     338  AHG338      0.0592
     22  H2        43.3010  109.8550   11.3210 H     338  AHG338      0.0646
     23  H3        41.3680  109.5440   10.5910 H     338  AHG338      0.0647
     24  HO3       39.9380  107.5470   11.9040 H     338  AHG338      0.2100
     25  H4        40.2510  110.1950   13.5630 H     338  AHG338      0.0647
     26  HO4       39.0520  111.4130   11.1130 H     338  AHG338      0.2100
     27  H5        41.8720  112.2380   12.0460 H     338  AHG338      0.0646
     28  H61       41.2250  111.9490   15.0110 H     338  AHG338      0.0592
     29  H62       40.5530  113.0940   13.9710 H     338  AHG338      0.0592
@<TRIPOS>BOND
     1    23     8    1
     2     4     1    2
     3    26    11    1
     4    22     7    1
     5     2     1    1
     6     8     7    1
     7     8     9    1
     8     8    10    1
     9     1     5    1
    10     1     3    1
    11    24     9    1
    12     5     6    1
    13    11    10    1
    14    27    12    1
    15     7     6    1
    16     7    13    1
    17    10    12    1
    18    10    25    1
    19    12    13    1
    20    12    14    1
    21     6    21    1
    22     6    20    1
    23    29    14    1
    24    14    15    1
    25    14    28    1
    26    15    16    1
    27    19    16    2
    28    16    18    1
    29    16    17    1
