@<TRIPOS>MOLECULE
1fpe_AMP_A_1.pdb
 23 25 0 0 0
SMALL
GASTEIGER

@<TRIPOS>ATOM
      1  P         35.7830   90.5590  -13.3270 P.3   339  AMP339      0.5327
      2  O1P       35.7240   89.7700  -14.5630 O.2   339  AMP339     -0.2224
      3  O2P       37.0590   91.1680  -13.2290 O.3   339  AMP339     -0.1145
      4  O3P       35.5340   89.6750  -12.1430 O.3   339  AMP339     -0.1145
      5  O5'       34.6370   91.5610  -13.4220 O.3   339  AMP339     -0.2675
      6  C5'       34.8720   92.6960  -14.2960 C.3   339  AMP339      0.1860
      7  C4'       33.9510   93.8800  -13.9690 C.3   339  AMP339      0.1823
      8  O4'       32.5820   93.5010  -13.8190 O.3   339  AMP339     -0.3135
      9  C3'       34.3680   94.5610  -12.6480 C.3   339  AMP339      0.2184
     10  O3'       35.3610   95.3210  -12.6300 O.3   339  AMP339     -0.2174
     11  C2'       33.0940   95.2870  -12.2330 C.3   339  AMP339      0.2570
     12  O2'       33.1680   96.4170  -12.9220 O.3   339  AMP339     -0.2130
     13  C1'       32.1540   94.0990  -12.6060 C.3   339  AMP339      0.3186
     14  N9        31.9110   93.0450  -11.6280 N.pl3 339  AMP339     -0.1439
     15  C8        32.5920   91.8910  -11.4980 C.3   339  AMP339      0.3377
     16  N7        32.1880   91.2520  -10.3950 N.2   339  AMP339     -0.2095
     17  C5        31.2340   92.0100   -9.7640 C.2   339  AMP339      0.2526
     18  C6        30.4930   91.9700   -8.6100 C.2   339  AMP339      0.4393
     19  N6        30.5680   90.9940   -7.6740 N.pl3 339  AMP339      0.2180
     20  N1        29.6760   92.9970   -8.3430 N.2   339  AMP339      0.0021
     21  C2        29.5170   94.0870   -9.1270 C.3   339  AMP339      0.5254
     22  N3        30.2450   94.1980  -10.2780 N.2   339  AMP339     -0.0055
     23  C4        31.0660   93.1510  -10.5570 C.2   339  AMP339      0.3518
@<TRIPOS>BOND
     1     2     1    2
     2     6     7    1
     3     6     5    1
     4     7     8    1
     5     7     9    1
     6     8    13    1
     7     5     1    1
     8     1     3    1
     9     1     4    1
    10    12    11    1
    11     9    10    1
    12     9    11    1
    13    13    11    1
    14    13    14    1
    15    14    15    1
    16    14    23    1
    17    15    16    1
    18    23    22    2
    19    23    17    1
    20    16    17    2
    21    22    21    1
    22    17    18    1
    23    21    20    1
    24    18    20    2
    25    18    19    1
