@<TRIPOS>MOLECULE
1fpf_AHG_A_1.pdb
 29 29 0 0 0
SMALL
GASTEIGER

@<TRIPOS>ATOM
      1  P1        45.1640  107.1030   12.6570 P.3   338  AHG338      0.5320
      2  O1P       44.5320  105.8530   11.9980 O.3   338  AHG338     -0.1145
      3  O2P       45.9510  106.7910   13.9300 O.3   338  AHG338     -0.1145
      4  O3P       46.0570  107.7600   11.5860 O.2   338  AHG338     -0.2224
      5  O1        44.1370  108.1870   13.1210 O.3   338  AHG338     -0.2809
      6  C1        42.8540  108.1950   12.7090 C.3   338  AHG338      0.0879
      7  C2        42.6050  109.5350   12.1600 C.3   338  AHG338      0.1113
      8  C3        41.1580  109.6830   11.7520 C.3   338  AHG338      0.1117
      9  O3        40.5010  108.3830   12.0300 O.3   338  AHG338     -0.3865
     10  C4        40.5940  110.8120   12.6580 C.3   338  AHG338      0.1117
     11  O4        39.4860  111.2770   11.8730 O.3   338  AHG338     -0.3865
     12  C5        41.8150  111.6420   12.9550 C.3   338  AHG338      0.1113
     13  O5        42.7520  110.5930   13.1180 O.3   338  AHG338     -0.3635
     14  C6        41.6140  112.4730   14.2190 C.3   338  AHG338      0.0879
     15  O6        42.7450  113.3320   14.2840 O.3   338  AHG338     -0.2809
     16  P2        42.7880  114.5000   15.3780 P.3   338  AHG338      0.5320
     17  O4P       43.2300  114.0400   16.7320 O.3   338  AHG338     -0.1145
     18  O5P       41.3890  115.0530   15.4270 O.3   338  AHG338     -0.1145
     19  O6P       43.7900  115.3790   14.7670 O.2   338  AHG338     -0.2224
     20  H11       42.7220  107.4130   11.9850 H     338  AHG338      0.0592
     21  H12       42.2590  107.9540   13.5890 H     338  AHG338      0.0592
     22  H2        43.3380  109.7030   11.3630 H     338  AHG338      0.0646
     23  H3        41.3600  110.0980   10.6950 H     338  AHG338      0.0647
     24  HO3       39.6790  108.0240   11.5750 H     338  AHG338      0.2100
     25  H4        40.3150  110.3270   13.6410 H     338  AHG338      0.0647
     26  HO4       39.2080  112.2060   11.6750 H     338  AHG338      0.2100
     27  H5        42.2280  112.2930   12.1760 H     338  AHG338      0.0646
     28  H61       41.5680  111.8730   15.1180 H     338  AHG338      0.0592
     29  H62       40.7190  113.0680   14.2820 H     338  AHG338      0.0592
@<TRIPOS>BOND
     1    23     8    1
     2    22     7    1
     3    24     9    1
     4     4     1    2
     5    26    11    1
     6     8     9    1
     7     8     7    1
     8     8    10    1
     9    11    10    1
    10    20     6    1
    11     2     1    1
    12     7     6    1
    13     7    13    1
    14    27    12    1
    15     1     5    1
    16     1     3    1
    17    10    12    1
    18    10    25    1
    19     6     5    1
    20     6    21    1
    21    12    13    1
    22    12    14    1
    23    14    29    1
    24    14    15    1
    25    14    28    1
    26    15    16    1
    27    19    16    2
    28    16    18    1
    29    16    17    1
