@<TRIPOS>MOLECULE
1fpf_AMP_A_1.pdb
 23 25 0 0 0
SMALL
GASTEIGER

@<TRIPOS>ATOM
      1  P         35.8770   90.6500  -13.3100 P.3   339  AMP339      0.5327
      2  O1P       35.8600   89.7730  -14.5030 O.2   339  AMP339     -0.2224
      3  O2P       37.1930   91.2490  -13.1890 O.3   339  AMP339     -0.1145
      4  O3P       35.5630   89.7700  -12.1560 O.3   339  AMP339     -0.1145
      5  O5'       34.7060   91.6890  -13.3990 O.3   339  AMP339     -0.2675
      6  C5'       34.9650   92.7430  -14.2990 C.3   339  AMP339      0.1860
      7  C4'       34.0690   93.9590  -14.0320 C.3   339  AMP339      0.1823
      8  O4'       32.6960   93.5880  -13.9040 O.3   339  AMP339     -0.3135
      9  C3'       34.4600   94.6390  -12.7150 C.3   339  AMP339      0.2184
     10  O3'       35.5410   95.2820  -12.6910 O.3   339  AMP339     -0.2174
     11  C2'       33.1650   95.3360  -12.2940 C.3   339  AMP339      0.2570
     12  O2'       33.1470   96.4260  -13.0130 O.3   339  AMP339     -0.2130
     13  C1'       32.2270   94.1500  -12.6790 C.3   339  AMP339      0.3186
     14  N9        31.9570   93.0670  -11.7180 N.pl3 339  AMP339     -0.1439
     15  C8        32.6120   91.8860  -11.6130 C.3   339  AMP339      0.3377
     16  N7        32.2500   91.2640  -10.4990 N.2   339  AMP339     -0.2095
     17  C5        31.3200   92.0550   -9.8340 C.2   339  AMP339      0.2526
     18  C6        30.5620   92.0220   -8.6450 C.2   339  AMP339      0.4393
     19  N6        30.4790   90.9740   -7.8000 N.pl3 339  AMP339      0.2180
     20  N1        29.7630   93.0730   -8.3830 N.2   339  AMP339      0.0021
     21  C2        29.6160   94.1540   -9.1830 C.3   339  AMP339      0.5254
     22  N3        30.3320   94.2450  -10.3590 N.2   339  AMP339     -0.0055
     23  C4        31.1470   93.1970  -10.6360 C.2   339  AMP339      0.3518
@<TRIPOS>BOND
     1     2     1    2
     2     6     7    1
     3     6     5    1
     4     7     8    1
     5     7     9    1
     6     8    13    1
     7     5     1    1
     8     1     3    1
     9     1     4    1
    10    12    11    1
    11     9    10    1
    12     9    11    1
    13    13    11    1
    14    13    14    1
    15    14    15    1
    16    14    23    1
    17    15    16    1
    18    23    22    2
    19    23    17    1
    20    16    17    2
    21    22    21    1
    22    17    18    1
    23    21    20    1
    24    18    20    2
    25    18    19    1
