@<TRIPOS>MOLECULE
1fpg_AHG_A_1.pdb
 29 29 0 0 0
SMALL
GASTEIGER

@<TRIPOS>ATOM
      1  P1        44.7170  106.2510   11.4950 P.3   338  AHG338      0.5320
      2  O1P       43.5210  105.4730   11.0430 O.3   338  AHG338     -0.1145
      3  O2P       45.2800  105.6410   12.7450 O.3   338  AHG338     -0.1145
      4  O3P       45.7500  106.2420   10.4140 O.2   338  AHG338     -0.2224
      5  O1        44.3100  107.7240   11.7710 O.3   338  AHG338     -0.2809
      6  C1        43.3390  108.0680   12.7490 C.3   338  AHG338      0.0879
      7  C2        42.6500  109.3510   12.1130 C.3   338  AHG338      0.1113
      8  C3        41.1400  109.3210   11.7310 C.3   338  AHG338      0.1117
      9  O3        40.5200  108.1010   12.2980 O.3   338  AHG338     -0.3865
     10  C4        40.5550  110.5920   12.4940 C.3   338  AHG338      0.1117
     11  O4        39.4130  111.3230   12.0770 O.3   338  AHG338     -0.3865
     12  C5        41.7130  111.4900   12.8460 C.3   338  AHG338      0.1113
     13  O5        42.7600  110.5620   12.9320 O.3   338  AHG338     -0.3635
     14  C6        41.4840  112.3040   14.1000 C.3   338  AHG338      0.0879
     15  O6        42.6380  113.1210   14.2140 O.3   338  AHG338     -0.2809
     16  P2        42.6930  114.3700   15.3580 P.3   338  AHG338      0.5320
     17  O4P       43.0800  113.8990   16.7220 O.3   338  AHG338     -0.1145
     18  O5P       41.3030  114.9890   15.3900 O.3   338  AHG338     -0.1145
     19  O6P       43.7680  115.2230   14.8680 O.2   338  AHG338     -0.2224
     20  H11       42.7030  107.2510   13.0320 H     338  AHG338      0.0592
     21  H12       43.8830  108.3370   13.6460 H     338  AHG338      0.0592
     22  H2        43.2760  109.5850   11.2410 H     338  AHG338      0.0646
     23  H3        41.3110  109.4600   10.5920 H     338  AHG338      0.0647
     24  HO3       39.7610  107.5500   11.9510 H     338  AHG338      0.2100
     25  H4        40.3380  110.2100   13.5230 H     338  AHG338      0.0647
     26  HO4       39.2150  111.5680   11.1260 H     338  AHG338      0.2100
     27  H5        42.0560  112.1930   12.0850 H     338  AHG338      0.0646
     28  H61       41.3730  111.7500   15.0230 H     338  AHG338      0.0592
     29  H62       40.6040  112.9320   14.0330 H     338  AHG338      0.0592
@<TRIPOS>BOND
     1     4     1    2
     2    23     8    1
     3     2     1    1
     4    26    11    1
     5    22     7    1
     6     1     5    1
     7     1     3    1
     8     8     7    1
     9     8     9    1
    10     8    10    1
    11     5     6    1
    12    24     9    1
    13    11    10    1
    14    27    12    1
    15     7     6    1
    16     7    13    1
    17    10    12    1
    18    10    25    1
    19     6    20    1
    20     6    21    1
    21    12    13    1
    22    12    14    1
    23    29    14    1
    24    14    15    1
    25    14    28    1
    26    15    16    1
    27    19    16    2
    28    16    18    1
    29    16    17    1
