@<TRIPOS>MOLECULE
1fpg_AMP_A_1.pdb
 23 25 0 0 0
SMALL
GASTEIGER

@<TRIPOS>ATOM
      1  P         35.7570   90.5930  -13.3370 P.3   339  AMP339      0.5327
      2  O1P       35.6760   89.8170  -14.6000 O.2   339  AMP339     -0.2224
      3  O2P       37.1090   91.1230  -13.2160 O.3   339  AMP339     -0.1145
      4  O3P       35.4010   89.6490  -12.2400 O.3   339  AMP339     -0.1145
      5  O5'       34.6180   91.6670  -13.3550 O.3   339  AMP339     -0.2675
      6  C5'       34.8050   92.6530  -14.3270 C.3   339  AMP339      0.1860
      7  C4'       33.9250   93.8060  -14.0240 C.3   339  AMP339      0.1823
      8  O4'       32.5850   93.4110  -13.8450 O.3   339  AMP339     -0.3135
      9  C3'       34.3510   94.4910  -12.7250 C.3   339  AMP339      0.2184
     10  O3'       35.3910   95.1910  -12.7010 O.3   339  AMP339     -0.2174
     11  C2'       33.0930   95.2460  -12.2940 C.3   339  AMP339      0.2570
     12  O2'       33.0520   96.3510  -13.0140 O.3   339  AMP339     -0.2130
     13  C1'       32.1510   94.0440  -12.6370 C.3   339  AMP339      0.3186
     14  N9        31.8780   93.0260  -11.6180 N.pl3 339  AMP339     -0.1439
     15  C8        32.5020   91.8360  -11.5550 C.3   339  AMP339      0.3377
     16  N7        32.1170   91.2010  -10.4590 N.2   339  AMP339     -0.2095
     17  C5        31.2370   92.0030   -9.7540 C.2   339  AMP339      0.2526
     18  C6        30.5640   91.9730   -8.5380 C.2   339  AMP339      0.4393
     19  N6        30.6120   90.9730   -7.6640 N.pl3 339  AMP339      0.2180
     20  N1        29.8300   93.0120   -8.1820 N.2   339  AMP339      0.0021
     21  C2        29.6910   94.1150   -8.9340 C.3   339  AMP339      0.5254
     22  N3        30.3370   94.2270  -10.1280 N.2   339  AMP339     -0.0055
     23  C4        31.0830   93.1660  -10.5060 C.2   339  AMP339      0.3518
@<TRIPOS>BOND
     1     2     1    2
     2     6     7    1
     3     6     5    1
     4     7     8    1
     5     7     9    1
     6     8    13    1
     7     5     1    1
     8     1     3    1
     9     1     4    1
    10    12    11    1
    11     9    10    1
    12     9    11    1
    13    13    11    1
    14    13    14    1
    15    14    15    1
    16    14    23    1
    17    15    16    1
    18    23    22    2
    19    23    17    1
    20    16    17    2
    21    22    21    1
    22    17    18    1
    23    21    20    1
    24    18    20    2
    25    18    19    1
