@<TRIPOS>MOLECULE
1fpi_AMP_A_1.pdb
 23 25 0 0 0
SMALL
GASTEIGER

@<TRIPOS>ATOM
      1  P         35.8620   90.9570  -13.2880 P.3   339  AMP339      0.5327
      2  O1P       37.2300   91.4580  -12.9470 O.3   339  AMP339     -0.1145
      3  O2P       35.4040   90.0870  -12.1570 O.3   339  AMP339     -0.1145
      4  O3P       35.7590   90.1360  -14.5640 O.2   339  AMP339     -0.2224
      5  O5'       34.8360   92.0820  -13.3630 O.3   339  AMP339     -0.2675
      6  C5'       35.1210   93.1190  -14.3520 C.3   339  AMP339      0.1860
      7  C4'       34.1070   94.2450  -14.1290 C.3   339  AMP339      0.1823
      8  O4'       32.7750   93.7380  -13.9490 O.3   339  AMP339     -0.3135
      9  C3'       34.3330   94.9390  -12.7520 C.3   339  AMP339      0.2184
     10  O3'       35.3700   95.7070  -12.6890 O.3   339  AMP339     -0.2174
     11  C2'       32.9970   95.6370  -12.4890 C.3   339  AMP339      0.2570
     12  O2'       32.7110   96.4410  -13.5020 O.3   339  AMP339     -0.2130
     13  C1'       32.3050   94.2790  -12.6900 C.3   339  AMP339      0.3186
     14  N9        32.0870   93.3330  -11.5740 N.pl3 339  AMP339     -0.1439
     15  C8        32.8110   92.1950  -11.3600 C.3   339  AMP339      0.3377
     16  N7        32.3230   91.6590  -10.2120 N.2   339  AMP339     -0.2095
     17  C5        31.3060   92.4090   -9.6820 C.2   339  AMP339      0.2526
     18  C6        30.4990   92.3560   -8.5820 C.2   339  AMP339      0.4393
     19  N6        30.6100   91.4200   -7.6070 N.pl3 339  AMP339      0.2180
     20  N1        29.6160   93.3260   -8.4080 N.2   339  AMP339      0.0021
     21  C2        29.4600   94.3560   -9.2230 C.3   339  AMP339      0.5254
     22  N3        30.2330   94.4750  -10.3220 N.2   339  AMP339     -0.0055
     23  C4        31.1440   93.4870  -10.5370 C.2   339  AMP339      0.3518
@<TRIPOS>BOND
     1     4     1    2
     2     6     7    1
     3     6     5    1
     4     7     8    1
     5     7     9    1
     6     8    13    1
     7    12    11    1
     8     5     1    1
     9     1     2    1
    10     1     3    1
    11     9    10    1
    12     9    11    1
    13    13    11    1
    14    13    14    1
    15    14    15    1
    16    14    23    1
    17    15    16    1
    18    23    22    2
    19    23    17    1
    20    22    21    1
    21    16    17    2
    22    17    18    1
    23    21    20    1
    24    18    20    2
    25    18    19    1
