@<TRIPOS>MOLECULE
1fpi_AHG_A_1.pdb
 19 19 0 0 0
SMALL
GASTEIGER

@<TRIPOS>ATOM
      1  P1        45.1290  107.5370   13.2270 P.3   340  AHG340      0.5327
      2  O1P       45.3850  107.4140   14.6920 O.3   340  AHG340     -0.1145
      3  O2P       46.4440  107.7390   12.5620 O.2   340  AHG340     -0.2224
      4  O3P       44.4670  106.3150   12.6940 O.3   340  AHG340     -0.1145
      5  O1        44.2480  108.7670   12.9710 O.3   340  AHG340     -0.2675
      6  C1        42.8840  108.5970   12.7490 C.3   340  AHG340      0.1858
      7  C2        42.3730  109.9010   12.1510 C.3   340  AHG340      0.1782
      8  C3        40.8890  109.9420   11.9020 C.3   340  AHG340      0.2140
      9  O3        40.3810  108.6850   12.3480 O.3   340  AHG340     -0.2176
     10  C4        40.3980  111.0870   12.7100 C.3   340  AHG340      0.2140
     11  O4        39.4880  111.9250   12.0050 O.3   340  AHG340     -0.2176
     12  C5        41.6270  111.9080   13.0150 C.3   340  AHG340      0.1782
     13  O5        42.6260  110.9190   13.0930 O.3   340  AHG340     -0.3482
     14  C6        41.4960  112.8150   14.2520 C.3   340  AHG340      0.1858
     15  O6        42.7220  113.5150   14.4620 O.3   340  AHG340     -0.2675
     16  P2        42.7620  114.7730   15.4380 P.3   340  AHG340      0.5327
     17  O4P       43.0050  114.2580   16.8200 O.3   340  AHG340     -0.1145
     18  O5P       43.7910  115.7350   14.9660 O.2   340  AHG340     -0.2224
     19  O6P       41.4620  115.4770   15.3880 O.3   340  AHG340     -0.1145
@<TRIPOS>BOND
     1     8     7    1
     2     8     9    1
     3     8    10    1
     4    11    10    1
     5     7     6    1
     6     7    13    1
     7     3     1    2
     8     4     1    1
     9    10    12    1
    10     6     5    1
    11     5     1    1
    12    12    13    1
    13    12    14    1
    14     1     2    1
    15    14    15    1
    16    15    16    1
    17    18    16    2
    18    19    16    1
    19    16    17    1
