@<TRIPOS>MOLECULE
1fpj_AMP_A_1.pdb
 23 25 0 0 0
SMALL
GASTEIGER

@<TRIPOS>ATOM
      1  P         35.8740   90.7930  -13.3480 P.3   338  AMP338      0.5327
      2  O1P       37.1830   91.4040  -13.0960 O.3   338  AMP338     -0.1145
      3  O2P       35.4350   89.9000  -12.2060 O.3   338  AMP338     -0.1145
      4  O3P       35.9530   89.8990  -14.5190 O.2   338  AMP338     -0.2224
      5  O5'       34.7560   91.8710  -13.4810 O.3   338  AMP338     -0.2675
      6  C5'       35.0280   92.9610  -14.4170 C.3   338  AMP338      0.1860
      7  C4'       34.0540   94.1070  -14.1260 C.3   338  AMP338      0.1823
      8  O4'       32.7060   93.6090  -13.9630 O.3   338  AMP338     -0.3135
      9  C3'       34.3250   94.7690  -12.7230 C.3   338  AMP338      0.2184
     10  O3'       35.3550   95.5320  -12.6610 O.3   338  AMP338     -0.2174
     11  C2'       32.9940   95.4740  -12.4560 C.3   338  AMP338      0.2570
     12  O2'       32.7240   96.3170  -13.4460 O.3   338  AMP338     -0.2130
     13  C1'       32.2470   94.1290  -12.6940 C.3   338  AMP338      0.3186
     14  N9        32.0530   93.1730  -11.5790 N.pl3 338  AMP338     -0.1439
     15  C8        32.6710   91.9440  -11.4950 C.3   338  AMP338      0.3377
     16  N7        32.2040   91.3190  -10.3920 N.2   338  AMP338     -0.2095
     17  C5        31.2820   92.0990   -9.7470 C.2   338  AMP338      0.2526
     18  C6        30.4940   92.0180   -8.6470 C.2   338  AMP338      0.4393
     19  N6        30.5710   91.0390   -7.7730 N.pl3 338  AMP338      0.2180
     20  N1        29.7150   93.0600   -8.3520 N.2   338  AMP338      0.0021
     21  C2        29.6500   94.1700   -9.0520 C.3   338  AMP338      0.5254
     22  N3        30.4020   94.3250  -10.1500 N.2   338  AMP338     -0.0055
     23  C4        31.1890   93.2870  -10.4840 C.2   338  AMP338      0.3518
@<TRIPOS>BOND
     1     4     1    2
     2     6     7    1
     3     6     5    1
     4     7     8    1
     5     7     9    1
     6     8    13    1
     7     5     1    1
     8    12    11    1
     9     1     2    1
    10     1     3    1
    11     9    10    1
    12     9    11    1
    13    13    11    1
    14    13    14    1
    15    14    15    1
    16    14    23    1
    17    15    16    1
    18    23    22    2
    19    23    17    1
    20    16    17    2
    21    22    21    1
    22    17    18    1
    23    21    20    1
    24    18    20    2
    25    18    19    1
