@<TRIPOS>MOLECULE
1fpj_AHG_A_1.pdb
 19 19 0 0 0
SMALL
GASTEIGER

@<TRIPOS>ATOM
      1  P1        45.1150  107.2500   13.6450 P.3   339  AHG339      0.5327
      2  O1P       44.4670  107.2370   14.9940 O.3   339  AHG339     -0.1145
      3  O2P       46.5650  107.5820   13.8540 O.3   339  AHG339     -0.1145
      4  O3P       44.9490  105.9050   12.9850 O.2   339  AHG339     -0.2224
      5  O1        44.4480  108.3020   12.7120 O.3   339  AHG339     -0.2675
      6  C1        43.0430  108.2990   12.5960 C.3   339  AHG339      0.1858
      7  C2        42.5370  109.6530   12.0980 C.3   339  AHG339      0.1782
      8  C3        41.0330  109.5940   11.7950 C.3   339  AHG339      0.2140
      9  O3        40.5910  108.2730   12.2510 O.3   339  AHG339     -0.2176
     10  C4        40.5150  110.7920   12.6150 C.3   339  AHG339      0.2140
     11  O4        39.6480  111.6980   11.9770 O.3   339  AHG339     -0.2176
     12  C5        41.7680  111.6150   12.9230 C.3   339  AHG339      0.1782
     13  O5        42.7780  110.6670   13.0670 O.3   339  AHG339     -0.3482
     14  C6        41.6390  112.4950   14.1580 C.3   339  AHG339      0.1858
     15  O6        42.8290  113.2730   14.3670 O.3   339  AHG339     -0.2675
     16  P2        42.8080  114.5370   15.3620 P.3   339  AHG339      0.5327
     17  O4P       43.0790  114.1460   16.7490 O.3   339  AHG339     -0.1145
     18  O5P       43.9020  115.4180   14.9310 O.2   339  AHG339     -0.2224
     19  O6P       41.4790  115.2130   15.3190 O.3   339  AHG339     -0.1145
@<TRIPOS>BOND
     1     8     7    1
     2     8     9    1
     3     8    10    1
     4    11    10    1
     5     7     6    1
     6     7    13    1
     7     6     5    1
     8    10    12    1
     9     5     1    1
    10    12    13    1
    11    12    14    1
    12     4     1    2
    13     1     3    1
    14     1     2    1
    15    14    15    1
    16    15    16    1
    17    18    16    2
    18    19    16    1
    19    16    17    1
