@<TRIPOS>MOLECULE
1fpl_AHG_A_1.pdb
 19 19 0 0 0
SMALL
GASTEIGER

@<TRIPOS>ATOM
      1  P1        45.0030  107.4610   13.1140 P.3   340  AHG340      0.5327
      2  O1P       45.1890  107.3220   14.6160 O.3   340  AHG340     -0.1145
      3  O2P       46.3130  107.7070   12.3710 O.2   340  AHG340     -0.2224
      4  O3P       44.3740  106.1910   12.6130 O.3   340  AHG340     -0.1145
      5  O1        44.1020  108.6920   12.8630 O.3   340  AHG340     -0.2675
      6  C1        42.7580  108.4950   12.6670 C.3   340  AHG340      0.1858
      7  C2        42.2950  109.7990   12.0850 C.3   340  AHG340      0.1782
      8  C3        40.8100  109.7790   11.7270 C.3   340  AHG340      0.2140
      9  O3        40.3800  108.4790   12.2310 O.3   340  AHG340     -0.2176
     10  C4        40.2850  110.9430   12.6070 C.3   340  AHG340      0.2140
     11  O4        39.4140  111.9090   11.9730 O.3   340  AHG340     -0.2176
     12  C5        41.5390  111.7810   12.8570 C.3   340  AHG340      0.1782
     13  O5        42.5150  110.8060   13.0480 O.3   340  AHG340     -0.3482
     14  C6        41.4310  112.7000   14.0720 C.3   340  AHG340      0.1858
     15  O6        42.6390  113.4300   14.3220 O.3   340  AHG340     -0.2675
     16  P2        42.6300  114.6860   15.3270 P.3   340  AHG340      0.5327
     17  O4P       42.9370  114.3000   16.7150 O.3   340  AHG340     -0.1145
     18  O5P       43.7160  115.5850   14.9310 O.2   340  AHG340     -0.2224
     19  O6P       41.2820  115.3380   15.2850 O.3   340  AHG340     -0.1145
@<TRIPOS>BOND
     1     8     7    1
     2     8     9    1
     3     8    10    1
     4    11    10    1
     5     7     6    1
     6     7    13    1
     7     3     1    2
     8    10    12    1
     9     4     1    1
    10     6     5    1
    11    12    13    1
    12    12    14    1
    13     5     1    1
    14     1     2    1
    15    14    15    1
    16    15    16    1
    17    18    16    2
    18    19    16    1
    19    16    17    1
