@<TRIPOS>MOLECULE
1fpl_AMP_A_1.pdb
 23 25 0 0 0
SMALL
GASTEIGER

@<TRIPOS>ATOM
      1  P         35.7710   90.8130  -13.4030 P.3   339  AMP339      0.5327
      2  O1P       37.1210   91.3100  -13.2040 O.3   339  AMP339     -0.1145
      3  O2P       35.3040   89.9380  -12.2440 O.3   339  AMP339     -0.1145
      4  O3P       35.8220   90.0100  -14.6420 O.2   339  AMP339     -0.2224
      5  O5'       34.7450   91.9530  -13.5110 O.3   339  AMP339     -0.2675
      6  C5'       35.0010   93.0470  -14.4490 C.3   339  AMP339      0.1860
      7  C4'       33.9790   94.1550  -14.1880 C.3   339  AMP339      0.1823
      8  O4'       32.6520   93.6250  -14.0430 O.3   339  AMP339     -0.3135
      9  C3'       34.2410   94.8360  -12.8230 C.3   339  AMP339      0.2184
     10  O3'       35.2920   95.6050  -12.7870 O.3   339  AMP339     -0.2174
     11  C2'       32.9050   95.5440  -12.5840 C.3   339  AMP339      0.2570
     12  O2'       32.6670   96.3810  -13.5770 O.3   339  AMP339     -0.2130
     13  C1'       32.1430   94.1920  -12.8140 C.3   339  AMP339      0.3186
     14  N9        31.9600   93.2580  -11.6770 N.pl3 339  AMP339     -0.1439
     15  C8        32.6730   92.1070  -11.4550 C.3   339  AMP339      0.3377
     16  N7        32.2330   91.5390  -10.2990 N.2   339  AMP339     -0.2095
     17  C5        31.2290   92.3210   -9.7730 C.2   339  AMP339      0.2526
     18  C6        30.4130   92.2790   -8.6830 C.2   339  AMP339      0.4393
     19  N6        30.4860   91.2360   -7.8220 N.pl3 339  AMP339      0.2180
     20  N1        29.5140   93.2460   -8.4910 N.2   339  AMP339      0.0021
     21  C2        29.3550   94.2710   -9.3150 C.3   339  AMP339      0.5254
     22  N3        30.1290   94.3830  -10.4160 N.2   339  AMP339     -0.0055
     23  C4        31.0480   93.4080  -10.6290 C.2   339  AMP339      0.3518
@<TRIPOS>BOND
     1     4     1    2
     2     6     7    1
     3     6     5    1
     4     7     8    1
     5     7     9    1
     6     8    13    1
     7    12    11    1
     8     5     1    1
     9     1     2    1
    10     1     3    1
    11     9    10    1
    12     9    11    1
    13    13    11    1
    14    13    14    1
    15    14    15    1
    16    14    23    1
    17    15    16    1
    18    23    22    2
    19    23    17    1
    20    22    21    1
    21    16    17    2
    22    17    18    1
    23    21    20    1
    24    18    20    2
    25    18    19    1
