@<TRIPOS>MOLECULE
1fpp_FPP_B_1.pdb
 24 23 0 0 0
SMALL
GASTEIGER

@<TRIPOS>ATOM
      1  C1       -32.5640   98.1220   23.1650 C.3   440  FPP440      0.1747
      2  O1       -33.3690   97.4570   24.1550 O.3   440  FPP440     -0.3089
      3  C2       -32.9460   99.5490   22.8280 C.2   440  FPP440     -0.0024
      4  C3       -32.0630  100.5720   22.7390 C.2   440  FPP440     -0.0454
      5  C4       -32.5030  102.0030   22.3830 C.3   440  FPP440      0.0261
      6  C5       -30.6130  100.2660   22.9990 C.3   440  FPP440      0.0264
      7  C6       -29.7910  101.5270   23.3600 C.3   440  FPP440      0.0297
      8  C7       -28.2570  101.3710   23.2860 C.2   440  FPP440     -0.0342
      9  C8       -27.4210  101.5050   22.2130 C.2   440  FPP440     -0.0478
     10  C10      -27.9560  101.8670   20.8040 C.3   440  FPP440      0.0260
     11  C9       -25.9140  101.2860   22.4210 C.3   440  FPP440      0.0263
     12  C11      -25.4860   99.8310   22.7340 C.3   440  FPP440      0.0297
     13  C12      -25.4440   98.8730   21.5410 C.2   440  FPP440     -0.0342
     14  C13      -24.6830   97.7450   21.3570 C.2   440  FPP440     -0.0478
     15  C14      -24.7200   96.8610   20.1280 C.3   440  FPP440      0.0260
     16  C15      -23.6910   97.2170   22.3710 C.3   440  FPP440      0.0260
     17  PA       -34.1510   96.0610   23.8010 P.3   440  FPP440      0.2233
     18  O1A      -33.0910   94.8960   23.8410 O.2   440  FPP440     -0.5169
     19  O2A      -35.2970   96.1520   24.8150 O.3   440  FPP440     -0.4370
     20  O3A      -34.7800   95.7330   22.4430 O.3   440  FPP440     -0.2261
     21  PB       -35.1320   96.8830   21.4830 P.3   440  FPP440      0.5373
     22  O1B      -35.8160   98.1230   22.0000 O.3   440  FPP440     -0.1143
     23  O2B      -35.9110   96.2950   20.3450 O.2   440  FPP440     -0.2221
     24  O3B      -33.8900   97.5800   20.8440 O.3   440  FPP440     -0.1143
@<TRIPOS>BOND
     1    15    14    1
     2    23    21    2
     3    10     9    1
     4    24    21    1
     5    14    13    2
     6    14    16    1
     7    21    22    1
     8    21    20    1
     9    13    12    1
    10     9    11    1
    11     9     8    2
    12     5     4    1
    13    11    12    1
    14    20    17    1
    15     4     3    2
    16     4     6    1
    17     3     1    1
    18     6     7    1
    19     1     2    1
    20     8     7    1
    21    17    18    2
    22    17     2    1
    23    17    19    1
