@<TRIPOS>MOLECULE
1fpu_PRC_A_1.pdb
 29 32 0 0 0
SMALL
GASTEIGER

@<TRIPOS>ATOM
      1  C1        11.5650   61.4970   12.5110 C.ar    1  PRC1        0.0208
      2  C2        10.5330   60.9290   11.7370 C.ar    1  PRC1        0.0989
      3  N3        10.6150   59.6390   11.3340 N.ar    1  PRC1       -0.2422
      4  C4        11.6740   58.8450   11.6480 C.ar    1  PRC1        0.1014
      5  C5        12.7470   59.3530   12.4240 C.ar    1  PRC1        0.0497
      6  C6        12.6820   60.6950   12.8550 C.ar    1  PRC1        0.0057
      7  C7        13.8570   58.4850   12.7390 C.2     1  PRC1        0.1472
      8  N8        13.7950   57.1810   12.3360 N.2     1  PRC1       -0.3361
      9  C9        14.7570   56.2910   12.5640 C.1     1  PRC1        0.1696
     10  N10       15.8770   56.7040   13.2410 N.2     1  PRC1       -0.1683
     11  C11       16.0220   57.9800   13.6790 C.2     1  PRC1        0.1144
     12  C12       15.0010   58.9140   13.4350 C.2     1  PRC1        0.0546
     13  N13       14.6570   55.0130   12.1520 N.pl3   1  PRC1       -0.1360
     14  C14       15.6960   54.0830   12.2510 C.ar    1  PRC1        0.0799
     15  C15       15.6490   53.1620   13.3500 C.ar    1  PRC1        0.0336
     16  C16       16.6800   52.1840   13.5080 C.ar    1  PRC1        0.0750
     17  C17       17.6990   52.1450   12.5780 C.ar    1  PRC1        0.0164
     18  C18       17.7480   53.0460   11.5040 C.ar    1  PRC1       -0.0016
     19  C19       16.7390   54.0180   11.3140 C.ar    1  PRC1       -0.0057
     20  C20       16.9120   54.9120   10.1050 C.3     1  PRC1        0.0324
     21  N21       16.6610   51.2280   14.5380 N.am    1  PRC1       -0.1754
     22  C22       15.7950   51.0650   15.5350 C.2     1  PRC1        0.2705
     23  C23       15.9660   49.9190   16.4300 C.ar    1  PRC1        0.0745
     24  C25       14.8210   49.2730   16.9840 C.ar    1  PRC1        0.0077
     25  C26       14.9740   48.1550   17.8360 C.ar    1  PRC1        0.0208
     26  C27       16.2820   47.6880   18.1210 C.ar    1  PRC1        0.0989
     27  N28       17.3630   48.3250   17.5740 N.ar    1  PRC1       -0.2422
     28  C29       17.2360   49.4110   16.7490 C.ar    1  PRC1        0.1034
     29  O29       14.8230   51.7860   15.7350 O.2     1  PRC1       -0.2680
@<TRIPOS>BOND
     1    20    19    1
     2    19    18   ar
     3    19    14   ar
     4     3     4   ar
     5     3     2   ar
     6    18    17   ar
     7     4     5   ar
     8     2     1   ar
     9    13    14    1
    10    13     9    1
    11    14    15   ar
    12     8     9    2
    13     8     7    2
    14     5     7    1
    15     5     6   ar
    16     1     6   ar
    17     9    10    2
    18    17    16   ar
    19     7    12    1
    20    10    11    1
    21    15    16   ar
    22    12    11    2
    23    16    21    1
    24    21    22   am
    25    22    29    2
    26    22    23    1
    27    23    28   ar
    28    23    24   ar
    29    28    27   ar
    30    24    25   ar
    31    27    26   ar
    32    25    26   ar
