@<TRIPOS>MOLECULE
1fpx_SAM_A_1.pdb
 27 29 0 0 0
SMALL
GASTEIGER

@<TRIPOS>ATOM
      1  N        -21.3200    7.5910    5.8400 N.3   1699  SAM1699    -0.1208
      2  CA       -20.0400    8.3420    6.3210 C.3   1699  SAM1699     0.1952
      3  C        -18.9310    7.2810    6.5190 C.2   1699  SAM1699     0.3819
      4  O        -17.7280    7.7120    6.6540 O.co2 1699  SAM1699    -0.2441
      5  OXT      -19.2850    6.0590    6.5850 O.co2 1699  SAM1699    -0.2441
      6  CB       -20.3450    8.9690    7.6060 C.3   1699  SAM1699     0.0414
      7  CG       -19.5220    9.7850    8.5140 C.3   1699  SAM1699     0.0503
      8  SD       -20.3890    9.9720   10.1330 S.3   1699  SAM1699    -0.1761
      9  CE       -20.4440    8.3580   10.7600 C.3   1699  SAM1699     0.0590
     10  C5'      -22.0410   10.6840    9.5190 C.3   1699  SAM1699     0.0806
     11  C4'      -22.1490   11.5420    9.3630 C.3   1699  SAM1699     0.1622
     12  O4'      -23.5830   11.9530    9.2230 O.3   1699  SAM1699    -0.3153
     13  C3'      -21.3030   12.8230    9.0960 C.3   1699  SAM1699     0.2168
     14  O3'      -20.7140   12.8810    7.7240 O.3   1699  SAM1699    -0.2175
     15  C2'      -22.2660   13.9310    9.3980 C.3   1699  SAM1699     0.2569
     16  O2'      -21.9370   15.1790    8.7830 O.3   1699  SAM1699    -0.2130
     17  C1'      -23.6820   13.4270    9.1500 C.3   1699  SAM1699     0.3185
     18  N9       -24.8350   14.1860    9.3700 N.pl3 1699  SAM1699    -0.1439
     19  C8       -25.1090   14.5430   10.6740 C.3   1699  SAM1699     0.3377
     20  N7       -26.1970   15.2020   10.7690 N.2   1699  SAM1699    -0.2095
     21  C5       -26.6580   15.2810    9.4630 C.2   1699  SAM1699     0.2526
     22  C6       -27.8520   15.9030    8.9010 C.2   1699  SAM1699     0.4393
     23  N6       -28.7080   16.5220    9.6790 N.pl3 1699  SAM1699     0.2180
     24  N1       -27.9760   15.7680    7.5400 N.2   1699  SAM1699     0.0021
     25  C2       -27.0910   15.1220    6.7390 C.3   1699  SAM1699     0.5254
     26  N3       -25.9610   14.5380    7.2280 N.2   1699  SAM1699    -0.0055
     27  C4       -25.8270   14.6560    8.5690 C.2   1699  SAM1699     0.3518
@<TRIPOS>BOND
     1     1     2    1
     2     2     3    1
     3     2     6    1
     4     3     5   ar
     5     3     4   ar
     6    25    26    1
     7    25    24    1
     8    26    27    2
     9    24    22    2
    10     6     7    1
    11    14    13    1
    12     7     8    1
    13    27    18    1
    14    27    21    1
    15    16    15    1
    16    22    21    1
    17    22    23    1
    18    13    11    1
    19    13    15    1
    20    17    12    1
    21    17    18    1
    22    17    15    1
    23    12    11    1
    24    11    10    1
    25    18    19    1
    26    21    20    2
    27    10     8    1
    28     8     9    1
    29    19    20    1
