@<TRIPOS>MOLECULE
1fpy_PPQ_A_1.pdb
 11 10 0 0 0
SMALL
GASTEIGER

@<TRIPOS>ATOM
      1  NP       -85.0290   13.5780  -69.1520 N.3   5900  PPQ5900    -0.1208
      2  CAP      -86.4020   14.0170  -68.9550 C.3   5900  PPQ5900     0.1949
      3  CBP      -86.8950   14.6630  -70.2360 C.3   5900  PPQ5900     0.0409
      4  CGP      -85.9400   15.7050  -70.8030 C.3   5900  PPQ5900     0.0916
      5  PDP      -86.0740   16.8540  -72.1520 P.3   5900  PPQ5900     0.2547
      6  CEP      -87.4140   16.7310  -73.2650 C.3   5900  PPQ5900     0.0998
      7  OEA      -84.8220   16.7920  -72.9030 O.2   5900  PPQ5900    -0.2869
      8  OEB      -86.1560   18.2900  -71.5720 O.3   5900  PPQ5900    -0.1678
      9  CP       -87.2820   12.8230  -68.5270 C.2   5900  PPQ5900     0.3819
     10  OP       -88.3250   12.5610  -69.1330 O.co2 5900  PPQ5900    -0.2441
     11  OTP      -86.9770   12.2510  -67.4730 O.co2 5900  PPQ5900    -0.2441
@<TRIPOS>BOND
     1     6     5    1
     2     7     5    2
     3     5     8    1
     4     5     4    1
     5     4     3    1
     6     3     2    1
     7     1     2    1
     8    10     9   ar
     9     2     9    1
    10     9    11   ar
