@<TRIPOS>MOLECULE
1fpy_ADP_A_1.pdb
 27 29 0 0 0
SMALL
GASTEIGER

@<TRIPOS>ATOM
      1  PB       -88.4440   16.7060  -78.3920 P.3   4471  ADP4471     0.5373
      2  O1B      -87.9430   18.1910  -78.4260 O.2   4471  ADP4471    -0.2221
      3  O2B      -89.8040   16.5210  -77.8510 O.3   4471  ADP4471    -0.1143
      4  O3B      -87.3020   15.8090  -77.5240 O.3   4471  ADP4471    -0.1143
      5  PA       -87.0660   15.4830  -81.0460 P.3   4471  ADP4471     0.2231
      6  O1A      -86.1150   16.5240  -81.6720 O.2   4471  ADP4471    -0.5169
      7  O2A      -86.2350   14.4060  -80.2920 O.3   4471  ADP4471    -0.4370
      8  O3A      -88.2520   16.2220  -80.0270 O.3   4471  ADP4471    -0.2261
      9  O5'      -87.7850   14.8710  -82.3910 O.3   4471  ADP4471    -0.3111
     10  C5'      -88.1650   13.6230  -82.9500 C.3   4471  ADP4471     0.1813
     11  C4'      -89.3000   12.6650  -82.8360 C.3   4471  ADP4471     0.1821
     12  O4'      -90.7090   13.0320  -83.3310 O.3   4471  ADP4471    -0.3135
     13  C3'      -88.8610   11.6210  -83.7680 C.3   4471  ADP4471     0.2184
     14  O3'      -88.9050   10.3830  -83.0290 O.3   4471  ADP4471    -0.2174
     15  C2'      -89.8500   11.8620  -84.9220 C.3   4471  ADP4471     0.2570
     16  O2'      -89.6280   10.9350  -85.9480 O.3   4471  ADP4471    -0.2130
     17  C1'      -91.0890   11.7720  -84.0710 C.3   4471  ADP4471     0.3186
     18  N9       -92.5900   11.6070  -84.8550 N.pl3 4471  ADP4471    -0.1439
     19  C8       -93.6810   10.7400  -84.3970 C.3   4471  ADP4471     0.3377
     20  N7       -94.8130   10.6900  -85.0990 N.2   4471  ADP4471    -0.2095
     21  C5       -94.5200   11.5740  -86.1230 C.2   4471  ADP4471     0.2526
     22  C6       -95.3150   11.9720  -87.2190 C.2   4471  ADP4471     0.4393
     23  N6       -96.4310   11.4910  -87.3270 N.pl3 4471  ADP4471     0.2180
     24  N1       -94.8580   12.8520  -88.1310 N.2   4471  ADP4471     0.0021
     25  C2       -93.6200   13.3620  -87.9870 C.3   4471  ADP4471     0.5254
     26  N3       -92.6980   13.0970  -86.9880 N.2   4471  ADP4471    -0.0055
     27  C4       -93.2020   12.1660  -86.0420 C.2   4471  ADP4471     0.3518
@<TRIPOS>BOND
     1    24    25    1
     2    24    22    2
     3    25    26    1
     4    23    22    1
     5    22    21    1
     6    26    27    2
     7    21    27    1
     8    21    20    2
     9    27    18    1
    10    16    15    1
    11    20    19    1
    12    15    17    1
    13    15    13    1
    14    18    19    1
    15    18    17    1
    16    17    12    1
    17    13    14    1
    18    13    11    1
    19    12    11    1
    20    10    11    1
    21    10     9    1
    22     9     5    1
    23     6     5    2
    24     5     7    1
    25     5     8    1
    26     8     1    1
    27     2     1    2
    28     1     3    1
    29     1     4    1
