@<TRIPOS>MOLECULE
1fq1_ATP_B_1.pdb
 31 33 0 0 0
SMALL
GASTEIGER

@<TRIPOS>ATOM
      1  PG       -37.2050   83.4220   33.8150 P.3   381  ATP381      0.5373
      2  O1G      -38.3730   84.0160   33.1200 O.2   381  ATP381     -0.2221
      3  O2G      -35.9810   84.2440   33.8060 O.3   381  ATP381     -0.1143
      4  O3G      -37.0200   81.9490   33.5050 O.3   381  ATP381     -0.1143
      5  PB       -38.9390   82.9420   36.1050 P.3   381  ATP381      0.2277
      6  O1B      -39.3610   81.7080   35.4110 O.2   381  ATP381     -0.5168
      7  O2B      -38.7880   82.8860   37.5510 O.3   381  ATP381     -0.4368
      8  O3B      -37.5980   83.4860   35.3770 O.3   381  ATP381     -0.2258
      9  PA       -40.3040   85.4440   36.1830 P.3   381  ATP381      0.2189
     10  O1A      -41.0090   85.1260   37.4210 O.3   381  ATP381     -0.4371
     11  O2A      -39.1970   86.4150   36.1820 O.2   381  ATP381     -0.5170
     12  O3A      -39.8960   84.0290   35.6480 O.3   381  ATP381     -0.2700
     13  O5'      -41.3700   85.8550   35.1290 O.3   381  ATP381     -0.3112
     14  C5'      -41.1150   86.3210   33.7940 C.3   381  ATP381      0.1813
     15  C4'      -42.2370   85.9150   32.8760 C.3   381  ATP381      0.1821
     16  O4'      -43.4710   86.3970   33.4120 O.3   381  ATP381     -0.3135
     17  C3'      -42.1120   86.4730   31.5130 C.3   381  ATP381      0.2184
     18  O3'      -42.8270   85.6590   30.5710 O.3   381  ATP381     -0.2174
     19  C2'      -42.7550   87.8370   31.6940 C.3   381  ATP381      0.2570
     20  O2'      -43.3720   88.3570   30.5300 O.3   381  ATP381     -0.2130
     21  C1'      -43.8850   87.5900   32.7470 C.3   381  ATP381      0.3186
     22  N9       -44.0140   88.6520   33.7970 N.pl3 381  ATP381     -0.1439
     23  C8       -43.5470   88.6430   35.1020 C.3   381  ATP381      0.3377
     24  N7       -43.8000   89.7080   35.7940 N.2   381  ATP381     -0.2095
     25  C5       -44.4910   90.4890   34.8930 C.2   381  ATP381      0.2526
     26  C6       -45.0530   91.7840   35.0020 C.2   381  ATP381      0.4393
     27  N6       -44.9700   92.4600   36.1390 N.pl3 381  ATP381      0.2180
     28  N1       -45.6910   92.3120   33.9140 N.2   381  ATP381      0.0021
     29  C2       -45.7630   91.6030   32.7690 C.3   381  ATP381      0.5254
     30  N3       -45.2720   90.3690   32.5290 N.2   381  ATP381     -0.0055
     31  C4       -44.6280   89.8650   33.6570 C.2   381  ATP381      0.3518
@<TRIPOS>BOND
     1    20    19    1
     2    18    17    1
     3    17    19    1
     4    17    15    1
     5    19    21    1
     6    30    29    1
     7    30    31    2
     8    21    16    1
     9    21    22    1
    10    29    28    1
    11    15    16    1
    12    15    14    1
    13     2     1    2
    14     4     1    1
    15    31    22    1
    16    31    25    1
    17    14    13    1
    18    22    23    1
    19     3     1    1
    20     1     8    1
    21    28    26    2
    22    25    26    1
    23    25    24    2
    24    26    27    1
    25    23    24    1
    26    13     9    1
    27     8     5    1
    28     6     5    2
    29    12     5    1
    30    12     9    1
    31     5     7    1
    32    11     9    2
    33     9    10    1
