@<TRIPOS>MOLECULE
1fq9_SGN_A_1.pdb
 20 20 0 0 0
SMALL
GASTEIGER

@<TRIPOS>ATOM
      1  C1        81.5580   21.4360  106.4500 C.3   304  SGN304      0.2895
      2  C2        81.5010   22.2960  107.7180 C.3   304  SGN304      0.1858
      3  C3        81.7470   23.7550  107.3810 C.3   304  SGN304      0.2073
      4  C4        83.1270   23.8560  106.7330 C.3   304  SGN304      0.2133
      5  C5        83.1090   23.0160  105.4620 C.3   304  SGN304      0.1826
      6  C6        84.4370   23.0550  104.7390 C.3   304  SGN304      0.2046
      7  N         80.1540   22.2100  108.2040 N.3   304  SGN304     -0.1129
      8  O1        80.5070   21.8290  105.5970 O.3   304  SGN304     -0.1882
      9  O3        81.7110   24.5140  108.5700 O.3   304  SGN304     -0.2186
     10  O4        83.3670   25.2050  106.3930 O.3   304  SGN304     -0.2176
     11  O5        82.8250   21.6470  105.8160 O.3   304  SGN304     -0.3245
     12  O6        85.1900   21.8940  105.0710 O.3   304  SGN304     -0.2384
     13  S1        79.6920   20.7190  109.0040 S.3   304  SGN304     -0.1288
     14  O1S       79.5240   19.6690  108.0470 O.3   304  SGN304     -0.2918
     15  O2S       78.4690   20.9550  109.6710 O.3   304  SGN304     -0.2918
     16  O3S       80.6980   20.3660  109.9530 O.3   304  SGN304     -0.2918
     17  S2        86.8530   22.1310  105.5880 S.3   304  SGN304     -0.0001
     18  O4S       86.9310   21.8990  106.9920 O.3   304  SGN304     -0.2682
     19  O5S       87.2730   23.4790  105.2790 O.2   304  SGN304     -0.3452
     20  O6S       87.6660   21.2000  104.8550 O.2   304  SGN304     -0.3452
@<TRIPOS>BOND
     1     6    12    1
     2     6     5    1
     3    20    17    2
     4    12    17    1
     5    19    17    2
     6     5    11    1
     7     5     4    1
     8    17    18    1
     9     8     1    1
    10    11     1    1
    11    10     4    1
    12     1     2    1
    13     4     3    1
    14     3     2    1
    15     3     9    1
    16     2     7    1
    17    14    13    1
    18     7    13    1
    19    13    15    1
    20    13    16    1
