@<TRIPOS>MOLECULE
1fq9_IDS_A_1.pdb
 15 15 0 0 0
SMALL
GASTEIGER

@<TRIPOS>ATOM
      1  C1        84.5360   25.8250  106.8600 C.3   303  IDS303      0.1772
      2  C2        84.6270   27.1890  106.1470 C.3   303  IDS303      0.2028
      3  C3        83.8180   28.3550  106.7530 C.3   303  IDS303      0.1868
      4  C4        83.9960   28.4400  108.2850 C.3   303  IDS303      0.0768
      5  C5        83.8130   27.0510  108.8350 C.3   303  IDS303      0.2204
      6  C6        83.4600   27.0210  110.3070 C.2   303  IDS303      0.3914
      7  O2        85.9430   27.5670  105.9580 O.3   303  IDS303     -0.2385
      8  O3        82.4790   28.2020  106.4200 O.3   303  IDS303     -0.2203
      9  O5        84.5560   25.9930  108.2810 O.3   303  IDS303     -0.3422
     10  O61       82.3450   27.4430  110.6750 O.co2 303  IDS303     -0.2430
     11  O62       84.3040   26.5090  111.0720 O.co2 303  IDS303     -0.2430
     12  S         86.4640   27.4680  104.2880 S.3   303  IDS303     -0.0001
     13  O1S       87.3520   26.3500  104.1830 O.3   303  IDS303     -0.2682
     14  O2S       87.1490   28.6850  103.9610 O.2   303  IDS303     -0.3452
     15  O3S       85.2860   27.2700  103.4680 O.2   303  IDS303     -0.3452
@<TRIPOS>BOND
     1    15    12    2
     2    14    12    2
     3    13    12    1
     4    12     7    1
     5     7     2    1
     6     2     3    1
     7     2     1    1
     8     8     3    1
     9     3     4    1
    10     1     9    1
    11     9     5    1
    12     4     5    1
    13     5     6    1
    14     6    10   ar
    15     6    11   ar
