@<TRIPOS>MOLECULE
1fq9_UAP_A_1.pdb
 15 15 0 0 0
SMALL
GASTEIGER

@<TRIPOS>ATOM
      1  C1        89.6950   29.3980  112.6820 C.3   301  UAP301      0.1772
      2  C2        90.2190   28.2870  113.5820 C.3   301  UAP301      0.2028
      3  C3        90.9460   27.1120  112.9250 C.3   301  UAP301      0.1868
      4  C4        91.7540   27.4650  111.6520 C.3   301  UAP301      0.0768
      5  C5        91.5990   28.9110  111.2020 C.3   301  UAP301      0.2204
      6  C6        92.6010   29.3620  110.1480 C.2   301  UAP301      0.3914
      7  O2        91.0740   28.8250  114.5420 O.3   301  UAP301     -0.2385
      8  O3        89.9930   26.1610  112.6130 O.3   301  UAP301     -0.2203
      9  O5        90.7090   29.8450  111.7720 O.3   301  UAP301     -0.3422
     10  O61       93.4220   28.5540  109.6730 O.co2 301  UAP301     -0.2430
     11  O62       92.5620   30.5670  109.8360 O.co2 301  UAP301     -0.2430
     12  S         90.4390   28.6800  116.1680 S.3   301  UAP301     -0.0001
     13  O1S       91.3310   29.3560  117.0280 O.3   301  UAP301     -0.2682
     14  O2S       90.3790   27.2940  116.5210 O.2   301  UAP301     -0.3452
     15  O3S       89.1430   29.3050  116.1740 O.2   301  UAP301     -0.3452
@<TRIPOS>BOND
     1    10     6   ar
     2    11     6   ar
     3     6     5    1
     4     5     4    1
     5     5     9    1
     6     4     3    1
     7     9     1    1
     8     8     3    1
     9     1     2    1
    10     3     2    1
    11     2     7    1
    12     7    12    1
    13    12    15    2
    14    12    14    2
    15    12    13    1
