@<TRIPOS>MOLECULE
1fqa_SOR_A_1.pdb
 12 11 0 0 0
SMALL
GASTEIGER

@<TRIPOS>ATOM
      1  C1        18.6340    9.5700   12.2330 C.3   1000  SOR1000     0.2175
      2  C2        18.7630    8.2880   11.4390 C.3   1000  SOR1000     0.2175
      3  C3        19.3840    8.5220   10.0610 C.3   1000  SOR1000     0.2175
      4  C4        19.0720    7.3620    9.1140 C.3   1000  SOR1000     0.2175
      5  C5        19.6610    7.6090    7.7250 C.3   1000  SOR1000     0.2175
      6  C6        19.1020    8.8390    7.0410 C.3   1000  SOR1000     0.2175
      7  O1        17.7770   10.4890   11.5760 O.3   1000  SOR1000    -0.2175
      8  O2        19.5490    7.3560   12.1660 O.3   1000  SOR1000    -0.2175
      9  O3        20.7910    8.6730   10.1870 O.3   1000  SOR1000    -0.2175
     10  O4        19.6200    6.1450    9.6510 O.3   1000  SOR1000    -0.2175
     11  O5        21.0760    7.7050    7.8100 O.3   1000  SOR1000    -0.2175
     12  O6        18.4810    8.4980    5.8110 O.3   1000  SOR1000    -0.2175
@<TRIPOS>BOND
     1    12     6    1
     2     6     5    1
     3     5    11    1
     4     5     4    1
     5     4    10    1
     6     4     3    1
     7     3     9    1
     8     3     2    1
     9     2     8    1
    10     2     1    1
    11     7     1    1
