@<TRIPOS>MOLECULE
1fqa_GLC_A_1.pdb
 11 11 0 0 0
SMALL
GASTEIGER

@<TRIPOS>ATOM
      1  C1        18.8870    4.9700    9.4620 C.3   1001  GLC1001     0.1777
      2  C2        19.3120    3.9990   10.5680 C.3   1001  GLC1001     0.2141
      3  C3        20.7560    3.5500   10.3490 C.3   1001  GLC1001     0.2173
      4  C4        20.9430    2.9900    8.9320 C.3   1001  GLC1001     0.2142
      5  C5        20.4350    3.9930    7.8900 C.3   1001  GLC1001     0.1810
      6  C6        20.4530    3.4470    6.4770 C.3   1001  GLC1001     0.2141
      7  O2        19.2050    4.6360   11.8320 O.3   1001  GLC1001    -0.2176
      8  O3        21.0960    2.5580   11.3070 O.3   1001  GLC1001    -0.2175
      9  O4        22.3390    2.7330    8.7070 O.3   1001  GLC1001    -0.2176
     10  O5        19.0720    4.3670    8.1830 O.3   1001  GLC1001    -0.3481
     11  O6        20.5630    4.4960    5.5230 O.3   1001  GLC1001    -0.2176
@<TRIPOS>BOND
     1    11     6    1
     2     6     5    1
     3     5    10    1
     4     5     4    1
     5    10     1    1
     6     9     4    1
     7     4     3    1
     8     1     2    1
     9     3     2    1
    10     3     8    1
    11     2     7    1
