@<TRIPOS>MOLECULE
1fqb_GLC_A_1.pdb
 11 11 0 0 0
SMALL
GASTEIGER

@<TRIPOS>ATOM
      1  C1        19.0120    4.9940    9.3800 C.3   1001  GLC1001     0.1777
      2  C2        19.4680    4.0040   10.4540 C.3   1001  GLC1001     0.2141
      3  C3        20.9180    3.5920   10.1950 C.3   1001  GLC1001     0.2173
      4  C4        21.0760    3.0600    8.7660 C.3   1001  GLC1001     0.2142
      5  C5        20.5200    4.0580    7.7430 C.3   1001  GLC1001     0.1810
      6  C6        20.4840    3.4800    6.3400 C.3   1001  GLC1001     0.2141
      7  O2        19.3630    4.6110   11.7330 O.3   1001  GLC1001    -0.2176
      8  O3        21.3020    2.5870   11.1220 O.3   1001  GLC1001    -0.2175
      9  O4        22.4670    2.8260    8.4940 O.3   1001  GLC1001    -0.2176
     10  O5        19.1650    4.4170    8.0860 O.3   1001  GLC1001    -0.3481
     11  O6        20.6340    4.4960    5.3600 O.3   1001  GLC1001    -0.2176
@<TRIPOS>BOND
     1    11     6    1
     2     6     5    1
     3     5    10    1
     4     5     4    1
     5    10     1    1
     6     9     4    1
     7     4     3    1
     8     1     2    1
     9     3     2    1
    10     3     8    1
    11     2     7    1
