@<TRIPOS>MOLECULE
1fqb_SOR_A_1.pdb
 12 11 0 0 0
SMALL
GASTEIGER

@<TRIPOS>ATOM
      1  C1        18.6880    9.5960   12.2360 C.3   1000  SOR1000     0.2175
      2  C2        18.6790    8.3270   11.4090 C.3   1000  SOR1000     0.2175
      3  C3        19.2720    8.5300   10.0140 C.3   1000  SOR1000     0.2175
      4  C4        18.9700    7.3260    9.1250 C.3   1000  SOR1000     0.2175
      5  C5        19.3380    7.5980    7.6650 C.3   1000  SOR1000     0.2175
      6  C6        18.5570    8.7400    7.0470 C.3   1000  SOR1000     0.2175
      7  O1        17.8950   10.6050   11.6310 O.3   1000  SOR1000    -0.2175
      8  O2        19.4010    7.3130   12.0930 O.3   1000  SOR1000    -0.2175
      9  O3        20.6760    8.7010   10.1160 O.3   1000  SOR1000    -0.2175
     10  O4        19.7080    6.1860    9.5990 O.3   1000  SOR1000    -0.2175
     11  O5        20.7330    7.8470    7.5520 O.3   1000  SOR1000    -0.2175
     12  O6        18.7510    8.7850    5.6430 O.3   1000  SOR1000    -0.2175
@<TRIPOS>BOND
     1    12     6    1
     2     6     5    1
     3    11     5    1
     4     5     4    1
     5     4    10    1
     6     4     3    1
     7     3     9    1
     8     3     2    1
     9     2     8    1
    10     2     1    1
    11     7     1    1
