@<TRIPOS>MOLECULE
1fqc_GLO_A_1.pdb
 12 11 0 0 0
SMALL
GASTEIGER

@<TRIPOS>ATOM
      1  C1         4.3880   12.7950   39.8490 C.2   1000  GLO1000     0.2427
      2  C2         5.1850   13.8990   39.1630 C.3   1000  GLO1000     0.2486
      3  C3         5.4020   13.5330   37.6410 C.3   1000  GLO1000     0.2225
      4  C4         6.2740   14.5350   36.8070 C.3   1000  GLO1000     0.2179
      5  C5         6.6840   15.9230   37.2880 C.3   1000  GLO1000     0.2175
      6  C6         7.5460   16.7230   36.2860 C.3   1000  GLO1000     0.2175
      7  O1         4.0910   12.8210   41.0380 O.2   1000  GLO1000    -0.2854
      8  O2         4.4570   15.0820   39.2880 O.3   1000  GLO1000    -0.2118
      9  O3         4.1330   13.3520   36.9750 O.3   1000  GLO1000    -0.2171
     10  O4         7.3600   13.7820   36.1970 O.3   1000  GLO1000    -0.2175
     11  O5         5.5000   16.6500   37.4200 O.3   1000  GLO1000    -0.2175
     12  O6         8.0930   17.9360   36.8120 O.3   1000  GLO1000    -0.2175
@<TRIPOS>BOND
     1    10     4    1
     2     6    12    1
     3     6     5    1
     4     4     5    1
     5     4     3    1
     6     9     3    1
     7     5    11    1
     8     3     2    1
     9     2     8    1
    10     2     1    1
    11     1     7    2
