@<TRIPOS>MOLECULE
1fqc_GLC_A_1.pdb
 11 11 0 0 0
SMALL
GASTEIGER

@<TRIPOS>ATOM
      1  C1         8.5630   13.3010   36.7710 C.3   1001  GLC1001     0.1777
      2  C2         8.5230   12.7290   38.1980 C.3   1001  GLC1001     0.2141
      3  C3         8.7640   13.8120   39.2450 C.3   1001  GLC1001     0.2173
      4  C4        10.0180   14.6440   38.8890 C.3   1001  GLC1001     0.2142
      5  C5         9.8870   15.1680   37.4730 C.3   1001  GLC1001     0.1810
      6  C6        11.0210   15.9860   36.9620 C.3   1001  GLC1001     0.2141
      7  O2         7.3230   12.0290   38.4730 O.3   1001  GLC1001    -0.2176
      8  O3         8.9130   13.2060   40.5250 O.3   1001  GLC1001    -0.2175
      9  O4        10.0820   15.7810   39.7510 O.3   1001  GLC1001    -0.2176
     10  O5         9.7070   14.1060   36.5410 O.3   1001  GLC1001    -0.3481
     11  O6        10.7320   16.4120   35.6440 O.3   1001  GLC1001    -0.2176
@<TRIPOS>BOND
     1    11     6    1
     2    10     1    1
     3    10     5    1
     4     1     2    1
     5     6     5    1
     6     5     4    1
     7     2     7    1
     8     2     3    1
     9     4     3    1
    10     4     9    1
    11     3     8    1
