@<TRIPOS>MOLECULE
1fqd_GLC_A_1.pdb
 11 11 0 0 0
SMALL
GASTEIGER

@<TRIPOS>ATOM
      1  C1         8.0560   13.2000   36.6170 C.3   1001  GLC1001     0.1777
      2  C2         8.0690   12.4980   37.9990 C.3   1001  GLC1001     0.2141
      3  C3         8.3920   13.4690   39.1230 C.3   1001  GLC1001     0.2173
      4  C4         9.6120   14.3410   38.8060 C.3   1001  GLC1001     0.2142
      5  C5         9.5520   14.9390   37.3840 C.3   1001  GLC1001     0.1810
      6  C6        10.7540   15.6890   36.8760 C.3   1001  GLC1001     0.2141
      7  O2         6.8600   11.8170   38.2570 O.3   1001  GLC1001    -0.2176
      8  O3         8.6170   12.7640   40.3330 O.3   1001  GLC1001    -0.2175
      9  O4         9.5960   15.4290   39.7390 O.3   1001  GLC1001    -0.2176
     10  O5         9.2510   13.9500   36.3870 O.3   1001  GLC1001    -0.3481
     11  O6        10.5210   16.1090   35.5400 O.3   1001  GLC1001    -0.2176
@<TRIPOS>BOND
     1    11     6    1
     2    10     1    1
     3    10     5    1
     4     1     2    1
     5     6     5    1
     6     5     4    1
     7     2     7    1
     8     2     3    1
     9     4     3    1
    10     4     9    1
    11     3     8    1
