@<TRIPOS>MOLECULE
1fqd_GLO_A_1.pdb
 12 11 0 0 0
SMALL
GASTEIGER

@<TRIPOS>ATOM
      1  C1         3.4380   12.6740   39.4820 C.2   1000  GLO1000     0.2427
      2  C2         4.4640   13.7300   39.0330 C.3   1000  GLO1000     0.2486
      3  C3         4.8170   13.5710   37.4860 C.3   1000  GLO1000     0.2225
      4  C4         5.8690   14.5930   36.8630 C.3   1000  GLO1000     0.2179
      5  C5         6.5270   15.7650   37.6330 C.3   1000  GLO1000     0.2175
      6  C6         7.4360   16.6840   36.7330 C.3   1000  GLO1000     0.2175
      7  O1         3.0020   12.6140   40.6370 O.2   1000  GLO1000    -0.2854
      8  O2         3.9080   14.9690   39.3150 O.3   1000  GLO1000    -0.2118
      9  O3         3.5980   13.6400   36.7080 O.3   1000  GLO1000    -0.2171
     10  O4         6.8440   13.7830   36.1340 O.3   1000  GLO1000    -0.2175
     11  O5         5.5370   16.5150   38.2260 O.3   1000  GLO1000    -0.2175
     12  O6         7.5190   18.0750   37.0830 O.3   1000  GLO1000    -0.2175
@<TRIPOS>BOND
     1    10     4    1
     2     9     3    1
     3     6    12    1
     4     6     5    1
     5     4     3    1
     6     4     5    1
     7     3     2    1
     8     5    11    1
     9     2     8    1
    10     2     1    1
    11     1     7    2
