@<TRIPOS>MOLECULE
1fqg_PNM_A_1.pdb
 23 24 0 0 0
SMALL
GASTEIGER

@<TRIPOS>ATOM
      1  O8        38.3320   34.8550   31.6070 O.2   523  PNM523     -0.2863
      2  C7        38.5540   35.9840   31.2790 C.2   523  PNM523      0.2311
      3  N4        40.5160   35.5530   30.2160 N.3   523  PNM523     -0.1957
      4  C3        41.6450   34.6330   30.3620 C.3   523  PNM523      0.1857
      5  C11       41.6920   33.5630   29.2400 C.2   523  PNM523      0.3811
      6  O13       42.4810   32.6140   29.4000 O.co2 523  PNM523     -0.2441
      7  O12       41.1780   33.8490   28.1500 O.co2 523  PNM523     -0.2441
      8  C2        42.9250   35.5070   30.4930 C.3   523  PNM523      0.0658
      9  C10       43.9060   34.9080   31.5010 C.3   523  PNM523      0.0129
     10  C9        43.6010   35.7500   29.1620 C.3   523  PNM523      0.0129
     11  S1        42.3460   37.1240   31.1730 S.3   523  PNM523     -0.1212
     12  C5        40.6610   36.9760   30.5890 C.3   523  PNM523      0.1479
     13  C6        39.6350   36.9730   31.7570 C.3   523  PNM523      0.1855
     14  N14       40.0500   36.4520   33.0230 N.am  523  PNM523     -0.1965
     15  C15       40.5280   37.2120   34.0300 C.2   523  PNM523      0.2462
     16  O16       40.7010   38.4210   33.9000 O.2   523  PNM523     -0.2730
     17  C17       40.1910   36.6470   35.4020 C.3   523  PNM523      0.1131
     18  C18       41.4030   36.1830   36.2260 C.ar  523  PNM523     -0.0130
     19  C19       41.4230   36.4210   37.5890 C.ar  523  PNM523     -0.0038
     20  C20       42.4980   36.0060   38.3520 C.ar  523  PNM523     -0.0003
     21  C21       43.5550   35.3030   37.7520 C.ar  523  PNM523     -0.0000
     22  C22       43.5050   35.0440   36.4180 C.ar  523  PNM523     -0.0003
     23  C23       42.4570   35.4550   35.6480 C.ar  523  PNM523     -0.0038
@<TRIPOS>BOND
     1     7     5   ar
     2    10     8    1
     3     5     6   ar
     4     5     4    1
     5     3     4    1
     6     3    12    1
     7     4     8    1
     8     8    11    1
     9     8     9    1
    10    12    11    1
    11    12    13    1
    12     2     1    2
    13     2    13    1
    14    13    14    1
    15    14    15   am
    16    16    15    2
    17    15    17    1
    18    17    18    1
    19    23    18   ar
    20    23    22   ar
    21    18    19   ar
    22    22    21   ar
    23    19    20   ar
    24    21    20   ar
