@<TRIPOS>MOLECULE
1fqj_GDP_A_1.pdb
 28 30 0 0 0
SMALL
GASTEIGER

@<TRIPOS>ATOM
      1  PB        32.2840   33.7560   82.6110 P.3   360  GDP360      0.5373
      2  O1B       31.6770   34.2380   81.3510 O.2   360  GDP360     -0.2221
      3  O2B       33.1860   34.5710   83.3350 O.3   360  GDP360     -0.1143
      4  O3B       31.1530   33.1620   83.4590 O.3   360  GDP360     -0.1143
      5  O3A       32.9250   32.3590   82.4300 O.3   360  GDP360     -0.2261
      6  PA        34.3280   31.7640   82.9470 P.3   360  GDP360      0.2231
      7  O1A       35.4190   32.5070   82.2750 O.2   360  GDP360     -0.5169
      8  O2A       34.2840   31.8190   84.4550 O.3   360  GDP360     -0.4370
      9  O5'       34.1420   30.3410   82.3230 O.3   360  GDP360     -0.3111
     10  C5'       33.2370   29.3740   82.9170 C.3   360  GDP360      0.1813
     11  C4'       33.8120   28.0230   83.0310 C.3   360  GDP360      0.1799
     12  O4'       34.0080   27.5070   81.6310 O.3   360  GDP360     -0.3326
     13  C3'       35.2880   27.9960   83.5830 C.3   360  GDP360      0.2158
     14  O3'       35.4210   26.7100   84.3240 O.3   360  GDP360     -0.2175
     15  C2'       36.2540   27.9800   82.3680 C.3   360  GDP360      0.2310
     16  O2'       37.5590   27.4050   82.5160 O.3   360  GDP360     -0.2158
     17  C1'       35.4430   27.2070   81.3000 C.3   360  GDP360      0.2293
     18  N9        35.6640   27.6510   79.9170 N.pl3 360  GDP360     -0.2354
     19  C8        35.5280   29.1060   79.5880 C.3   360  GDP360      0.2246
     20  N7        35.8210   28.9050   78.2330 N.2   360  GDP360     -0.2322
     21  C5        36.0830   27.6900   77.7550 C.2   360  GDP360      0.2182
     22  C6        36.4090   26.9360   76.6120 C.1   360  GDP360      0.2372
     23  O6        36.5300   27.6380   75.4660 O.2   360  GDP360     -0.2069
     24  N1        36.5960   25.5950   76.5990 N.2   360  GDP360     -0.2485
     25  C2        36.4480   24.8530   77.8950 C.1   360  GDP360      0.2531
     26  N2        36.6690   23.5710   77.6670 N.pl3 360  GDP360     -0.0226
     27  N3        36.1550   25.4860   78.9560 N.2   360  GDP360     -0.3074
     28  C4        35.9800   26.8190   78.9080 C.2   360  GDP360      0.2300
@<TRIPOS>BOND
     1    23    22    2
     2    24    22    2
     3    24    25    2
     4    22    21    1
     5    26    25    1
     6    21    20    2
     7    21    28    1
     8    25    27    2
     9    20    19    1
    10    28    27    2
    11    28    18    1
    12    19    18    1
    13    18    17    1
    14    17    12    1
    15    17    15    1
    16     2     1    2
    17    12    11    1
    18     7     6    2
    19     9    10    1
    20     9     6    1
    21    15    16    1
    22    15    13    1
    23     5     1    1
    24     5     6    1
    25     1     3    1
    26     1     4    1
    27    10    11    1
    28     6     8    1
    29    11    13    1
    30    13    14    1
