@<TRIPOS>MOLECULE
1fqk_GDP_A_1.pdb
 28 30 0 0 0
SMALL
GASTEIGER

@<TRIPOS>ATOM
      1  PB        17.4170   44.6850  118.6010 P.3   360  GDP360      0.5373
      2  O1B       17.8050   45.2800  119.9140 O.3   360  GDP360     -0.1143
      3  O2B       16.5370   45.4340  117.7860 O.2   360  GDP360     -0.2221
      4  O3B       18.7820   44.1880  117.9960 O.3   360  GDP360     -0.1143
      5  O3A       16.6830   43.3250  118.8200 O.3   360  GDP360     -0.2261
      6  PA        15.2140   42.8020  118.3210 P.3   360  GDP360      0.2231
      7  O1A       14.1690   43.5890  119.0480 O.3   360  GDP360     -0.4370
      8  O2A       15.1630   42.9070  116.8070 O.2   360  GDP360     -0.5169
      9  O5'       15.3240   41.3680  118.9100 O.3   360  GDP360     -0.3111
     10  C5'       16.0260   40.3120  118.1700 C.3   360  GDP360      0.1813
     11  C4'       15.3160   39.0360  118.1300 C.3   360  GDP360      0.1799
     12  O4'       15.3030   38.4760  119.5110 O.3   360  GDP360     -0.3326
     13  C3'       13.7800   39.1570  117.8170 C.3   360  GDP360      0.2158
     14  O3'       13.4430   37.9640  117.0150 O.3   360  GDP360     -0.2175
     15  C2'       12.9880   39.0840  119.1410 C.3   360  GDP360      0.2310
     16  O2'       11.6670   38.4840  119.1050 O.3   360  GDP360     -0.2158
     17  C1'       13.9310   38.2670  120.0730 C.3   360  GDP360      0.2293
     18  N9        13.9680   38.7180  121.5030 N.pl3 360  GDP360     -0.2354
     19  C8        14.3260   40.1340  121.8060 C.3   360  GDP360      0.2246
     20  N7        14.2050   39.9450  123.1960 N.2   360  GDP360     -0.2322
     21  C5        13.8710   38.7710  123.7060 C.2   360  GDP360      0.2182
     22  C6        13.6270   38.0440  124.8800 C.1   360  GDP360      0.2372
     23  O6        13.7640   38.7370  126.0360 O.2   360  GDP360     -0.2069
     24  N1        13.2770   36.7380  124.9240 N.2   360  GDP360     -0.2485
     25  C2        13.1400   36.0160  123.6300 C.1   360  GDP360      0.2531
     26  N2        12.7810   34.7630  123.8740 N.pl3 360  GDP360     -0.0226
     27  N3        13.3540   36.6220  122.5550 N.2   360  GDP360     -0.3074
     28  C4        13.7000   37.9180  122.5630 C.2   360  GDP360      0.2300
@<TRIPOS>BOND
     1     8     6    2
     2    14    13    1
     3     3     1    2
     4    13    11    1
     5    13    15    1
     6     4     1    1
     7    11    10    1
     8    11    12    1
     9    10     9    1
    10     6     5    1
    11     6     9    1
    12     6     7    1
    13     1     5    1
    14     1     2    1
    15    16    15    1
    16    15    17    1
    17    12    17    1
    18    17    18    1
    19    18    19    1
    20    18    28    1
    21    19    20    1
    22    27    28    2
    23    27    25    2
    24    28    21    1
    25    20    21    2
    26    25    26    1
    27    25    24    2
    28    21    22    1
    29    22    24    2
    30    22    23    2
