@<TRIPOS>MOLECULE
1fqo_F6R_A_1.pdb
 16 15 0 0 0
SMALL
GASTEIGER

@<TRIPOS>ATOM
      1  C1        17.3300   10.3680   19.3010 C.3   1267  F6R1267     0.2175
      2  C2        18.4600    9.7530   20.0160 C.3   1267  F6R1267     0.2175
      3  C3        18.4840   10.9070   21.0240 C.3   1267  F6R1267     0.2175
      4  C4        17.2000   11.3540   21.6930 C.3   1267  F6R1267     0.2174
      5  C5        15.9400   10.5180   21.3320 C.3   1267  F6R1267     0.2147
      6  C6        15.4390    9.6130   22.4040 C.3   1267  F6R1267     0.1892
      7  O1        16.2030    9.5370   18.9830 O.3   1267  F6R1267    -0.2175
      8  O2        19.2360    9.6150   18.9730 O.3   1267  F6R1267    -0.2175
      9  O3        19.6600   11.3270   21.8080 O.3   1267  F6R1267    -0.2175
     10  O4        17.3640   11.4650   23.0700 O.3   1267  F6R1267    -0.2175
     11  O5        14.8630   11.3260   20.9200 O.3   1267  F6R1267    -0.2176
     12  O6        15.1550    8.4130   22.1140 O.3   1267  F6R1267    -0.2674
     13  P         13.9450    7.7970   21.4560 P.3   1267  F6R1267     0.5327
     14  O1P       12.6850    8.2600   21.8850 O.3   1267  F6R1267    -0.1145
     15  O2P       14.2290    6.4370   22.0130 O.3   1267  F6R1267    -0.1145
     16  O3P       14.2700    7.9400   20.0670 O.2   1267  F6R1267    -0.2224
@<TRIPOS>BOND
     1     8     2    1
     2     7     1    1
     3     1     2    1
     4     2     3    1
     5    16    13    2
     6    11     5    1
     7     3     4    1
     8     3     9    1
     9     5     4    1
    10     5     6    1
    11    13    14    1
    12    13    15    1
    13    13    12    1
    14     4    10    1
    15    12     6    1
