@<TRIPOS>MOLECULE
1fr6_AZR_A_1.pdb
 28 28 0 0 0
SMALL
GASTEIGER

@<TRIPOS>ATOM
      1  C7        48.2310   33.9010    1.4960 C.3   362  AZR362      0.0230
      2  S8        52.8700   39.1170   -2.4080 S.3   362  AZR362     -0.0564
      3  O9        46.6480   36.1220   -2.3480 O.2   362  AZR362     -0.2864
      4  O10       50.6470   35.0580    0.0900 O.2   362  AZR362     -0.2665
      5  O11       48.8280   37.9600    1.8110 O.2   362  AZR362     -0.3735
      6  N12       46.1700   33.6480    0.0790 N.3   362  AZR362     -0.1187
      7  N13       48.8160   36.2650   -0.4060 N.am  362  AZR362     -0.1925
      8  N14       50.0230   38.3230    1.1880 N.2   362  AZR362     -0.0757
      9  N15       51.4320   39.6900   -0.4990 N.2   362  AZR362     -0.3794
     10  N16       52.3900   41.5870   -1.5800 N.pl3 362  AZR362     -0.0867
     11  S17       44.6750   34.4210    0.0370 S.3   362  AZR362     -0.1290
     12  C18       47.3810   34.4120    0.3530 C.3   362  AZR362      0.1215
     13  C19       48.0810   35.0550   -0.8100 C.3   362  AZR362      0.1775
     14  C20       47.3310   35.1440   -2.0740 C.2   362  AZR362      0.2302
     15  C21       50.1050   36.1660    0.0380 C.2   362  AZR362      0.2884
     16  C22       50.6070   37.5120    0.3910 C.2   362  AZR362      0.2002
     17  C23       48.8870   37.9650    3.2380 C.3   362  AZR362      0.2530
     18  C24       51.4190   38.3200   -0.5670 C.2   362  AZR362      0.1478
     19  C25       52.1800   37.8120   -1.5860 C.3   362  AZR362      0.1266
     20  C26       52.1820   40.2510   -1.4210 C.2   362  AZR362      0.2461
     21  C27       47.8070   38.8560    3.8110 C.3   362  AZR362      0.0583
     22  C28       48.5130   36.5560    3.7330 C.3   362  AZR362      0.0583
     23  C29       50.3470   38.3460    3.5520 C.2   362  AZR362      0.4027
     24  O30       51.3070   37.5910    3.2300 O.co2 362  AZR362     -0.2417
     25  O31       50.7040   39.3800    4.1240 O.co2 362  AZR362     -0.2417
     26  O32       43.9720   33.7490   -1.2060 O.3   362  AZR362     -0.2919
     27  O33       44.8260   35.9260   -0.0110 O.3   362  AZR362     -0.2919
     28  O34       43.8910   33.9610    1.3380 O.3   362  AZR362     -0.2919
@<TRIPOS>BOND
     1     2    19    1
     2     2    20    1
     3     3    14    2
     4    14    13    1
     5    19    18    1
     6    10    20    1
     7    20     9    2
     8    26    11    1
     9    13     7    1
    10    13    12    1
    11    18     9    2
    12    18    16    1
    13     7    15   am
    14    27    11    1
    15    11     6    1
    16    11    28    1
    17    15     4    2
    18    15    16    1
    19     6    12    1
    20    12     1    1
    21    16     8    2
    22     8     5    1
    23     5    17    1
    24    24    23   ar
    25    17    23    1
    26    17    22    1
    27    17    21    1
    28    23    25   ar
