@<TRIPOS>MOLECULE
1fr8_GDU_A_1.pdb
 25 26 0 0 0
SMALL
GASTEIGER

@<TRIPOS>ATOM
      1  N1        14.0090   19.2740    7.2290 N.am  100  GDU100     -0.1766
      2  C2        14.3130   19.2680    5.8930 C.1   100  GDU100      0.2845
      3  N3        13.2820   18.9320    5.0560 N.2   100  GDU100     -0.2452
      4  C4        11.9630   18.5910    5.4270 C.1   100  GDU100      0.2182
      5  C5        11.7310   18.6070    6.8610 C.2   100  GDU100      0.1242
      6  C6        12.7170   18.9380    7.6960 C.2   100  GDU100      0.0929
      7  O2        15.4470   19.5640    5.5720 O.2   100  GDU100     -0.1918
      8  O4        11.1190   18.3050    4.5520 O.2   100  GDU100     -0.2085
      9  C1D       15.1340   19.6900    8.0700 C.3   100  GDU100      0.2401
     10  C2D       15.1790   21.0420    8.7500 C.3   100  GDU100      0.2319
     11  O2D       15.3910   22.2130    7.9330 O.3   100  GDU100     -0.2157
     12  C3D       16.2330   20.7490    9.7320 C.3   100  GDU100      0.2158
     13  C4D       15.6060   19.4830   10.3340 C.3   100  GDU100      0.1799
     14  O4D       15.3620   18.7660    9.0820 O.3   100  GDU100     -0.3320
     15  O3D       17.4360   20.4140    9.0010 O.3   100  GDU100     -0.2175
     16  C5D       14.3170   19.6850   11.1850 C.3   100  GDU100      0.1813
     17  O5D       13.1610   20.2940   10.5460 O.3   100  GDU100     -0.3111
     18  PA        11.6920   20.5750   11.1480 P.3   100  GDU100      0.2231
     19  O1A       10.9380   21.7430   10.6490 O.2   100  GDU100     -0.5169
     20  O2A       11.2410   19.9850   12.4700 O.3   100  GDU100     -0.4370
     21  O3A       12.6910   21.6230   12.0450 O.3   100  GDU100     -0.2261
     22  PB        12.4450   22.4170   13.4250 P.3   100  GDU100      0.5373
     23  O1B       13.7200   23.3220   13.8620 O.2   100  GDU100     -0.2221
     24  O2B       11.2850   22.0670   14.3450 O.3   100  GDU100     -0.1143
     25  O3B       12.8220   21.1420   14.1470 O.3   100  GDU100     -0.1143
@<TRIPOS>BOND
     1     8     4    2
     2     3     4    2
     3     3     2    2
     4     4     5    1
     5     7     2    2
     6     2     1   am
     7     5     6    2
     8     1     6    1
     9     1     9    1
    10    11    10    1
    11     9    10    1
    12     9    14    1
    13    10    12    1
    14    15    12    1
    15    14    13    1
    16    12    13    1
    17    13    16    1
    18    17    18    1
    19    17    16    1
    20    19    18    2
    21    18    21    1
    22    18    20    1
    23    21    22    1
    24    22    23    2
    25    22    25    1
    26    22    24    1
