@<TRIPOS>MOLECULE
1frb_ZST_A_1.pdb
 29 32 0 0 0
SMALL
GASTEIGER

@<TRIPOS>ATOM
      1  C1        76.7250   -4.2660   23.8110 C.ar  351  ZST351      0.2767
      2  O1        76.2640   -3.7050   22.8110 O.2   351  ZST351     -0.2655
      3  C2        76.2040   -5.4940   24.3900 C.ar  351  ZST351      0.0588
      4  C3        76.8780   -6.1000   25.4580 C.ar  351  ZST351      0.0204
      5  C4        78.0910   -5.4670   25.9330 C.ar  351  ZST351      0.0902
      6  C5        75.0250   -6.0580   23.9030 C.ar  351  ZST351      0.0048
      7  C6        74.5140   -7.1920   24.4960 C.ar  351  ZST351      0.0002
      8  C7        75.1790   -7.7940   25.5510 C.ar  351  ZST351      0.0000
      9  C8        76.3510   -7.2630   26.0330 C.ar  351  ZST351      0.0014
     10  N1        77.8430   -3.7700   24.4180 N.ar  351  ZST351     -0.2091
     11  N2        78.5480   -4.3530   25.4590 N.ar  351  ZST351     -0.1702
     12  C9        78.2660   -2.3980   24.1280 C.3   351  ZST351      0.1956
     13  C10       77.4510   -1.4510   24.9900 C.2   351  ZST351      0.1594
     14  C11       75.7930   -0.4450   26.4960 C.3   351  ZST351      0.1279
     15  C12       76.7490    0.4320   25.9680 C.2   351  ZST351      0.1234
     16  C13       74.7980    0.0210   27.3720 C.2   351  ZST351     -0.0083
     17  C14       74.7890    1.3480   27.7040 C.2   351  ZST351      0.0006
     18  C15       75.7520    2.2230   27.1900 C.2   351  ZST351      0.0734
     19  C16       76.7260    1.7880   26.3170 C.2   351  ZST351      0.0326
     20  N3        77.6810   -0.1830   25.1060 N.2   351  ZST351     -0.4012
     21  S1        76.0950   -2.0330   25.9250 S.3   351  ZST351     -0.0740
     22  C17       78.9220   -6.0960   27.0140 C.3   351  ZST351      0.1613
     23  C18       78.4540   -5.7380   28.3900 C.2   351  ZST351      0.3709
     24  O2        77.5440   -4.8870   28.5070 O.co2 351  ZST351     -0.2452
     25  O3        78.9670   -6.2710   29.3990 O.co2 351  ZST351     -0.2452
     26  C19       75.7480    3.6430   27.6980 C.3   351  ZST351      0.4186
     27  F1        75.9720    3.7240   29.0010 F     351  ZST351     -0.1659
     28  F2        74.5920    4.2480   27.4620 F     351  ZST351     -0.1659
     29  F3        76.6670    4.4230   27.1390 F     351  ZST351     -0.1659
@<TRIPOS>BOND
     1     2     1    2
     2     1     3   ar
     3     1    10   ar
     4     6     3   ar
     5     6     7   ar
     6    12    10    1
     7    12    13    1
     8     3     4   ar
     9    10    11   ar
    10     7     8   ar
    11    13    20    2
    12    13    21    1
    13    20    15    2
    14     4     5   ar
    15     4     9   ar
    16    11     5   ar
    17     8     9   ar
    18    21    14    1
    19     5    22    1
    20    15    19    1
    21    15    14    1
    22    19    18    2
    23    14    16    1
    24    22    23    1
    25    29    26    1
    26    18    26    1
    27    18    17    1
    28    16    17    2
    29    28    26    1
    30    26    27    1
    31    23    24   ar
    32    23    25   ar
