@<TRIPOS>MOLECULE
1frb_NAP_A_1.pdb
 48 52 0 0 0
SMALL
GASTEIGER

@<TRIPOS>ATOM
      1  PA        88.0400  -10.8310   25.3500 P.3   350  NAP350      0.2189
      2  O1A       88.9510   -9.7060   25.0810 O.2   350  NAP350     -0.5170
      3  O2A       88.1830  -11.5950   26.5980 O.3   350  NAP350     -0.4371
      4  O5B       88.1910  -11.8380   24.1050 O.3   350  NAP350     -0.3112
      5  C5B       87.3630  -13.0000   23.9240 C.3   350  NAP350      0.1813
      6  C4B       87.7280  -13.6550   22.5930 C.3   350  NAP350      0.1820
      7  O4B       89.1050  -14.0400   22.6330 O.3   350  NAP350     -0.3136
      8  C3B       86.9370  -14.9210   22.2960 C.3   350  NAP350      0.2157
      9  O3B       86.6770  -14.9050   20.8810 O.3   350  NAP350     -0.2175
     10  C2B       87.8720  -16.0730   22.6660 C.3   350  NAP350      0.2314
     11  O2B       87.6700  -17.2070   21.8130 O.3   350  NAP350     -0.2630
     12  C1B       89.2250  -15.4310   22.3220 C.3   350  NAP350      0.3158
     13  N9A       90.3470  -15.9940   23.0890 N.pl3 350  NAP350     -0.1439
     14  C8A       90.4350  -16.1880   24.4420 C.3   350  NAP350      0.3377
     15  N7A       91.6010  -16.5810   24.8390 N.2   350  NAP350     -0.2095
     16  C5A       92.3550  -16.6610   23.6630 C.2   350  NAP350      0.2526
     17  C6A       93.6950  -17.0260   23.3890 C.2   350  NAP350      0.4393
     18  N6A       94.5910  -17.3520   24.3350 N.pl3 350  NAP350      0.2180
     19  N1A       94.0920  -16.9970   22.0930 N.2   350  NAP350      0.0021
     20  C2A       93.2360  -16.6200   21.1590 C.3   350  NAP350      0.5254
     21  N3A       91.9710  -16.2540   21.2870 N.2   350  NAP350     -0.0055
     22  C4A       91.5880  -16.3010   22.5870 C.2   350  NAP350      0.3518
     23  O3        86.5530  -10.2780   24.9770 O.3   350  NAP350     -0.2703
     24  PN        85.3180   -9.9190   25.9850 P.3   350  NAP350      0.2189
     25  O1N       84.4620  -11.1180   26.0920 O.3   350  NAP350     -0.4371
     26  O2N       84.7050   -8.7070   25.4020 O.2   350  NAP350     -0.5170
     27  O5D       85.8810   -9.4580   27.4240 O.3   350  NAP350     -0.3112
     28  C5D       86.0620  -10.4100   28.4780 C.3   350  NAP350      0.1813
     29  C4D       84.9660  -10.3600   29.5340 C.3   350  NAP350      0.1799
     30  O4D       84.8720   -9.0390   30.1080 O.3   350  NAP350     -0.3327
     31  C3D       83.5910  -10.5910   28.9380 C.3   350  NAP350      0.2158
     32  O3D       83.3230  -11.9590   28.5990 O.3   350  NAP350     -0.2175
     33  C2D       82.7130  -10.0400   30.0400 C.3   350  NAP350      0.2309
     34  O2D       82.7050  -10.9670   31.1390 O.3   350  NAP350     -0.2158
     35  C1D       83.4940   -8.7890   30.4500 C.3   350  NAP350      0.2263
     36  N1N       83.0060   -7.5510   29.7760 N.pl3 350  NAP350     -0.2787
     37  C2N       82.3760   -6.6270   30.5820 C.3   350  NAP350      0.1244
     38  C3N       81.8140   -5.4610   29.9540 C.2   350  NAP350      0.0544
     39  C7N       81.1260   -4.4540   30.7460 C.2   350  NAP350      0.2818
     40  O7N       80.5610   -3.4820   30.2480 O.2   350  NAP350     -0.2670
     41  N7N       81.1170   -4.5580   32.0860 N.am  350  NAP350     -0.0839
     42  C4N       81.9390   -5.3060   28.6030 C.2   350  NAP350      0.0033
     43  C5N       82.6050   -6.2080   27.8430 C.2   350  NAP350      0.0157
     44  C6N       83.1300   -7.3120   28.4240 C.2   350  NAP350      0.0633
     45  P2B       86.9710  -18.5330   22.4550 P.3   350  NAP350      0.5328
     46  O1X       85.9480  -18.0730   23.4250 O.3   350  NAP350     -0.1145
     47  O2X       86.4100  -19.1810   21.2510 O.2   350  NAP350     -0.2224
     48  O3X       88.0720  -19.3280   23.0450 O.3   350  NAP350     -0.1145
@<TRIPOS>BOND
     1     9     8    1
     2    20    21    1
     3    20    19    1
     4    47    45    2
     5    21    22    2
     6    11    45    1
     7    11    10    1
     8    19    17    2
     9     8     6    1
    10     8    10    1
    11    12     7    1
    12    12    10    1
    13    12    13    1
    14    45    48    1
    15    45    46    1
    16    22    13    1
    17    22    16    1
    18     6     7    1
    19     6     5    1
    20    13    14    1
    21    17    16    1
    22    17    18    1
    23    16    15    2
    24     5     4    1
    25     4     1    1
    26    14    15    1
    27    23     1    1
    28    23    24    1
    29     2     1    2
    30     1     3    1
    31    26    24    2
    32    24    25    1
    33    24    27    1
    34    27    28    1
    35    43    44    2
    36    43    42    1
    37    44    36    1
    38    28    29    1
    39    32    31    1
    40    42    38    2
    41    31    29    1
    42    31    33    1
    43    29    30    1
    44    36    35    1
    45    36    37    1
    46    38    37    1
    47    38    39    1
    48    33    35    1
    49    33    34    1
    50    30    35    1
    51    40    39    2
    52    39    41   am
