@<TRIPOS>MOLECULE
1fro_GSB_A_1.pdb
 27 27 0 0 0
SMALL
GASTEIGER

@<TRIPOS>ATOM
      1  N1        76.1560   36.2740    1.1960 N.3   200  GSB200     -0.1208
      2  CA1       74.9930   36.1170    0.2850 C.3   200  GSB200      0.1948
      3  C1        73.7530   35.9350    1.1570 C.2   200  GSB200      0.3819
      4  O11       73.8960   35.4590    2.3010 O.co2 200  GSB200     -0.2441
      5  O12       72.6560   36.3010    0.7120 O.co2 200  GSB200     -0.2441
      6  CB1       75.1990   34.8980   -0.6200 C.3   200  GSB200      0.0402
      7  CG1       74.1690   34.7070   -1.7390 C.3   200  GSB200      0.0889
      8  CD1       74.1800   35.8210   -2.7820 C.2   200  GSB200      0.2418
      9  OE1       74.9010   36.8060   -2.6400 O.2   200  GSB200     -0.2733
     10  N2        73.4100   35.6470   -3.8520 N.am  200  GSB200     -0.1969
     11  CA2       73.3230   36.6550   -4.9040 C.3   200  GSB200      0.1834
     12  C2        72.3730   37.7570   -4.4080 C.2   200  GSB200      0.2626
     13  O2        71.3450   37.4660   -3.7890 O.2   200  GSB200     -0.2714
     14  N3        72.7200   39.0140   -4.6500 N.am  200  GSB200     -0.1917
     15  CA3       71.8820   40.1120   -4.1980 C.3   200  GSB200      0.2285
     16  C3        72.3000   41.4300   -4.8310 C.2   200  GSB200      0.3865
     17  O31       72.9400   41.3910   -5.9110 O.co2 200  GSB200     -0.2437
     18  O32       71.9810   42.5020   -4.2650 O.co2 200  GSB200     -0.2437
     19  CB2       72.7770   36.0160   -6.1730 C.3   200  GSB200      0.0889
     20  SG2       73.4590   34.3610   -6.4680 S.3   200  GSB200     -0.1331
     21  C'        73.6060   34.4070   -8.2840 C.3   200  GSB200      0.0838
     22  C1'       72.9670   33.2190   -8.9410 C.ar  200  GSB200     -0.0113
     23  C2'       71.5880   33.0730   -8.9590 C.ar  200  GSB200     -0.0034
     24  C3'       70.9800   31.9510   -9.5500 C.ar  200  GSB200     -0.0003
     25  C4'       71.7650   30.9760  -10.1260 C.ar  200  GSB200     -0.0000
     26  C5'       73.1450   31.1140  -10.1140 C.ar  200  GSB200     -0.0003
     27  C6'       73.7390   32.2320   -9.5240 C.ar  200  GSB200     -0.0034
@<TRIPOS>BOND
     1    25    26   ar
     2    25    24   ar
     3    26    27   ar
     4    24    23   ar
     5    27    22   ar
     6    23    22   ar
     7    22    21    1
     8    21    20    1
     9    20    19    1
    10    19    11    1
    11    17    16   ar
    12    11    12    1
    13    11    10    1
    14    16    18   ar
    15    16    15    1
    16    14    12   am
    17    14    15    1
    18    12    13    2
    19    10     8   am
    20     8     9    2
    21     8     7    1
    22     7     6    1
    23     6     2    1
    24     2     3    1
    25     2     1    1
    26     5     3   ar
    27     3     4   ar
