@<TRIPOS>MOLECULE
1frp_FDP_A_1.pdb
 22 22 0 0 0
SMALL
GASTEIGER

@<TRIPOS>ATOM
      1  P1        43.9560  108.4630   13.9770 P.3   336  FDP336      0.5345
      2  O1P       43.6620  108.4370   15.4520 O.3   336  FDP336     -0.1145
      3  O2P       44.2740  107.0790   13.4760 O.2   336  FDP336     -0.2223
      4  O3P       45.1480  109.3450   13.7810 O.3   336  FDP336     -0.1145
      5  O1        44.1930  107.5590   10.9790 O.3   336  FDP336     -0.2149
      6  C1        43.4000  108.8140   10.8380 C.3   336  FDP336      0.2409
      7  C2        42.5290  109.5010   11.9460 C.3   336  FDP336      0.2551
      8  O2        42.6350  108.9350   13.2580 O.3   336  FDP336     -0.2441
      9  C3        41.0280  109.4460   11.6380 C.3   336  FDP336      0.1945
     10  O3        40.4760  108.2160   11.9990 O.3   336  FDP336     -0.3776
     11  C4        40.3850  110.5930   12.4160 C.3   336  FDP336      0.1718
     12  O4        39.1910  111.0660   11.8260 O.3   336  FDP336     -0.3794
     13  C5        41.4870  111.6220   12.5470 C.3   336  FDP336      0.1770
     14  O5        42.6680  110.9340   12.0430 O.3   336  FDP336     -0.3273
     15  C6        41.5480  112.0060   13.9920 C.3   336  FDP336      0.1858
     16  O6        42.4870  113.1230   14.0730 O.3   336  FDP336     -0.2675
     17  P2        42.4850  114.2640   15.2110 P.3   336  FDP336      0.5327
     18  O4P       41.1290  114.8450   15.3870 O.3   336  FDP336     -0.1145
     19  O5P       43.0200  113.7690   16.5190 O.3   336  FDP336     -0.1145
     20  O6P       43.4980  115.3100   14.8120 O.2   336  FDP336     -0.2224
     21  HO3       40.9280  108.1040   12.8700 H     336  FDP336      0.2106
     22  HO4       39.4470  111.5040   11.0030 H     336  FDP336      0.2105
@<TRIPOS>BOND
     1     6     5    1
     2     6     7    1
     3    22    12    1
     4     9     7    1
     5     9    10    1
     6     9    11    1
     7    12    11    1
     8     7    14    1
     9     7     8    1
    10    10    21    1
    11    14    13    1
    12    11    13    1
    13    13    15    1
    14     8     1    1
    15     3     1    2
    16     4     1    1
    17     1     2    1
    18    15    16    1
    19    16    17    1
    20    20    17    2
    21    17    18    1
    22    17    19    1
