@<TRIPOS>MOLECULE
1frp_AMP_A_1.pdb
 23 25 0 0 0
SMALL
GASTEIGER

@<TRIPOS>ATOM
      1  P         35.7850   90.5450  -13.3450 P.3   338  AMP338      0.5327
      2  O1P       35.4270   89.5850  -12.2040 O.3   338  AMP338     -0.1145
      3  O2P       37.1080   91.1930  -13.1430 O.3   338  AMP338     -0.1145
      4  O3P       35.9190   89.6600  -14.5460 O.2   338  AMP338     -0.2224
      5  O5'       34.5750   91.5180  -13.5430 O.3   338  AMP338     -0.2675
      6  C5'       34.8300   92.7030  -14.3630 C.3   338  AMP338      0.1860
      7  C4'       33.9370   93.8330  -13.9550 C.3   338  AMP338      0.1823
      8  O4'       32.5690   93.4420  -13.8160 O.3   338  AMP338     -0.3135
      9  C3'       34.2930   94.5340  -12.6320 C.3   338  AMP338      0.2184
     10  O3'       35.3850   95.4310  -12.7240 O.3   338  AMP338     -0.2174
     11  C2'       32.9480   95.1660  -12.2380 C.3   338  AMP338      0.2570
     12  O2'       32.7020   96.4490  -12.7940 O.3   338  AMP338     -0.2130
     13  C1'       31.9230   94.1060  -12.7170 C.3   338  AMP338      0.3186
     14  N9        31.6220   93.0390  -11.6870 N.pl3 338  AMP338     -0.1439
     15  C8        32.3790   91.9130  -11.4720 C.3   338  AMP338      0.3377
     16  N7        31.9460   91.2410  -10.3750 N.2   338  AMP338     -0.2095
     17  C5        31.0020   92.0600   -9.8200 C.2   338  AMP338      0.2526
     18  C6        30.4060   91.9410   -8.5420 C.2   338  AMP338      0.4393
     19  N6        30.4720   90.8250   -7.8300 N.pl3 338  AMP338      0.2180
     20  N1        29.4650   92.9180   -8.2880 N.2   338  AMP338      0.0021
     21  C2        29.5600   94.1220   -8.9460 C.3   338  AMP338      0.5254
     22  N3        30.0880   94.2320  -10.1930 N.2   338  AMP338     -0.0055
     23  C4        30.9340   93.2410  -10.5440 C.2   338  AMP338      0.3518
@<TRIPOS>BOND
     1     4     1    2
     2     6     7    1
     3     6     5    1
     4     7     8    1
     5     7     9    1
     6     8    13    1
     7     5     1    1
     8     1     3    1
     9     1     2    1
    10    12    11    1
    11    10     9    1
    12    13    11    1
    13    13    14    1
    14     9    11    1
    15    14    15    1
    16    14    23    1
    17    15    16    1
    18    23    22    2
    19    23    17    1
    20    16    17    2
    21    22    21    1
    22    17    18    1
    23    21    20    1
    24    18    20    2
    25    18    19    1
