@<TRIPOS>MOLECULE
1frt_GAL_C_1.pdb
 11 11 0 0 0
SMALL
GASTEIGER

@<TRIPOS>ATOM
      1  C1        99.7210   63.5520   39.5570 C.3     7  GAL7        0.1777
      2  C2        99.3550   64.4040   38.3210 C.3     7  GAL7        0.2141
      3  C3        98.0710   63.8140   37.7130 C.3     7  GAL7        0.2173
      4  C4        98.2550   62.3360   37.3220 C.3     7  GAL7        0.2142
      5  C5        98.8340   61.5080   38.4840 C.3     7  GAL7        0.1810
      6  C6        99.3310   60.1420   37.9950 C.3     7  GAL7        0.2141
      7  O2        99.1060   65.7830   38.6330 O.3     7  GAL7       -0.2176
      8  O3        97.6610   64.5800   36.5720 O.3     7  GAL7       -0.2175
      9  O4        99.1280   62.2630   36.1950 O.3     7  GAL7       -0.2176
     10  O5        99.9270   62.2110   39.0830 O.3     7  GAL7       -0.3481
     11  O6        98.2480   59.3780   37.4430 O.3     7  GAL7       -0.2176
@<TRIPOS>BOND
     1     9     4    1
     2     8     3    1
     3     4     3    1
     4     4     5    1
     5    11     6    1
     6     3     2    1
     7     6     5    1
     8     2     7    1
     9     2     1    1
    10     5    10    1
    11    10     1    1
