@<TRIPOS>MOLECULE
1frt_FUC_C_1.pdb
 10 10 0 0 0
SMALL
GASTEIGER

@<TRIPOS>ATOM
      1  C1       109.7160   77.5150   42.4590 C.3     2  FUC2        0.1776
      2  C2       109.9840   77.6720   40.9480 C.3     2  FUC2        0.2141
      3  C3       111.1540   78.6360   40.6670 C.3     2  FUC2        0.2172
      4  C4       110.9140   79.9740   41.3800 C.3     2  FUC2        0.2116
      5  C5       110.7090   79.7450   42.8870 C.3     2  FUC2        0.1483
      6  C6       110.3670   81.0520   43.6250 C.3     2  FUC2        0.0349
      7  O2       108.8010   78.1770   40.3140 O.3     2  FUC2       -0.2176
      8  O3       112.3980   78.0820   41.1180 O.3     2  FUC2       -0.2175
      9  O4       112.0210   80.8570   41.1560 O.3     2  FUC2       -0.2177
     10  O5       109.6360   78.8130   43.0600 O.3     2  FUC2       -0.3508
@<TRIPOS>BOND
     1     7     2    1
     2     3     2    1
     3     3     8    1
     4     3     4    1
     5     2     1    1
     6     9     4    1
     7     4     5    1
     8     1    10    1
     9     5    10    1
    10     5     6    1
