@<TRIPOS>MOLECULE
1frt_BMA_C_1.pdb
 11 11 0 0 0
SMALL
GASTEIGER

@<TRIPOS>ATOM
      1  C1       107.6170   69.6310   48.5870 C.3     4  BMA4        0.1777
      2  C2       107.4850   69.4470   50.1180 C.3     4  BMA4        0.2141
      3  C3       106.7760   68.1200   50.4260 C.3     4  BMA4        0.2173
      4  C4       105.4050   68.1140   49.7440 C.3     4  BMA4        0.2142
      5  C5       105.5640   68.3000   48.2330 C.3     4  BMA4        0.1810
      6  C6       104.1900   68.3610   47.5530 C.3     4  BMA4        0.2141
      7  O2       106.7120   70.5210   50.6910 O.3     4  BMA4       -0.2176
      8  O3       106.5660   68.0360   51.8300 O.3     4  BMA4       -0.2175
      9  O4       104.7100   66.8930   50.0280 O.3     4  BMA4       -0.2176
     10  O5       106.3090   69.5110   47.9890 O.3     4  BMA4       -0.3481
     11  O6       104.3840   68.5030   46.1470 O.3     4  BMA4       -0.2176
@<TRIPOS>BOND
     1    11     6    1
     2     6     5    1
     3    10     5    1
     4    10     1    1
     5     5     4    1
     6     1     2    1
     7     4     9    1
     8     4     3    1
     9     2     3    1
    10     2     7    1
    11     3     8    1
