@<TRIPOS>MOLECULE
1frw_GTP_A_1.pdb
 32 34 0 0 0
SMALL
GASTEIGER

@<TRIPOS>ATOM
      1  PG        12.1170   31.4250   22.6400 P.3   198  GTP198      0.5373
      2  O1G       10.8490   30.5040   22.3180 O.2   198  GTP198     -0.2221
      3  O2G       13.4270   30.5270   22.9410 O.3   198  GTP198     -0.1143
      4  O3G       11.9360   32.5630   23.7690 O.3   198  GTP198     -0.1143
      5  O3B       12.3860   32.2340   21.2640 O.3   198  GTP198     -0.2258
      6  PB        13.8500   32.3070   20.5770 P.3   198  GTP198      0.2277
      7  O1B       14.7310   33.3280   21.4570 O.3   198  GTP198     -0.4368
      8  O2B       14.3840   30.8360   20.2520 O.2   198  GTP198     -0.5168
      9  O3A       13.6830   32.8520   19.0890 O.3   198  GTP198     -0.2700
     10  PA        12.4010   33.4820   18.3660 P.3   198  GTP198      0.2189
     11  O1A       11.2560   33.9280   19.4070 O.3   198  GTP198     -0.4371
     12  O2A       13.0990   34.5300   17.3400 O.2   198  GTP198     -0.5170
     13  O5'       11.8080   32.3080   17.4200 O.3   198  GTP198     -0.3112
     14  C5'       11.2930   31.0640   17.8720 C.3   198  GTP198      0.1813
     15  C4'       11.3030   30.1640   16.6430 C.3   198  GTP198      0.1799
     16  O4'       10.3970   30.7660   15.6900 O.3   198  GTP198     -0.3326
     17  C3'       12.7210   30.1200   16.0990 C.3   198  GTP198      0.2158
     18  O3'       12.9330   28.8950   15.4060 O.3   198  GTP198     -0.2175
     19  C2'       12.9410   31.3490   15.2040 C.3   198  GTP198      0.2310
     20  O2'       13.6550   30.9670   14.0330 O.3   198  GTP198     -0.2158
     21  C1'       11.1040   31.2220   14.5280 C.3   198  GTP198      0.2293
     22  N9        10.5710   32.5260   14.1660 N.pl3 198  GTP198     -0.2354
     23  C8        10.3660   33.5870   14.9650 C.3   198  GTP198      0.2246
     24  N7         9.8200   34.5840   14.2340 N.2   198  GTP198     -0.2322
     25  C5         9.6740   34.1260   12.9860 C.2   198  GTP198      0.2182
     26  C6         9.1800   34.6580   11.8070 C.1   198  GTP198      0.2372
     27  O6         8.6950   35.8950   11.7780 O.2   198  GTP198     -0.2069
     28  N1         9.1590   33.8970   10.7050 N.2   198  GTP198     -0.2485
     29  C2         9.6420   32.6620   10.7420 C.1   198  GTP198      0.2531
     30  N2         9.6550   31.9060    9.6080 N.pl3 198  GTP198     -0.0226
     31  N3        10.1250   32.1250   11.8400 N.2   198  GTP198     -0.3074
     32  C4        10.1470   32.8330   12.9610 C.2   198  GTP198      0.2300
@<TRIPOS>BOND
     1    30    29    1
     2    28    29    2
     3    28    26    2
     4    29    31    2
     5    27    26    2
     6    26    25    1
     7    31    32    2
     8    32    25    1
     9    32    22    1
    10    25    24    2
    11    20    19    1
    12    22    21    1
    13    22    23    1
    14    24    23    1
    15    21    19    1
    16    21    16    1
    17    19    17    1
    18    18    17    1
    19    16    15    1
    20    17    15    1
    21    15    14    1
    22    12    10    2
    23    13    14    1
    24    13    10    1
    25    10     9    1
    26    10    11    1
    27     9     6    1
    28     8     6    2
    29     6     5    1
    30     6     7    1
    31     5     1    1
    32     2     1    2
    33     1     3    1
    34     1     4    1
