@<TRIPOS>MOLECULE
1fs4_PLP_A_1.pdb
 15 15 0 0 0
SMALL
GASTEIGER

@<TRIPOS>ATOM
      1  N1        24.6580   25.6980   30.2450 N.ar  999  PLP999     -0.2452
      2  C2        23.5500   24.9420   30.4680 C.ar  999  PLP999      0.0978
      3  C2A       22.5980   25.4610   31.5130 C.3   999  PLP999      0.0555
      4  C3        23.3600   23.7240   29.7970 C.ar  999  PLP999      0.2049
      5  O3        22.1960   22.9920   29.9410 O.3   999  PLP999     -0.2857
      6  C4        24.3030   23.3030   28.8900 C.ar  999  PLP999      0.0182
      7  C4A       24.0140   22.0470   28.0210 C.3   999  PLP999      0.0342
      8  C5        25.4510   24.1160   28.6690 C.ar  999  PLP999      0.0261
      9  C6        25.6080   25.2840   29.3690 C.ar  999  PLP999      0.0965
     10  C5A       26.4390   23.8980   27.4840 C.3   999  PLP999      0.1815
     11  O4P       26.1070   24.7170   26.3400 O.3   999  PLP999     -0.2653
     12  P         27.0340   24.7990   25.0820 P.3   999  PLP999      0.5329
     13  O1P       26.1940   25.3860   24.0530 O.2   999  PLP999     -0.2224
     14  O2P       28.0970   25.8790   25.5730 O.3   999  PLP999     -0.1145
     15  O3P       27.7520   23.5150   24.8140 O.3   999  PLP999     -0.1145
@<TRIPOS>BOND
     1    13    12    2
     2    15    12    1
     3    12    14    1
     4    12    11    1
     5    11    10    1
     6    10     8    1
     7     7     6    1
     8     8     6   ar
     9     8     9   ar
    10     6     4   ar
    11     9     1   ar
    12     4     5    1
    13     4     2   ar
    14     1     2   ar
    15     2     3    1
