@<TRIPOS>MOLECULE
1fs4_CRA_A_1.pdb
 19 19 0 0 0
SMALL
GASTEIGER

@<TRIPOS>ATOM
      1  N1        33.4820   25.1220   28.3450 N.am  998  CRA998     -0.0841
      2  C2        34.0100   23.1280   26.0280 C.3   998  CRA998      0.2374
      3  O2        34.2130   24.4900   25.7520 O.3   998  CRA998     -0.2153
      4  C4        32.4620   21.1330   25.7830 C.3   998  CRA998      0.2144
      5  C5        32.3730   21.0190   27.3700 C.3   998  CRA998      0.1831
      6  C6        32.2090   19.6120   27.8500 C.3   998  CRA998      0.2142
      7  C1        33.9530   22.8450   27.5740 C.3   998  CRA998      0.2773
      8  C3        32.7080   22.6060   25.3180 C.3   998  CRA998      0.2194
      9  O3        32.8570   22.6930   23.9000 O.3   998  CRA998     -0.2174
     10  O4        31.2840   20.6480   25.2210 O.3   998  CRA998     -0.2176
     11  O5        33.5680   21.4940   27.9730 O.3   998  CRA998     -0.3280
     12  N2        35.3550   23.0150   27.9210 N.am  998  CRA998     -0.1337
     13  O6        33.2920   18.8630   27.3540 O.3   998  CRA998     -0.2176
     14  C7        35.8530   23.3080   29.1170 C.2   998  CRA998      0.4237
     15  O7        35.1680   23.5130   30.1180 O.2   998  CRA998     -0.2245
     16  C8        37.7480   23.3710   30.4770 C.3   998  CRA998      0.2574
     17  O8        37.1890   23.4320   29.1220 O.3   998  CRA998     -0.4294
     18  C9        33.0670   23.8560   28.4160 C.2   998  CRA998      0.3077
     19  O9        32.0440   23.5210   29.0380 O.2   998  CRA998     -0.2671
@<TRIPOS>BOND
     1     9     8    1
     2    10     4    1
     3     8     4    1
     4     8     2    1
     5     3     2    1
     6     4     5    1
     7     2     7    1
     8    13     6    1
     9     5     6    1
    10     5    11    1
    11     7    12    1
    12     7    11    1
    13     7    18    1
    14    12    14   am
    15     1    18   am
    16    18    19    2
    17    14    17    1
    18    14    15    2
    19    17    16    1
