@<TRIPOS>MOLECULE
1fs7_HEM_A_1.pdb
 43 50 0 0 0
SMALL
GASTEIGER

@<TRIPOS>ATOM
      1  CHA       25.5290   54.2630   18.1100 C.2   508  HEM508      0.0000
      2  CHB       29.0340   54.5560   14.7930 C.2   508  HEM508      0.0000
      3  CHC       29.1220   59.3330   15.3660 C.2   508  HEM508      0.0000
      4  CHD       26.2950   58.8640   19.2430 C.2   508  HEM508      0.0000
      5  C1A       26.4800   53.9170   17.1490 C.ar  508  HEM508      0.0000
      6  C2A       26.7110   52.5630   16.6730 C.ar  508  HEM508      0.0000
      7  C3A       27.7200   52.6370   15.7640 C.ar  508  HEM508      0.0000
      8  C4A       28.1040   54.0330   15.6890 C.ar  508  HEM508      0.0000
      9  CMA       28.3110   51.4960   14.9340 C.3   508  HEM508      0.0000
     10  CAA       25.8960   51.3150   17.0610 C.3   508  HEM508      0.0000
     11  CBA       24.5760   51.2940   16.3010 C.3   508  HEM508      0.0000
     12  CGA       24.7740   51.1780   14.8070 C.2   508  HEM508      0.0000
     13  O1A       25.1360   50.0770   14.3480 O.co2 508  HEM508      0.0000
     14  O2A       24.5810   52.1880   14.0950 O.co2 508  HEM508      0.0000
     15  C1B       29.3440   55.8870   14.6260 C.2   508  HEM508      0.0000
     16  C2B       30.1540   56.4120   13.5370 C.2   508  HEM508      0.0000
     17  C3B       30.1250   57.7800   13.6340 C.2   508  HEM508      0.0000
     18  C4B       29.3260   58.0620   14.8370 C.2   508  HEM508      0.0000
     19  CMB       30.8690   55.5780   12.4620 C.3   508  HEM508      0.0000
     20  CAB       30.6610   58.7090   12.7210 C.3   508  HEM508      0.0000
     21  CBB       29.9720   58.9990   11.5010 C.3   508  HEM508      0.0000
     22  C1C       28.3580   59.6420   16.4870 C.ar  508  HEM508      0.0000
     23  C2C       28.3650   60.9360   17.1630 C.ar  508  HEM508      0.0000
     24  C3C       27.6070   60.8020   18.2850 C.ar  508  HEM508      0.0000
     25  C4C       27.1260   59.4200   18.2720 C.ar  508  HEM508      0.0000
     26  CMC       29.1010   62.1950   16.6870 C.3   508  HEM508      0.0000
     27  CAC       27.4160   61.7430   19.3260 C.3   508  HEM508      0.0000
     28  CBC       27.0290   63.0940   19.0810 C.3   508  HEM508      0.0000
     29  C1D       25.8080   57.5630   19.2740 C.2   508  HEM508      0.0000
     30  C2D       24.7020   57.1060   20.1070 C.2   508  HEM508      0.0000
     31  C3D       24.3880   55.8550   19.6820 C.2   508  HEM508      0.0000
     32  C4D       25.3490   55.5260   18.6330 C.2   508  HEM508      0.0000
     33  CMD       24.0180   57.8670   21.2400 C.3   508  HEM508      0.0000
     34  CAD       23.2850   54.9620   20.2610 C.3   508  HEM508      0.0000
     35  CBD       21.8500   55.2700   19.8670 C.3   508  HEM508      0.0000
     36  CGD       21.5040   54.8250   18.4560 C.2   508  HEM508      0.0000
     37  O1D       22.3740   54.2580   17.7640 O.co2 508  HEM508      0.0000
     38  O2D       20.3520   55.0410   18.0350 O.co2 508  HEM508      0.0000
     39  NA        27.3410   54.8100   16.5550 N.ar  508  HEM508      0.0000
     40  NB        28.8000   56.9040   15.3920 N.2   508  HEM508      0.0000
     41  NC        27.6350   58.7110   17.2040 N.ar  508  HEM508      0.0000
     42  ND        26.1660   56.6000   18.3360 N.2   508  HEM508      0.0000
     43 FE         27.4880   56.7600   16.8830 Fe    508  HEM508      0.0000
@<TRIPOS>BOND
     1    21    20    1
     2    19    16    1
     3    20    17    1
     4    16    17    2
     5    16    15    1
     6    17    18    1
     7    14    12   ar
     8    13    12   ar
     9    15     2    1
    10    15    40    2
    11     2     8    2
    12    12    11    1
    13    18     3    2
    14    18    40    1
    15     9     7    1
    16     3    22    1
    17    40    43    1
    18     8     7   ar
    19     8    39   ar
    20     7     6   ar
    21    11    10    1
    22    22    23   ar
    23    22    41   ar
    24    39    43    1
    25    39     5   ar
    26     6    10    1
    27     6     5   ar
    28    26    23    1
    29    43    41    1
    30    43    42    1
    31     5     1    2
    32    23    24   ar
    33    41    25   ar
    34    37    36   ar
    35    38    36   ar
    36     1    32    1
    37    25    24   ar
    38    25     4    1
    39    24    27    1
    40    42    32    2
    41    42    29    1
    42    36    35    1
    43    32    31    1
    44    28    27    1
    45     4    29    2
    46    29    30    1
    47    31    30    2
    48    31    34    1
    49    35    34    1
    50    30    33    1
