@<TRIPOS>MOLECULE
1fs8_HEM_A_1.pdb
 43 50 0 0 0
SMALL
GASTEIGER

@<TRIPOS>ATOM
      1  CHA       25.3920   53.9770   18.7690 C.2   508  HEM508      0.0000
      2  CHB       28.9480   54.2880   15.5420 C.2   508  HEM508      0.0000
      3  CHC       29.0480   59.0590   16.1780 C.2   508  HEM508      0.0000
      4  CHD       26.1980   58.5450   20.0230 C.2   508  HEM508      0.0000
      5  C1A       26.3820   53.6270   17.8650 C.ar  508  HEM508      0.0000
      6  C2A       26.6150   52.2660   17.3890 C.ar  508  HEM508      0.0000
      7  C3A       27.6230   52.3610   16.4780 C.ar  508  HEM508      0.0000
      8  C4A       28.0000   53.7590   16.4020 C.ar  508  HEM508      0.0000
      9  CMA       28.2340   51.2240   15.6750 C.3   508  HEM508      0.0000
     10  CAA       25.8180   51.0260   17.8060 C.3   508  HEM508      0.0000
     11  CBA       24.5120   50.9450   17.0210 C.3   508  HEM508      0.0000
     12  CGA       24.7470   50.8290   15.5290 C.2   508  HEM508      0.0000
     13  O1A       25.1850   49.7490   15.0800 O.co2 508  HEM508      0.0000
     14  O2A       24.5140   51.8250   14.8100 O.co2 508  HEM508      0.0000
     15  C1B       29.2660   55.6250   15.4130 C.2   508  HEM508      0.0000
     16  C2B       30.0730   56.1560   14.3390 C.2   508  HEM508      0.0000
     17  C3B       30.0630   57.5130   14.4490 C.2   508  HEM508      0.0000
     18  C4B       29.2510   57.7990   15.6340 C.2   508  HEM508      0.0000
     19  CMB       30.7900   55.3390   13.2640 C.3   508  HEM508      0.0000
     20  CAB       30.6110   58.4300   13.5400 C.3   508  HEM508      0.0000
     21  CBB       29.8890   58.7410   12.3500 C.3   508  HEM508      0.0000
     22  C1C       28.2870   59.3340   17.3110 C.ar  508  HEM508      0.0000
     23  C2C       28.2850   60.6130   17.9980 C.ar  508  HEM508      0.0000
     24  C3C       27.5240   60.4790   19.1180 C.ar  508  HEM508      0.0000
     25  C4C       27.0500   59.0970   19.0940 C.ar  508  HEM508      0.0000
     26  CMC       29.0410   61.8600   17.5240 C.3   508  HEM508      0.0000
     27  CAC       27.3380   61.4180   20.1570 C.3   508  HEM508      0.0000
     28  CBC       26.9340   62.7650   19.9350 C.3   508  HEM508      0.0000
     29  C1D       25.6850   57.2670   19.9730 C.2   508  HEM508      0.0000
     30  C2D       24.5770   56.8190   20.7790 C.2   508  HEM508      0.0000
     31  C3D       24.2770   55.5800   20.3400 C.2   508  HEM508      0.0000
     32  C4D       25.2270   55.2380   19.3170 C.2   508  HEM508      0.0000
     33  CMD       23.8900   57.5850   21.9230 C.3   508  HEM508      0.0000
     34  CAD       23.2190   54.6780   20.9780 C.3   508  HEM508      0.0000
     35  CBD       21.7530   54.8960   20.6200 C.3   508  HEM508      0.0000
     36  CGD       21.4300   54.5060   19.1940 C.2   508  HEM508      0.0000
     37  O1D       22.2380   53.7850   18.5670 O.co2 508  HEM508      0.0000
     38  O2D       20.3580   54.9090   18.6990 O.co2 508  HEM508      0.0000
     39  NA        27.2590   54.5250   17.2780 N.ar  508  HEM508      0.0000
     40  NB        28.7360   56.6370   16.1930 N.2   508  HEM508      0.0000
     41  NC        27.5670   58.3890   18.0240 N.ar  508  HEM508      0.0000
     42  ND        26.0640   56.3050   19.0530 N.2   508  HEM508      0.0000
     43 FE         27.4170   56.4560   17.6430 Fe    508  HEM508      0.0000
@<TRIPOS>BOND
     1    21    20    1
     2    19    16    1
     3    20    17    1
     4    16    17    2
     5    16    15    1
     6    17    18    1
     7    14    12   ar
     8    13    12   ar
     9    15     2    1
    10    15    40    2
    11    12    11    1
    12     2     8    2
    13    18     3    2
    14    18    40    1
    15     9     7    1
    16     3    22    1
    17    40    43    1
    18     8     7   ar
    19     8    39   ar
    20     7     6   ar
    21    11    10    1
    22    39    43    1
    23    39     5   ar
    24    22    23   ar
    25    22    41   ar
    26     6    10    1
    27     6     5   ar
    28    26    23    1
    29    43    41    1
    30    43    42    1
    31     5     1    2
    32    23    24   ar
    33    41    25   ar
    34    37    36   ar
    35    38    36   ar
    36     1    32    1
    37    42    32    2
    38    42    29    1
    39    25    24   ar
    40    25     4    1
    41    24    27    1
    42    36    35    1
    43    32    31    1
    44    28    27    1
    45    29     4    2
    46    29    30    1
    47    31    30    2
    48    31    34    1
    49    35    34    1
    50    30    33    1
