@<TRIPOS>MOLECULE
1fs9_HEM_A_1.pdb
 43 50 0 0 0
SMALL
GASTEIGER

@<TRIPOS>ATOM
      1  CHA       25.4190   54.0410   18.2770 C.2   508  HEM508      0.0000
      2  CHB       28.9670   54.3750   15.0640 C.2   508  HEM508      0.0000
      3  CHC       29.0150   59.1620   15.5910 C.2   508  HEM508      0.0000
      4  CHD       26.2140   58.5920   19.4630 C.2   508  HEM508      0.0000
      5  C1A       26.3980   53.6890   17.3530 C.ar  508  HEM508      0.0000
      6  C2A       26.6500   52.3340   16.8850 C.ar  508  HEM508      0.0000
      7  C3A       27.6610   52.4230   15.9890 C.ar  508  HEM508      0.0000
      8  C4A       28.0090   53.8340   15.9070 C.ar  508  HEM508      0.0000
      9  CMA       28.2430   51.2630   15.1620 C.3   508  HEM508      0.0000
     10  CAA       25.8760   51.0690   17.2840 C.3   508  HEM508      0.0000
     11  CBA       24.5480   50.9970   16.5290 C.3   508  HEM508      0.0000
     12  CGA       24.7370   50.8380   15.0300 C.2   508  HEM508      0.0000
     13  O1A       25.1050   49.7300   14.5910 O.co2 508  HEM508      0.0000
     14  O2A       24.5290   51.8240   14.2930 O.co2 508  HEM508      0.0000
     15  C1B       29.2670   55.7110   14.8930 C.2   508  HEM508      0.0000
     16  C2B       30.0740   56.2270   13.7950 C.2   508  HEM508      0.0000
     17  C3B       30.0330   57.5820   13.8780 C.2   508  HEM508      0.0000
     18  C4B       29.2000   57.8940   15.0430 C.2   508  HEM508      0.0000
     19  CMB       30.7020   55.4030   12.6700 C.3   508  HEM508      0.0000
     20  CAB       30.6240   58.4720   12.9830 C.3   508  HEM508      0.0000
     21  CBB       29.8770   58.9490   11.8860 C.3   508  HEM508      0.0000
     22  C1C       28.2730   59.4410   16.7370 C.ar  508  HEM508      0.0000
     23  C2C       28.2630   60.7170   17.4270 C.ar  508  HEM508      0.0000
     24  C3C       27.5320   60.5390   18.5560 C.ar  508  HEM508      0.0000
     25  C4C       27.0630   59.1560   18.5150 C.ar  508  HEM508      0.0000
     26  CMC       28.9690   62.0140   17.0030 C.3   508  HEM508      0.0000
     27  CAC       27.3420   61.4620   19.6050 C.3   508  HEM508      0.0000
     28  CBC       26.9170   62.7960   19.3860 C.3   508  HEM508      0.0000
     29  C1D       25.6860   57.3230   19.4360 C.2   508  HEM508      0.0000
     30  C2D       24.5800   56.8760   20.2710 C.2   508  HEM508      0.0000
     31  C3D       24.2440   55.6390   19.8270 C.2   508  HEM508      0.0000
     32  C4D       25.1870   55.3170   18.7500 C.2   508  HEM508      0.0000
     33  CMD       23.9020   57.6360   21.4110 C.3   508  HEM508      0.0000
     34  CAD       23.1790   54.7320   20.4470 C.3   508  HEM508      0.0000
     35  CBD       21.7050   54.9170   20.1000 C.3   508  HEM508      0.0000
     36  CGD       21.3670   54.5000   18.6790 C.2   508  HEM508      0.0000
     37  O1D       22.2240   53.8890   18.0080 O.co2 508  HEM508      0.0000
     38  O2D       20.2320   54.7720   18.2350 O.co2 508  HEM508      0.0000
     39  NA        27.2410   54.5970   16.7460 N.ar  508  HEM508      0.0000
     40  NB        28.7010   56.7290   15.6230 N.2   508  HEM508      0.0000
     41  NC        27.5580   58.4820   17.4350 N.ar  508  HEM508      0.0000
     42  ND        26.0160   56.3800   18.4700 N.2   508  HEM508      0.0000
     43 FE         27.3710   56.5530   17.0350 Fe    508  HEM508      0.0000
@<TRIPOS>BOND
     1    21    20    1
     2    19    16    1
     3    20    17    1
     4    16    17    2
     5    16    15    1
     6    17    18    1
     7    14    12   ar
     8    13    12   ar
     9    15     2    1
    10    15    40    2
    11    12    11    1
    12    18     3    2
    13    18    40    1
    14     2     8    2
    15     9     7    1
    16     3    22    1
    17    40    43    1
    18     8     7   ar
    19     8    39   ar
    20     7     6   ar
    21    11    10    1
    22    22    23   ar
    23    22    41   ar
    24    39    43    1
    25    39     5   ar
    26     6    10    1
    27     6     5   ar
    28    26    23    1
    29    43    41    1
    30    43    42    1
    31     5     1    2
    32    23    24   ar
    33    41    25   ar
    34    37    36   ar
    35    38    36   ar
    36     1    32    1
    37    42    32    2
    38    42    29    1
    39    25    24   ar
    40    25     4    1
    41    24    27    1
    42    36    35    1
    43    32    31    1
    44    28    27    1
    45    29     4    2
    46    29    30    1
    47    31    30    2
    48    31    34    1
    49    35    34    1
    50    30    33    1
