@<TRIPOS>MOLECULE
1fsa_F6P_A_1.pdb
 16 16 0 0 0
SMALL
GASTEIGER

@<TRIPOS>ATOM
      1  O1        43.6800  107.6210   10.3430 O.3   338  F6P338     -0.2148
      2  C1        43.7410  108.9090   11.1300 C.3   338  F6P338      0.2434
      3  C2        42.6010  109.2190   12.1700 C.3   338  F6P338      0.2807
      4  O2        42.2920  107.9830   12.7720 O.3   338  F6P338     -0.1896
      5  C3        41.3070  109.8380   11.5660 C.3   338  F6P338      0.2409
      6  O3        40.4990  108.8420   11.0040 O.3   338  F6P338     -0.2149
      7  C4        40.6920  110.5490   12.7340 C.3   338  F6P338      0.2167
      8  O4        39.5340  111.2910   12.5020 O.3   338  F6P338     -0.2175
      9  C5        41.9410  111.2440   13.2010 C.3   338  F6P338      0.1808
     10  O5        42.9060  110.1230   13.1730 O.3   338  F6P338     -0.3254
     11  C6        41.7970  111.9600   14.4650 C.3   338  F6P338      0.1859
     12  O6        42.6790  113.1360   14.3020 O.3   338  F6P338     -0.2675
     13  P         42.8670  114.2880   15.4210 P.3   338  F6P338      0.5327
     14  O1P       41.7360  115.2810   15.2770 O.2   338  F6P338     -0.2224
     15  O2P       42.8630  113.7190   16.8230 O.3   338  F6P338     -0.1145
     16  O3P       44.1690  115.0260   15.3180 O.3   338  F6P338     -0.1145
@<TRIPOS>BOND
     1     1     2    1
     2     6     5    1
     3     2     3    1
     4     5     3    1
     5     5     7    1
     6     3     4    1
     7     3    10    1
     8     8     7    1
     9     7     9    1
    10    10     9    1
    11     9    11    1
    12    12    11    1
    13    12    13    1
    14    14    13    2
    15    16    13    1
    16    13    15    1
