@<TRIPOS>MOLECULE
1fsa_AMP_A_1.pdb
 23 25 0 0 0
SMALL
GASTEIGER

@<TRIPOS>ATOM
      1  P         35.8530   90.7450  -13.2460 P.3   340  AMP340      0.5327
      2  O1P       37.2040   91.1360  -12.8350 O.3   340  AMP340     -0.1145
      3  O2P       36.0170   90.0610  -14.5970 O.2   340  AMP340     -0.2224
      4  O3P       35.3090   89.6780  -12.2780 O.3   340  AMP340     -0.1145
      5  O5'       34.7440   91.8550  -13.3360 O.3   340  AMP340     -0.2675
      6  C5'       34.6030   92.5950  -14.5840 C.3   340  AMP340      0.1860
      7  C4'       34.1240   93.9250  -14.2330 C.3   340  AMP340      0.1823
      8  O4'       32.6940   93.9220  -14.0670 O.3   340  AMP340     -0.3135
      9  C3'       34.6400   94.5550  -12.9290 C.3   340  AMP340      0.2184
     10  O3'       35.7150   95.4350  -13.1870 O.3   340  AMP340     -0.2174
     11  C2'       33.4360   95.3430  -12.3950 C.3   340  AMP340      0.2570
     12  O2'       33.3910   96.6610  -12.8820 O.3   340  AMP340     -0.2130
     13  C1'       32.2230   94.5700  -12.9350 C.3   340  AMP340      0.3186
     14  N9        31.8550   93.5320  -11.9370 N.pl3 340  AMP340     -0.1439
     15  C8        32.2340   92.2040  -11.8380 C.3   340  AMP340      0.3377
     16  N7        31.8020   91.6480  -10.6850 N.2   340  AMP340     -0.2095
     17  C5        31.1320   92.6810  -10.1090 C.2   340  AMP340      0.2526
     18  C6        30.4530   92.6410   -8.8910 C.2   340  AMP340      0.4393
     19  N6        30.4290   91.5340   -8.2130 N.pl3 340  AMP340      0.2180
     20  N1        29.8480   93.8330   -8.5000 N.2   340  AMP340      0.0021
     21  C2        29.9410   95.0140   -9.3150 C.3   340  AMP340      0.5254
     22  N3        30.5940   95.0800  -10.5400 N.2   340  AMP340     -0.0055
     23  C4        31.1690   93.8620  -10.8750 C.2   340  AMP340      0.3518
@<TRIPOS>BOND
     1     3     1    2
     2     6     7    1
     3     6     5    1
     4     7     8    1
     5     7     9    1
     6     8    13    1
     7     5     1    1
     8     1     2    1
     9     1     4    1
    10    10     9    1
    11    13    11    1
    12    13    14    1
    13     9    11    1
    14    12    11    1
    15    14    15    1
    16    14    23    1
    17    15    16    1
    18    23    22    2
    19    23    17    1
    20    16    17    2
    21    22    21    1
    22    17    18    1
    23    21    20    1
    24    18    20    2
    25    18    19    1
