@<TRIPOS>MOLECULE
1fsg_PRP_A_1.pdb
 22 22 0 0 0
SMALL
GASTEIGER

@<TRIPOS>ATOM
      1  C1        21.0720   40.4390  -16.4130 C.3   303  PRP303      0.2742
      2  C2        21.7790   39.6800  -15.2730 C.3   303  PRP303      0.2408
      3  C3        22.2870   38.4390  -15.9550 C.3   303  PRP303      0.2167
      4  C4        21.2240   38.1110  -16.9700 C.3   303  PRP303      0.1808
      5  C5        20.2680   37.0930  -16.4760 C.3   303  PRP303      0.1859
      6  O1        22.0860   41.2190  -17.1270 O.3   303  PRP303     -0.2857
      7  O2        22.7820   40.4950  -14.6810 O.3   303  PRP303     -0.2149
      8  O3        23.5370   38.8010  -16.5760 O.3   303  PRP303     -0.2175
      9  O4        20.5490   39.4220  -17.2390 O.3   303  PRP303     -0.3255
     10  O5        19.1110   36.9220  -17.3040 O.3   303  PRP303     -0.2675
     11  P         18.8530   35.6120  -18.2270 P.3   303  PRP303      0.5327
     12  O1P       19.6250   35.7850  -19.5210 O.2   303  PRP303     -0.2224
     13  O2P       19.2360   34.3600  -17.4480 O.3   303  PRP303     -0.1145
     14  O3P       17.3480   35.6970  -18.4660 O.3   303  PRP303     -0.1145
     15  PA        21.6290   42.4950  -18.0130 P.3   303  PRP303      0.2249
     16  O1A       21.4180   42.0620  -19.4140 O.2   303  PRP303     -0.5169
     17  O2A       20.5180   43.2110  -17.3400 O.3   303  PRP303     -0.4370
     18  O3A       22.9880   43.3370  -17.9420 O.3   303  PRP303     -0.2260
     19  PB        23.7150   43.9400  -16.5850 P.3   303  PRP303      0.5373
     20  O1B       24.4530   42.7410  -15.9760 O.3   303  PRP303     -0.1143
     21  O2B       22.6140   44.4840  -15.7060 O.3   303  PRP303     -0.1143
     22  O3B       24.6490   45.0080  -17.0900 O.2   303  PRP303     -0.2221
@<TRIPOS>BOND
     1    12    11    2
     2    16    15    2
     3    14    11    1
     4    11    13    1
     5    11    10    1
     6    15    18    1
     7    15    17    1
     8    15     6    1
     9    18    19    1
    10    10     5    1
    11     9     4    1
    12     9     1    1
    13     6     1    1
    14    22    19    2
    15     4     5    1
    16     4     3    1
    17    19    20    1
    18    19    21    1
    19     8     3    1
    20     1     2    1
    21     3     2    1
    22     2     7    1
