@<TRIPOS>MOLECULE
1fsg_9DG_A_1.pdb
 11 12 0 0 0
SMALL
GASTEIGER

@<TRIPOS>ATOM
      1  C9        17.8570   39.7410  -15.2030 C.2   304  9DG304      0.0561
      2  C8        17.0950   38.6400  -15.2880 C.2   304  9DG304      0.1025
      3  N7        16.2910   38.5520  -14.1760 N.2   304  9DG304     -0.2289
      4  C5        16.5240   39.6770  -13.3680 C.2   304  9DG304      0.2068
      5  C6        15.8650   40.1100  -12.2230 C.1   304  9DG304      0.2362
      6  O6        14.9750   39.5540  -11.5480 O.2   304  9DG304     -0.2069
      7  N1        16.4180   41.3280  -11.7960 N.2   304  9DG304     -0.2486
      8  C2        17.3810   42.0220  -12.4260 C.1   304  9DG304      0.2519
      9  N2        17.7420   43.2050  -11.8300 N.pl3 304  9DG304     -0.0226
     10  N3        17.9970   41.6150  -13.4810 N.2   304  9DG304     -0.3229
     11  C4        17.5280   40.4120  -13.9960 C.2   304  9DG304      0.1764
@<TRIPOS>BOND
     1     2     1    2
     2     2     3    1
     3     1    11    1
     4     3     4    2
     5    11    10    2
     6    11     4    1
     7    10     8    2
     8     4     5    1
     9     8     9    1
    10     8     7    2
    11     5     7    2
    12     5     6    2
