@<TRIPOS>MOLECULE
1fsl_NIO_A_1.pdb
 13 13 0 0 0
SMALL
GASTEIGER

@<TRIPOS>ATOM
      1  N        -16.9040   20.8640   50.9980 N.2   145  NIO145     -0.4225
      2  C1       -18.0660   21.2930   51.6270 C.2   145  NIO145      0.0778
      3  C2       -19.1360   21.8200   50.9070 C.3   145  NIO145      0.1612
      4  C3       -19.0260   21.8520   49.4980 C.2   145  NIO145     -0.0568
      5  C4       -17.8720   21.3990   48.9170 C.2   145  NIO145     -0.0342
      6  C5       -16.8260   20.9020   49.6550 C.2   145  NIO145      0.0772
      7  C6       -20.3180   22.3120   51.5980 C.2   145  NIO145      0.3737
      8  O1       -20.4110   22.2490   52.8230 O.co2 145  NIO145     -0.2449
      9  O2       -21.2620   22.7810   50.9520 O.co2 145  NIO145     -0.2449
     10  H1       -18.1520   21.2100   52.7050 H     145  NIO145      0.0936
     11  H3       -19.8480   22.2090   48.8910 H     145  NIO145      0.0588
     12  H4       -17.7750   21.4380   47.8380 H     145  NIO145      0.0640
     13  H5       -15.9380   20.5370   49.1490 H     145  NIO145      0.0969
@<TRIPOS>BOND
     1    12     5    1
     2    11     4    1
     3     5     4    2
     4     5     6    1
     5    13     6    1
     6     4     3    1
     7     6     1    2
     8     3     7    1
     9     3     2    1
    10     9     7   ar
    11     1     2    2
    12     7     8   ar
    13     2    10    1
