@<TRIPOS>MOLECULE
1fsw_CTB_A_1.pdb
 13 13 0 0 0
SMALL
GASTEIGER

@<TRIPOS>ATOM
      1  B         26.6470    4.9870   16.4360 B     964  CTB964      0.0000
      2  O1        25.4890    4.0140   16.5890 O.3   964  CTB964      0.0000
      3  O2        26.7990    5.8050   17.6650 O.3   964  CTB964      0.0000
      4  C3        26.4140    5.9160   15.2130 C.3   964  CTB964      0.0000
      5  N4        25.1870    6.7370   15.3720 N.am  964  CTB964      0.0000
      6  C5        24.5250    7.1750   14.2720 C.2   964  CTB964      0.0000
      7  O6        24.9200    6.8790   13.1250 O.2   964  CTB964      0.0000
      8  C7        23.2610    8.0240   14.4350 C.3   964  CTB964      0.0000
      9  C8        22.1300    7.2390   14.6630 C.ar  964  CTB964      0.0000
     10  C9        21.8250    6.8610   15.9410 C.ar  964  CTB964      0.0000
     11  C10       20.6920    6.0780   15.9320 C.ar  964  CTB964      0.0000
     12  C11       20.1970    5.8990   14.6420 C.ar  964  CTB964      0.0000
     13  S1        21.1100    6.6930   13.3940 S.2   964  CTB964      0.0000
@<TRIPOS>BOND
     1     7     6    2
     2    13    12   ar
     3    13     9   ar
     4     6     8    1
     5     6     5   am
     6     8     9    1
     7    12    11   ar
     8     9    10   ar
     9     4     5    1
    10     4     1    1
    11    11    10   ar
    12     1     2    1
    13     1     3    1
