@<TRIPOS>MOLECULE
1fsx_HEM_A_1.pdb
 43 50 0 0 0
SMALL
GASTEIGER

@<TRIPOS>ATOM
      1 FE         46.3620   29.5050   11.9540 Fe    143  HEM143      0.0000
      2  CHA       47.2490   32.8280   11.6340 C.2   143  HEM143      0.0000
      3  CHB       48.8090   28.6630    9.6660 C.2   143  HEM143      0.0000
      4  CHC       45.5690   26.2600   12.3380 C.2   143  HEM143      0.0000
      5  CHD       43.6920   30.4860   13.9940 C.2   143  HEM143      0.0000
      6  NA        47.7570   30.5040   10.8440 N.ar  143  HEM143      0.0000
      7  C1A       47.9980   31.8630   10.8660 C.ar  143  HEM143      0.0000
      8  C2A       49.0560   32.2150    9.9020 C.ar  143  HEM143      0.0000
      9  C3A       49.4900   31.0400    9.3270 C.ar  143  HEM143      0.0000
     10  C4A       48.6700   29.9960    9.9430 C.ar  143  HEM143      0.0000
     11  CMA       50.5430   30.8630    8.2230 C.3   143  HEM143      0.0000
     12  CAA       49.5020   33.6430    9.6190 C.3   143  HEM143      0.0000
     13  CBA       50.6170   34.0670   10.5630 C.3   143  HEM143      0.0000
     14  CGA       51.1010   35.4720   10.2830 C.2   143  HEM143      0.0000
     15  O1A       50.9400   36.3450   11.1630 O.co2 143  HEM143      0.0000
     16  O2A       51.6150   35.7130    9.1690 O.co2 143  HEM143      0.0000
     17  NB        47.0700   27.8510   11.2670 N.2   143  HEM143      0.0000
     18  C1B       48.0870   27.6500   10.3000 C.2   143  HEM143      0.0000
     19  C2B       48.2960   26.2650    9.9630 C.2   143  HEM143      0.0000
     20  C3B       47.3320   25.5760   10.6960 C.2   143  HEM143      0.0000
     21  C4B       46.6310   26.5640   11.5270 C.2   143  HEM143      0.0000
     22  CMB       49.4530   25.7410    9.1200 C.3   143  HEM143      0.0000
     23  CAB       47.0630   24.1990   10.8340 C.3   143  HEM143      0.0000
     24  CBB       47.6730   23.0580   10.2130 C.3   143  HEM143      0.0000
     25  NC        44.9690   28.5510   12.9100 N.ar  143  HEM143      0.0000
     26  C1C       44.7030   27.1560   12.9150 C.ar  143  HEM143      0.0000
     27  C2C       43.4180   26.8200   13.6080 C.ar  143  HEM143      0.0000
     28  C3C       42.9330   28.0900   14.1000 C.ar  143  HEM143      0.0000
     29  C4C       43.9060   29.1090   13.6890 C.ar  143  HEM143      0.0000
     30  CMC       42.8840   25.3680   13.8310 C.3   143  HEM143      0.0000
     31  CAC       41.7230   28.3660   14.8120 C.3   143  HEM143      0.0000
     32  CBC       40.4160   27.9370   14.3180 C.3   143  HEM143      0.0000
     33  ND        45.6450   31.3330   12.7490 N.2   143  HEM143      0.0000
     34  C1D       44.5450   31.5290   13.6110 C.2   143  HEM143      0.0000
     35  C2D       44.3590   32.9720   13.8450 C.2   143  HEM143      0.0000
     36  C3D       45.3600   33.6350   13.1820 C.2   143  HEM143      0.0000
     37  C4D       46.1490   32.5830   12.5030 C.2   143  HEM143      0.0000
     38  CMD       43.2410   33.5810   14.6750 C.3   143  HEM143      0.0000
     39  CAD       45.6090   35.1480   13.1070 C.3   143  HEM143      0.0000
     40  CBD       44.8330   35.7390   11.9420 C.3   143  HEM143      0.0000
     41  CGD       45.0820   37.2210   11.7570 C.2   143  HEM143      0.0000
     42  O1D       45.1980   37.9400   12.7640 O.co2 143  HEM143      0.0000
     43  O2D       45.1480   37.6900   10.6040 O.co2 143  HEM143      0.0000
@<TRIPOS>BOND
     1    11     9    1
     2    22    19    1
     3    16    14   ar
     4     9     8   ar
     5     9    10   ar
     6    12     8    1
     7    12    13    1
     8     3    10    2
     9     3    18    1
    10     8     7   ar
    11    10     6   ar
    12    19    18    1
    13    19    20    2
    14    24    23    1
    15    14    13    1
    16    14    15   ar
    17    18    17    2
    18    43    41   ar
    19    20    23    1
    20    20    21    1
    21     6     7   ar
    22     6     1    1
    23     7     2    2
    24    17    21    1
    25    17     1    1
    26    21     4    2
    27     2    37    1
    28    41    40    1
    29    41    42   ar
    30    40    39    1
    31     1    33    1
    32     1    25    1
    33     4    26    1
    34    37    33    2
    35    37    36    1
    36    33    34    1
    37    25    26   ar
    38    25    29   ar
    39    26    27   ar
    40    39    36    1
    41    36    35    2
    42    27    30    1
    43    27    28   ar
    44    34    35    1
    45    34     5    2
    46    29     5    1
    47    29    28   ar
    48    35    38    1
    49    28    31    1
    50    32    31    1
