@<TRIPOS>MOLECULE
1fsy_105_A_1.pdb
 20 21 0 0 0
SMALL
GASTEIGER

@<TRIPOS>ATOM
      1  B         26.4040    4.8710   16.2880 B     964  105964      0.0000
      2  O1        25.2700    3.8740   16.5010 O.3   964  105964      0.0000
      3  O2        26.5500    5.7400   17.4770 O.3   964  105964      0.0000
      4  C3        26.1510    5.7310   15.0080 C.3   964  105964      0.0000
      5  N4        24.7490    5.6030   14.5640 N.am  964  105964      0.0000
      6  C5        24.3710    5.8520   13.2880 C.2   964  105964      0.0000
      7  O6        25.1470    6.2190   12.4020 O.2   964  105964      0.0000
      8  C7        22.9710    5.7210   12.9990 C.ar  964  105964      0.0000
      9  N11       20.7340    6.0800   13.3510 N.ar  964  105964      0.0000
     10  O10       20.9280    5.3460   12.1180 O.2   964  105964      0.0000
     11  C8        22.2390    5.2140   12.0390 C.ar  964  105964      0.0000
     12  C12       21.9430    6.2880   13.8370 C.ar  964  105964      0.0000
     13  C9        22.8790    4.4890   10.8840 C.3   964  105964      0.0000
     14  C13       21.9710    7.0550   15.1670 C.ar  964  105964      0.0000
     15  C14       22.7020    8.3110   15.2630 C.ar  964  105964      0.0000
     16 CL1        23.4190    9.0830   13.8170 Cl    964  105964      0.0000
     17  C15       22.8860    8.9420   16.5190 C.ar  964  105964      0.0000
     18  C16       22.3420    8.3460   17.6870 C.ar  964  105964      0.0000
     19  C17       21.6060    7.1260   17.5970 C.ar  964  105964      0.0000
     20  C18       21.4190    6.4810   16.3390 C.ar  964  105964      0.0000
@<TRIPOS>BOND
     1    13    11    1
     2    11    10   ar
     3    11     8   ar
     4    10     9   ar
     5     7     6    2
     6     8     6    1
     7     8    12   ar
     8     6     5   am
     9     9    12   ar
    10    16    15    1
    11    12    14    1
    12     5     4    1
    13     4     1    1
    14    14    15   ar
    15    14    20   ar
    16    15    17   ar
    17     1     2    1
    18     1     3    1
    19    20    19   ar
    20    17    18   ar
    21    19    18   ar
