@<TRIPOS>MOLECULE
1fsz_GDP_A_1.pdb
 28 30 0 0 0
SMALL
GASTEIGER

@<TRIPOS>ATOM
      1  PB         6.8420   35.9730   -0.8320 P.3   999  GDP999      0.5373
      2  O1B        7.9110   35.1860   -0.2740 O.3   999  GDP999     -0.1143
      3  O2B        5.8400   35.3090   -1.6490 O.2   999  GDP999     -0.2221
      4  O3B        6.1870   36.7980    0.3070 O.3   999  GDP999     -0.1143
      5  O3A        7.5770   37.0550   -1.7230 O.3   999  GDP999     -0.2261
      6  PA         7.3650   37.4150   -3.2710 P.3   999  GDP999      0.2231
      7  O1A        7.9630   36.3620   -4.1100 O.2   999  GDP999     -0.5169
      8  O2A        5.9730   37.8510   -3.4810 O.3   999  GDP999     -0.4370
      9  O5'        8.3200   38.7120   -3.3240 O.3   999  GDP999     -0.3111
     10  C5'        9.5890   38.6790   -2.6970 C.3   999  GDP999      0.1813
     11  C4'       10.6070   39.4850   -3.5020 C.3   999  GDP999      0.1799
     12  O4'       10.8000   38.8660   -4.7690 O.3   999  GDP999     -0.3326
     13  C3'       10.2280   40.9400   -3.7880 C.3   999  GDP999      0.2158
     14  O3'       10.8090   41.8180   -2.8360 O.3   999  GDP999     -0.2175
     15  C2'       10.6060   41.2060   -5.2370 C.3   999  GDP999      0.2310
     16  O2'       11.8250   41.9000   -5.4140 O.3   999  GDP999     -0.2158
     17  C1'       10.6800   39.8340   -5.8240 C.3   999  GDP999      0.2293
     18  N9         9.5480   39.5130   -6.7140 N.pl3 999  GDP999     -0.2354
     19  C8         8.1900   39.5740   -6.5550 C.3   999  GDP999      0.2246
     20  N7         7.4890   39.2020   -7.5920 N.2   999  GDP999     -0.2322
     21  C5         8.4630   38.8710   -8.5270 C.2   999  GDP999      0.2182
     22  C6         8.3400   38.3890   -9.8700 C.1   999  GDP999      0.2372
     23  O6         7.3170   38.1670  -10.4890 O.2   999  GDP999     -0.2069
     24  N1         9.6040   38.1700  -10.4760 N.2   999  GDP999     -0.2485
     25  C2        10.8400   38.3850   -9.8550 C.1   999  GDP999      0.2531
     26  N2        11.9410   38.1310  -10.5400 N.pl3 999  GDP999     -0.0226
     27  N3        10.9490   38.8390   -8.6170 N.2   999  GDP999     -0.3074
     28  C4         9.7280   39.0540   -8.0040 C.2   999  GDP999      0.2300
@<TRIPOS>BOND
     1    26    25    1
     2    23    22    2
     3    24    22    2
     4    24    25    2
     5    22    21    1
     6    25    27    2
     7    27    28    2
     8    21    28    1
     9    21    20    2
    10    28    18    1
    11    20    19    1
    12    18    19    1
    13    18    17    1
    14    17    15    1
    15    17    12    1
    16    16    15    1
    17    15    13    1
    18    12    11    1
    19     7     6    2
    20    13    11    1
    21    13    14    1
    22    11    10    1
    23     8     6    1
    24     9     6    1
    25     9    10    1
    26     6     5    1
    27     5     1    1
    28     3     1    2
    29     1     2    1
    30     1     4    1
