@<TRIPOS>MOLECULE
1ft2_FPP_B_1.pdb
 24 23 0 0 0
SMALL
GASTEIGER

@<TRIPOS>ATOM
      1  C1        53.6880   82.9130   63.4530 C.3     1  FPP1        0.1750
      2  O1        54.6720   83.1720   64.4740 O.3     1  FPP1       -0.3089
      3  C2        53.8460   81.4400   63.1090 C.2     1  FPP1        0.0018
      4  C3        54.0800   80.7850   61.9310 C.2     1  FPP1       -0.0237
      5  C4        54.2650   81.4120   60.5540 C.3     1  FPP1        0.0308
      6  C5        54.1810   79.2780   61.9890 C.2     1  FPP1       -0.0045
      7  C6        53.7670   78.5290   60.7160 C.2     1  FPP1       -0.0010
      8  C7        53.4050   77.0580   60.7380 C.2     1  FPP1       -0.0085
      9  C8        52.6840   76.3210   61.6260 C.2     1  FPP1       -0.0436
     10  C10       52.0050   76.7080   62.9250 C.3     1  FPP1        0.0264
     11  C9        52.5040   74.8630   61.3450 C.3     1  FPP1        0.0267
     12  C11       51.9480   74.6800   59.9220 C.3     1  FPP1        0.0297
     13  C12       51.2430   73.3690   59.6760 C.2     1  FPP1       -0.0342
     14  C13       50.0100   73.0750   59.1920 C.2     1  FPP1       -0.0478
     15  C14       49.0080   74.0940   58.7480 C.3     1  FPP1        0.0260
     16  C15       49.5770   71.6070   59.0500 C.3     1  FPP1        0.0260
     17  PA        56.2020   83.3050   64.0340 P.3     1  FPP1        0.2233
     18  O1A       56.3620   83.1390   62.5460 O.2     1  FPP1       -0.5169
     19  O2A       56.6330   84.7310   64.4540 O.3     1  FPP1       -0.4370
     20  O3A       57.1530   82.3830   64.9320 O.3     1  FPP1       -0.2261
     21  PB        57.4380   80.8120   64.9320 P.3     1  FPP1        0.5373
     22  O1B       58.4920   80.3280   65.8810 O.3     1  FPP1       -0.1143
     23  O2B       57.8160   80.4520   63.4900 O.2     1  FPP1       -0.2221
     24  O3B       56.0480   80.2640   65.3030 O.3     1  FPP1       -0.1143
@<TRIPOS>BOND
     1    15    14    1
     2    16    14    1
     3    14    13    2
     4    13    12    1
     5    12    11    1
     6     5     4    1
     7     7     8    1
     8     7     6    2
     9     8     9    2
    10    11     9    1
    11     9    10    1
    12     4     6    1
    13     4     3    2
    14    18    17    2
    15     3     1    1
    16     1     2    1
    17    23    21    2
    18    17    19    1
    19    17     2    1
    20    17    20    1
    21    21    20    1
    22    21    24    1
    23    21    22    1
