@<TRIPOS>MOLECULE
1ft4_703_A_1.pdb
 31 35 0 0 0
SMALL
GASTEIGER

@<TRIPOS>ATOM
      1  C1        15.9110    4.4620   26.2520 C.ar  962  703962      0.0017
      2  C2        16.4940    4.3510   27.5480 C.ar  962  703962      0.0241
      3  C3        17.5280    3.4170   27.8080 C.ar  962  703962      0.1429
      4  C4        17.9070    2.5220   26.8280 C.ar  962  703962      0.0246
      5  C5        17.3630    2.4970   25.5550 C.ar  962  703962      0.0077
      6  C6        16.3630    3.5050   25.2490 C.ar  962  703962      0.0006
      7  N7        18.4450    3.4530   28.9740 N.pl3 962  703962      0.0577
      8  O8        19.0430    2.3870   29.2990 O.2   962  703962     -0.1261
      9  O9        18.5880    4.5810   29.4900 O.2   962  703962     -0.1261
     10  C10       18.0520    1.3430   24.8240 C.ar  962  703962      0.0310
     11  S11       19.7770    1.3170   24.8020 S.2   962  703962     -0.0854
     12  C12       20.0020   -0.3130   24.3040 C.ar  962  703962      0.0472
     13  C13       18.6510   -0.8760   24.1170 C.ar  962  703962      0.0722
     14  C14       17.5570    0.0550   24.4040 C.ar  962  703962      0.0246
     15  N15       19.0420   -2.1080   23.6580 N.ar  962  703962     -0.2846
     16  C16       20.3080   -2.3690   23.5360 C.ar  962  703962      0.1202
     17  C17       21.0570   -1.2600   23.9610 C.ar  962  703962      0.0301
     18  C18       18.4240   -3.1990   23.1440 C.2   962  703962      0.1604
     19  N19       19.2960   -4.1850   22.6500 N.am  962  703962     -0.2346
     20  C20       20.5700   -3.6360   22.9160 C.2   962  703962      0.2704
     21  S21       16.6770   -3.3340   23.1530 S.2   962  703962     -0.0148
     22  O22       21.7380   -4.1580   22.5560 O.2   962  703962     -0.2679
     23  C23       18.9430   -5.4250   21.8940 C.3   962  703962      0.1019
     24  C24       20.0630   -6.4630   21.7510 C.3   962  703962      0.0393
     25  C25       20.4050   -6.7410   20.2760 C.3   962  703962      0.0740
     26  N26       21.2220   -7.9830   20.1020 N.3   962  703962     -0.2684
     27  C27       20.4410   -9.1740   19.6480 C.3   962  703962      0.1046
     28  C28       21.2690  -10.4700   19.6500 C.3   962  703962      0.1595
     29  O29       22.4730  -10.3220   18.8560 O.3   962  703962     -0.3508
     30  C30       23.2550   -9.1800   19.3050 C.3   962  703962      0.1595
     31  C31       22.4540   -7.8640   19.2800 C.3   962  703962      0.1046
@<TRIPOS>BOND
     1    29    30    1
     2    29    28    1
     3    31    30    1
     4    31    26    1
     5    27    28    1
     6    27    26    1
     7    26    25    1
     8    25    24    1
     9    24    23    1
    10    23    19    1
    11    22    20    2
    12    19    20   am
    13    19    18    1
    14    20    16    1
    15    18    21    2
    16    18    15    1
    17    16    15   ar
    18    16    17   ar
    19    15    13   ar
    20    17    12   ar
    21    13    12   ar
    22    13    14   ar
    23    12    11   ar
    24    14    10   ar
    25    11    10   ar
    26    10     5    1
    27     6     5   ar
    28     6     1   ar
    29     5     4   ar
    30     1     2   ar
    31     4     3   ar
    32     2     3   ar
    33     3     7    1
    34     7     8    2
    35     7     9    2
