@<TRIPOS>MOLECULE
1ft5_HEM_A_1.pdb
 43 50 0 0 0
SMALL
GASTEIGER

@<TRIPOS>ATOM
      1 FE        107.8200   44.6100    3.2230 Fe    213  HEM213      0.0000
      2  CHA      106.1330   42.7930    0.9300 C.2   213  HEM213      0.0000
      3  CHB      106.2760   47.4860    2.0910 C.2   213  HEM213      0.0000
      4  CHC      109.1790   46.4120    5.8520 C.2   213  HEM213      0.0000
      5  CHD      109.7880   41.9090    3.9960 C.2   213  HEM213      0.0000
      6  NA       106.5080   45.0560    1.7970 N.ar  213  HEM213      0.0000
      7  C1A      105.8770   44.1580    0.9530 C.ar  213  HEM213      0.0000
      8  C2A      104.9430   44.8320    0.0650 C.ar  213  HEM213      0.0000
      9  C3A      105.0500   46.1740    0.3650 C.ar  213  HEM213      0.0000
     10  C4A      105.9700   46.2820    1.4400 C.ar  213  HEM213      0.0000
     11  CMA      104.3020   47.3630   -0.2690 C.3   213  HEM213      0.0000
     12  CAA      104.0530   44.1800   -0.9520 C.3   213  HEM213      0.0000
     13  CBA      102.7550   43.6760   -0.3120 C.3   213  HEM213      0.0000
     14  CGA      101.7250   43.1880   -1.3030 C.2   213  HEM213      0.0000
     15  O1A      101.9510   42.0360   -1.8590 O.co2 213  HEM213      0.0000
     16  O2A      100.6840   43.8600   -1.5530 O.co2 213  HEM213      0.0000
     17  NB       107.7490   46.5000    3.8250 N.2   213  HEM213      0.0000
     18  C1B      107.0920   47.5710    3.2080 C.2   213  HEM213      0.0000
     19  C2B      107.2480   48.7580    3.9650 C.2   213  HEM213      0.0000
     20  C3B      107.9760   48.4580    5.0960 C.2   213  HEM213      0.0000
     21  C4B      108.3100   47.0560    4.9890 C.2   213  HEM213      0.0000
     22  CMB      106.6780   50.1530    3.5920 C.3   213  HEM213      0.0000
     23  CAB      108.4030   49.4020    6.2600 C.3   213  HEM213      0.0000
     24  CBB      107.2580   49.7780    7.2190 C.3   213  HEM213      0.0000
     25  NC       109.1890   44.2690    4.6030 N.ar  213  HEM213      0.0000
     26  C1C      109.6320   45.1190    5.6200 C.ar  213  HEM213      0.0000
     27  C2C      110.6970   44.4990    6.4120 C.ar  213  HEM213      0.0000
     28  C3C      110.9150   43.2850    5.8130 C.ar  213  HEM213      0.0000
     29  C4C      109.9770   43.1100    4.7660 C.ar  213  HEM213      0.0000
     30  CMC      111.4490   45.1190    7.6140 C.3   213  HEM213      0.0000
     31  CAC      112.0490   42.2950    6.1410 C.3   213  HEM213      0.0000
     32  CBC      112.1670   41.6590    7.5060 C.3   213  HEM213      0.0000
     33  ND       107.8710   42.7380    2.6410 N.2   213  HEM213      0.0000
     34  C1D      108.7760   41.7640    3.0470 C.2   213  HEM213      0.0000
     35  C2D      108.4880   40.5550    2.3660 C.2   213  HEM213      0.0000
     36  C3D      107.4510   40.7890    1.5480 C.2   213  HEM213      0.0000
     37  C4D      107.0850   42.1660    1.7160 C.2   213  HEM213      0.0000
     38  CMD      109.2780   39.2120    2.5830 C.3   213  HEM213      0.0000
     39  CAD      106.9420   39.8150    0.5310 C.3   213  HEM213      0.0000
     40  CBD      107.7010   39.8330   -0.7710 C.3   213  HEM213      0.0000
     41  CGD      107.2340   38.9150   -1.9040 C.2   213  HEM213      0.0000
     42  O1D      108.1410   38.6040   -2.7090 O.co2 213  HEM213      0.0000
     43  O2D      106.0490   38.6050   -1.9950 O.co2 213  HEM213      0.0000
@<TRIPOS>BOND
     1    42    41   ar
     2    43    41   ar
     3    41    40    1
     4    15    14   ar
     5    16    14   ar
     6    14    13    1
     7    12    13    1
     8    12     8    1
     9    40    39    1
    10    11     9    1
    11     8     9   ar
    12     8     7   ar
    13     9    10   ar
    14    39    36    1
    15     2     7    2
    16     2    37    1
    17     7     6   ar
    18    10     6   ar
    19    10     3    2
    20    36    37    1
    21    36    35    2
    22    37    33    2
    23     6     1    1
    24     3    18    1
    25    35    38    1
    26    35    34    1
    27    33    34    1
    28    33     1    1
    29    34     5    2
    30    18    17    2
    31    18    19    1
    32     1    17    1
    33     1    25    1
    34    22    19    1
    35    17    21    1
    36    19    20    2
    37     5    29    1
    38    25    29   ar
    39    25    26   ar
    40    29    28   ar
    41    21    20    1
    42    21     4    2
    43    20    23    1
    44    26     4    1
    45    26    27   ar
    46    28    31    1
    47    28    27   ar
    48    31    32    1
    49    23    24    1
    50    27    30    1
