@<TRIPOS>MOLECULE
1ft6_HEM_A_1.pdb
 43 50 0 0 0
SMALL
GASTEIGER

@<TRIPOS>ATOM
      1 FE        107.1940   44.2420    3.5290 Fe    213  HEM213      0.0000
      2  CHA      105.5760   42.3660    1.2040 C.2   213  HEM213      0.0000
      3  CHB      105.7560   47.0210    2.3710 C.2   213  HEM213      0.0000
      4  CHC      108.6310   46.0590    6.1020 C.2   213  HEM213      0.0000
      5  CHD      109.0910   41.5390    4.3710 C.2   213  HEM213      0.0000
      6  NA       105.9730   44.6230    2.0730 N.ar  213  HEM213      0.0000
      7  C1A      105.3550   43.7370    1.2230 C.ar  213  HEM213      0.0000
      8  C2A      104.4730   44.4080    0.3360 C.ar  213  HEM213      0.0000
      9  C3A      104.5570   45.7510    0.6310 C.ar  213  HEM213      0.0000
     10  C4A      105.4670   45.8450    1.7140 C.ar  213  HEM213      0.0000
     11  CMA      103.7670   46.9390   -0.0420 C.3   213  HEM213      0.0000
     12  CAA      103.6150   43.7360   -0.7210 C.3   213  HEM213      0.0000
     13  CBA      102.2390   43.3270   -0.1500 C.3   213  HEM213      0.0000
     14  CGA      101.2570   42.7180   -1.1570 C.2   213  HEM213      0.0000
     15  O1A      101.5640   41.6010   -1.6790 O.co2 213  HEM213      0.0000
     16  O2A      100.1730   43.2980   -1.4100 O.co2 213  HEM213      0.0000
     17  NB       107.2100   46.1470    4.1320 N.2   213  HEM213      0.0000
     18  C1B      106.5480   47.1810    3.4930 C.2   213  HEM213      0.0000
     19  C2B      106.6950   48.4390    4.1830 C.2   213  HEM213      0.0000
     20  C3B      107.4510   48.1770    5.2870 C.2   213  HEM213      0.0000
     21  C4B      107.7750   46.7210    5.2300 C.2   213  HEM213      0.0000
     22  CMB      106.1450   49.8220    3.7660 C.3   213  HEM213      0.0000
     23  CAB      107.9310   49.1620    6.4010 C.3   213  HEM213      0.0000
     24  CBB      106.8320   49.5850    7.3260 C.3   213  HEM213      0.0000
     25  NC       108.5170   43.8770    4.9280 N.ar  213  HEM213      0.0000
     26  C1C      109.0290   44.7620    5.9180 C.ar  213  HEM213      0.0000
     27  C2C      110.0980   44.1660    6.6900 C.ar  213  HEM213      0.0000
     28  C3C      110.3040   42.9440    6.1240 C.ar  213  HEM213      0.0000
     29  C4C      109.3040   42.7440    5.0900 C.ar  213  HEM213      0.0000
     30  CMC      110.9020   44.8090    7.8430 C.3   213  HEM213      0.0000
     31  CAC      111.4630   41.9740    6.4710 C.3   213  HEM213      0.0000
     32  CBC      111.5820   41.4100    7.8680 C.3   213  HEM213      0.0000
     33  ND       107.2600   42.3220    2.9480 N.2   213  HEM213      0.0000
     34  C1D      108.1180   41.3360    3.4120 C.2   213  HEM213      0.0000
     35  C2D      107.8620   40.0530    2.7420 C.2   213  HEM213      0.0000
     36  C3D      106.8270   40.3200    1.8680 C.2   213  HEM213      0.0000
     37  C4D      106.4910   41.7150    2.0110 C.2   213  HEM213      0.0000
     38  CMD      108.6410   38.7110    2.9550 C.3   213  HEM213      0.0000
     39  CAD      106.3470   39.3890    0.7660 C.3   213  HEM213      0.0000
     40  CBD      107.1430   39.5440   -0.5270 C.3   213  HEM213      0.0000
     41  CGD      106.7710   38.5840   -1.6150 C.2   213  HEM213      0.0000
     42  O1D      107.7050   38.2250   -2.3780 O.co2 213  HEM213      0.0000
     43  O2D      105.5820   38.2400   -1.7140 O.co2 213  HEM213      0.0000
@<TRIPOS>BOND
     1    42    41   ar
     2    43    41   ar
     3    15    14   ar
     4    41    40    1
     5    16    14   ar
     6    14    13    1
     7    12    13    1
     8    12     8    1
     9    40    39    1
    10    11     9    1
    11     8     9   ar
    12     8     7   ar
    13     9    10   ar
    14    39    36    1
    15     2     7    2
    16     2    37    1
    17     7     6   ar
    18    10     6   ar
    19    10     3    2
    20    36    37    1
    21    36    35    2
    22    37    33    2
    23     6     1    1
    24     3    18    1
    25    35    38    1
    26    35    34    1
    27    33    34    1
    28    33     1    1
    29    34     5    2
    30    18    17    2
    31    18    19    1
    32     1    17    1
    33     1    25    1
    34    22    19    1
    35    17    21    1
    36    19    20    2
    37     5    29    1
    38    25    29   ar
    39    25    26   ar
    40    29    28   ar
    41    21    20    1
    42    21     4    2
    43    20    23    1
    44    26     4    1
    45    26    27   ar
    46    28    31    1
    47    28    27   ar
    48    23    24    1
    49    31    32    1
    50    27    30    1
