@<TRIPOS>MOLECULE
1ft9_HEM_A_1.pdb
 43 50 0 0 0
SMALL
GASTEIGER

@<TRIPOS>ATOM
      1 FE        100.2710   32.5800   12.3250 Fe    300  HEM300      0.0000
      2  CHA      101.4220   30.4060   14.7180 C.2   300  HEM300      0.0000
      3  CHB       98.1470   30.1420   11.0740 C.2   300  HEM300      0.0000
      4  CHC       99.2360   34.6850    9.8020 C.2   300  HEM300      0.0000
      5  CHD      102.3640   35.0110   13.5170 C.2   300  HEM300      0.0000
      6  NA        99.8940   30.7020   12.7770 N.ar  300  HEM300      0.0000
      7  C1A      100.4460   29.9480   13.8250 C.ar  300  HEM300      0.0000
      8  C2A       99.8860   28.6010   13.8360 C.ar  300  HEM300      0.0000
      9  C3A       98.9690   28.5110   12.8260 C.ar  300  HEM300      0.0000
     10  C4A       98.9820   29.8180   12.1540 C.ar  300  HEM300      0.0000
     11  CMA       98.0900   27.2980   12.5120 C.3   300  HEM300      0.0000
     12  CAA      100.2390   27.4680   14.7620 C.3   300  HEM300      0.0000
     13  CBA      101.3410   26.6390   14.1290 C.3   300  HEM300      0.0000
     14  CGA      101.6580   25.3990   14.9370 C.2   300  HEM300      0.0000
     15  O1A      101.9790   25.5400   16.1420 O.co2 300  HEM300      0.0000
     16  O2A      101.5840   24.2850   14.3660 O.co2 300  HEM300      0.0000
     17  NB        98.9110   32.4760   10.8330 N.2   300  HEM300      0.0000
     18  C1B       98.1310   31.3790   10.4500 C.2   300  HEM300      0.0000
     19  C2B       97.3810   31.6560    9.2480 C.2   300  HEM300      0.0000
     20  C3B       97.6290   32.9410    8.9210 C.2   300  HEM300      0.0000
     21  C4B       98.6140   33.4410    9.8700 C.2   300  HEM300      0.0000
     22  CMB       96.5290   30.6740    8.4420 C.3   300  HEM300      0.0000
     23  CAB       96.9510   33.6260    7.9280 C.3   300  HEM300      0.0000
     24  CBB       97.5830   34.5150    6.9180 C.3   300  HEM300      0.0000
     25  NC       100.7580   34.3870   11.7340 N.ar  300  HEM300      0.0000
     26  C1C      100.1930   35.1290   10.6970 C.ar  300  HEM300      0.0000
     27  C2C      100.5950   36.5090   10.7370 C.ar  300  HEM300      0.0000
     28  C3C      101.4480   36.6120   11.7940 C.ar  300  HEM300      0.0000
     29  C4C      101.5780   35.2890   12.3860 C.ar  300  HEM300      0.0000
     30  CMC      100.1790   37.6370    9.7930 C.3   300  HEM300      0.0000
     31  CAC      101.9860   37.7930   12.2860 C.3   300  HEM300      0.0000
     32  CBC      101.1630   38.9120   12.7200 C.3   300  HEM300      0.0000
     33  ND       101.6330   32.6840   13.7820 N.2   300  HEM300      0.0000
     34  C1D      102.4320   33.7600   14.1260 C.2   300  HEM300      0.0000
     35  C2D      103.2980   33.4250   15.2190 C.2   300  HEM300      0.0000
     36  C3D      103.0070   32.1680   15.6030 C.2   300  HEM300      0.0000
     37  C4D      101.9940   31.6920   14.6750 C.2   300  HEM300      0.0000
     38  CMD      104.3040   34.3420   15.8800 C.3   300  HEM300      0.0000
     39  CAD      103.3290   31.5060   16.9310 C.3   300  HEM300      0.0000
     40  CBD      102.1450   31.9200   17.8100 C.3   300  HEM300      0.0000
     41  CGD      101.6110   30.7940   18.6730 C.2   300  HEM300      0.0000
     42  O1D      100.4710   30.9340   19.1730 O.co2 300  HEM300      0.0000
     43  O2D      102.3270   29.7800   18.8560 O.co2 300  HEM300      0.0000
@<TRIPOS>BOND
     1    24    23    1
     2    23    20    1
     3    22    19    1
     4    20    19    2
     5    20    21    1
     6    19    18    1
     7    30    27    1
     8     4    21    2
     9     4    26    1
    10    21    17    1
    11    18    17    2
    12    18     3    1
    13    26    27   ar
    14    26    25   ar
    15    27    28   ar
    16    17     1    1
    17     3    10    2
    18    25     1    1
    19    25    29   ar
    20    28    31    1
    21    28    29   ar
    22    10     6   ar
    23    10     9   ar
    24    31    32    1
    25     1     6    1
    26     1    33    1
    27    29     5    1
    28    11     9    1
    29     6     7   ar
    30     9     8   ar
    31     5    34    2
    32    33    34    1
    33    33    37    2
    34     7     8   ar
    35     7     2    2
    36     8    12    1
    37    34    35    1
    38    13    12    1
    39    13    14    1
    40    16    14   ar
    41    37     2    1
    42    37    36    1
    43    14    15   ar
    44    35    36    2
    45    35    38    1
    46    36    39    1
    47    39    40    1
    48    40    41    1
    49    41    43   ar
    50    41    42   ar
