@<TRIPOS>MOLECULE
1fta_AMP_A_1.pdb
 23 25 0 0 0
SMALL
GASTEIGER

@<TRIPOS>ATOM
      1  P         14.6600   60.0770   16.7220 P.3   338  AMP338      0.5327
      2  O1P       14.1710   59.3310   15.5260 O.2   338  AMP338     -0.2224
      3  O2P       13.7400   61.2400   16.9390 O.3   338  AMP338     -0.1145
      4  O3P       14.5240   59.1690   17.9490 O.3   338  AMP338     -0.1145
      5  O5'       16.1470   60.5340   16.5300 O.3   338  AMP338     -0.2675
      6  C5'       16.4080   61.6450   15.6150 C.3   338  AMP338      0.1860
      7  C4'       17.8510   61.7280   15.5580 C.3   338  AMP338      0.1823
      8  O4'       18.3840   61.8870   16.8940 O.3   338  AMP338     -0.3135
      9  C3'       18.4340   60.4150   15.0070 C.3   338  AMP338      0.2184
     10  O3'       18.7420   60.4570   13.6240 O.3   338  AMP338     -0.2174
     11  C2'       19.6440   60.1380   15.9060 C.3   338  AMP338      0.2570
     12  O2'       20.8820   60.4040   15.2610 O.3   338  AMP338     -0.2130
     13  C1'       19.4190   60.9940   17.1840 C.3   338  AMP338      0.3186
     14  N9        19.0940   60.1790   18.4260 N.pl3 338  AMP338     -0.1439
     15  C8        17.8710   59.6220   18.7140 C.3   338  AMP338      0.3377
     16  N7        17.9640   58.6650   19.6930 N.2   338  AMP338     -0.2095
     17  C5        19.3050   58.5690   19.9340 C.2   338  AMP338      0.2526
     18  C6        19.9530   57.5990   20.7210 C.2   338  AMP338      0.4393
     19  N6        19.3060   56.8340   21.5720 N.pl3 338  AMP338      0.2180
     20  N1        21.3100   57.7680   20.7990 N.2   338  AMP338      0.0021
     21  C2        21.9470   58.4600   19.7950 C.3   338  AMP338      0.5254
     22  N3        21.3370   59.4330   19.0610 N.2   338  AMP338     -0.0055
     23  C4        19.9900   59.3740   19.0450 C.2   338  AMP338      0.3518
@<TRIPOS>BOND
     1    10     9    1
     2     9     7    1
     3     9    11    1
     4    12    11    1
     5     2     1    2
     6     7     6    1
     7     7     8    1
     8     6     5    1
     9    11    13    1
    10     5     1    1
    11     1     3    1
    12     1     4    1
    13     8    13    1
    14    13    14    1
    15    14    15    1
    16    14    23    1
    17    15    16    1
    18    23    22    2
    19    23    17    1
    20    22    21    1
    21    16    17    2
    22    21    20    1
    23    17    18    1
    24    18    20    2
    25    18    19    1
