@<TRIPOS>MOLECULE
1ftj_GLU_A_1.pdb
 10 9 0 0 0
SMALL
GASTEIGER

@<TRIPOS>ATOM
      1  N         75.2840   27.3620   43.3700 N.3   274  GLU274     -0.1208
      2  CA        76.2760   26.2680   43.5890 C.3   274  GLU274      0.1949
      3  C         76.4030   25.9260   45.0660 C.2   274  GLU274      0.3819
      4  O         77.1870   25.0190   45.3850 O.co2 274  GLU274     -0.2441
      5  CB        77.6410   26.6550   43.0160 C.3   274  GLU274      0.0424
      6  CG        77.7540   26.5240   41.4850 C.3   274  GLU274      0.1161
      7  CD        77.8030   25.0700   41.0230 C.2   274  GLU274      0.3649
      8  OE1       77.6260   24.8170   39.8060 O.co2 274  GLU274     -0.2457
      9  OE2       78.0180   24.1740   41.8720 O.co2 274  GLU274     -0.2457
     10  OXT       75.6950   26.5570   45.8780 O.co2 274  GLU274     -0.2441
@<TRIPOS>BOND
     1     8     7   ar
     2     7     6    1
     3     7     9   ar
     4     6     5    1
     5     5     2    1
     6     1     2    1
     7     2     3    1
     8     3     4   ar
     9     3    10   ar
