@<TRIPOS>MOLECULE
1ftk_KAI_A_1.pdb
 15 15 0 0 0
SMALL
GASTEIGER

@<TRIPOS>ATOM
      1  N         -8.5750    9.5990    8.3570 N.3   999  KAI999     -0.2080
      2  CD        -9.7500   10.1070    9.1550 C.3   999  KAI999      0.0933
      3  CD1      -12.3640   11.2250    9.4980 C.2   999  KAI999     -0.0091
      4  CD2      -12.3090   12.8460    7.6680 C.3   999  KAI999      0.0264
      5  CA        -8.6910   10.1310    7.0230 C.3   999  KAI999      0.1766
      6  CB       -10.0910   10.6490    6.7990 C.3   999  KAI999      0.0434
      7  CB1      -11.2300    9.5660    6.5310 C.3   999  KAI999      0.1164
      8  CG       -10.3860   11.1850    8.1640 C.3   999  KAI999      0.0382
      9  CG1      -11.2260    9.1240    5.0600 C.2   999  KAI999      0.3649
     10  CG2      -11.7560   11.7700    8.5180 C.2   999  KAI999     -0.0428
     11  C         -7.5940   11.1850    6.7100 C.2   999  KAI999      0.3803
     12  O         -6.6660   11.2560    7.5430 O.co2 999  KAI999     -0.2441
     13  OD1      -11.9440    8.1440    4.8060 O.co2 999  KAI999     -0.2457
     14  OD2      -10.5560    9.7770    4.2320 O.co2 999  KAI999     -0.2457
     15  OXT       -7.7520   11.8560    5.6600 O.co2 999  KAI999     -0.2441
@<TRIPOS>BOND
     1    14     9   ar
     2    13     9   ar
     3     9     7    1
     4    15    11   ar
     5     7     6    1
     6    11     5    1
     7    11    12   ar
     8     6     5    1
     9     6     8    1
    10     5     1    1
    11     4    10    1
    12     8    10    1
    13     8     2    1
    14     1     2    1
    15    10     3    2
