@<TRIPOS>MOLECULE
1ftl_DNQ_A_1.pdb
 18 19 0 0 0
SMALL
GASTEIGER

@<TRIPOS>ATOM
      1  O1        -1.9980   -1.1060   42.3820 O.2   365  DNQ365     -0.1961
      2  O2         0.2280   -2.6270   43.2830 O.2   365  DNQ365     -0.1961
      3  C1        -1.4850   -2.0110   41.7390 C.1   365  DNQ365      0.3027
      4  C2        -0.2990   -2.8580   42.2110 C.1   365  DNQ365      0.3027
      5  N1        -1.9070   -2.2140   40.4610 N.2   365  DNQ365     -0.3206
      6  N2         0.2240   -3.7380   41.3090 N.2   365  DNQ365     -0.3206
      7  C3        -1.3400   -3.1200   39.5870 C.ar  365  DNQ365      0.1772
      8  C4        -0.2510   -3.8940   40.0160 C.ar  365  DNQ365      0.1772
      9  C5        -1.9060   -3.3190   38.3310 C.ar  365  DNQ365      0.0615
     10  C6         0.2710   -4.8790   39.1990 C.ar  365  DNQ365      0.0615
     11  C7        -1.3840   -4.3000   37.5160 C.ar  365  DNQ365      0.1679
     12  C8        -0.2970   -5.0730   37.9540 C.ar  365  DNQ365      0.1679
     13  N3        -1.7430   -4.2370   36.0770 N.pl3 365  DNQ365      0.0594
     14  N4         0.2560   -6.1430   37.1340 N.pl3 365  DNQ365      0.0594
     15  O3        -2.5300   -3.3670   35.7290 O.2   365  DNQ365     -0.1260
     16  O4        -0.2650   -7.2430   37.0770 O.2   365  DNQ365     -0.1260
     17  O5        -1.3850   -5.1570   35.3660 O.2   365  DNQ365     -0.1260
     18  O6         1.2740   -5.8520   36.5410 O.2   365  DNQ365     -0.1260
@<TRIPOS>BOND
     1    17    13    2
     2    15    13    2
     3    13    11    1
     4    18    14    2
     5    16    14    2
     6    14    12    1
     7    11    12   ar
     8    11     9   ar
     9    12    10   ar
    10     9     7   ar
    11    10     8   ar
    12     7     8   ar
    13     7     5    2
    14     8     6    2
    15     5     3    2
    16     6     4    2
    17     3     4    1
    18     3     1    2
    19     4     2    2
