@<TRIPOS>MOLECULE
1ftm_AMQ_A_1.pdb
 13 13 0 0 0
SMALL
GASTEIGER

@<TRIPOS>ATOM
      1  N         75.0740   27.4930   42.9170 N.3   428  AMQ428     -0.1204
      2  CA        76.1360   26.4300   42.9670 C.3   428  AMQ428      0.1995
      3  C         76.4420   26.0550   44.4560 C.2   428  AMQ428      0.3822
      4  OT1       77.3630   25.2540   44.6680 O.co2 428  AMQ428     -0.2440
      5  OT2       75.7220   26.5630   45.3460 O.co2 428  AMQ428     -0.2440
      6  CB        77.4080   26.9270   42.2440 C.3   428  AMQ428      0.0718
      7  CG        77.2430   27.1260   40.7540 C.2   428  AMQ428      0.0985
      8  CD1       77.4330   26.1680   39.7080 C.1   428  AMQ428      0.1879
      9  CD2       76.8220   28.2030   40.0390 C.2   428  AMQ428      0.1611
     10  CE2       76.3770   29.5860   40.4000 C.3   428  AMQ428      0.0758
     11  OE1       77.8230   24.9460   40.0650 O.2   428  AMQ428     -0.2193
     12  NE1       77.1790   26.5320   38.4750 N.2   428  AMQ428     -0.0008
     13  OE2       76.7700   27.9040   38.6870 O.2   428  AMQ428     -0.3482
@<TRIPOS>BOND
     1    12    13    1
     2    12     8    2
     3    13     9    1
     4     8    11    2
     5     8     7    1
     6     9    10    1
     7     9     7    2
     8     7     6    1
     9     6     2    1
    10     1     2    1
    11     2     3    1
    12     3     4   ar
    13     3     5   ar
