@<TRIPOS>MOLECULE
1ftn_GDP_A_1.pdb
 28 30 0 0 0
SMALL
GASTEIGER

@<TRIPOS>ATOM
      1  PB        13.0710    1.3890    1.2950 P.3   200  GDP200      0.5373
      2  O1B       14.0010    0.5140    0.3540 O.2   200  GDP200     -0.2221
      3  O2B       11.6030    1.0970    1.0460 O.3   200  GDP200     -0.1143
      4  O3B       13.3030    1.4850    2.7610 O.3   200  GDP200     -0.1143
      5  O3A       13.0280    2.9430    0.7860 O.3   200  GDP200     -0.2261
      6  PA        13.9290    4.1650    1.3680 P.3   200  GDP200      0.2231
      7  O1A       13.1840    4.6790    2.5310 O.3   200  GDP200     -0.4370
      8  O2A       15.2980    3.6580    1.4850 O.2   200  GDP200     -0.5169
      9  O5'       13.9420    5.2760    0.1810 O.3   200  GDP200     -0.3111
     10  C5'       14.2220    5.0320   -1.1710 C.3   200  GDP200      0.1813
     11  C4'       14.4880    6.2420   -1.9990 C.3   200  GDP200      0.1799
     12  O4'       13.3190    7.0550   -2.0490 O.3   200  GDP200     -0.3326
     13  C3'       15.5590    7.0890   -1.3330 C.3   200  GDP200      0.2158
     14  O3'       16.3240    7.6710   -2.3370 O.3   200  GDP200     -0.2175
     15  C2'       14.7040    8.0790   -0.5040 C.3   200  GDP200      0.2310
     16  O2'       15.2050    9.4300   -0.4080 O.3   200  GDP200     -0.2158
     17  C1'       13.5130    8.3330   -1.4700 C.3   200  GDP200      0.2293
     18  N9        12.2610    8.7530   -0.7970 N.pl3 200  GDP200     -0.2354
     19  C8        11.7760    8.1600    0.3760 C.3   200  GDP200      0.2246
     20  N7        10.6270    8.7150    0.7430 N.2   200  GDP200     -0.2322
     21  C5        10.4160    9.6790   -0.2570 C.2   200  GDP200      0.2182
     22  C6         9.3240   10.5770   -0.3490 C.1   200  GDP200      0.2372
     23  O6         8.4160   10.6440    0.4430 O.2   200  GDP200     -0.2069
     24  N1         9.3810   11.3940   -1.4430 N.2   200  GDP200     -0.2485
     25  C2        10.4380   11.3410   -2.3540 C.1   200  GDP200      0.2531
     26  N2        10.3720   12.1710   -3.3690 N.pl3 200  GDP200     -0.0226
     27  N3        11.4230   10.4490   -2.2210 N.2   200  GDP200     -0.3074
     28  C4        11.3670    9.7220   -1.1370 C.2   200  GDP200      0.2300
@<TRIPOS>BOND
     1    26    25    1
     2    25    27    2
     3    25    24    2
     4    14    13    1
     5    27    28    2
     6    12    11    1
     7    12    17    1
     8    11    13    1
     9    11    10    1
    10    17    18    1
    11    17    15    1
    12    24    22    2
    13    13    15    1
    14    10     9    1
    15    28    18    1
    16    28    21    1
    17    18    19    1
    18    15    16    1
    19    22    21    1
    20    22    23    2
    21    21    20    2
    22     9     6    1
    23     2     1    2
    24    19    20    1
    25     5     1    1
    26     5     6    1
    27     3     1    1
    28     1     4    1
    29     6     8    2
    30     6     7    1
