@<TRIPOS>MOLECULE
1ftq_PLP_A_1.pdb
 15 15 0 0 0
SMALL
GASTEIGER

@<TRIPOS>ATOM
      1  N1        24.6430   25.6760   30.2160 N.ar  999  PLP999     -0.2452
      2  C2        23.5460   24.9040   30.4640 C.ar  999  PLP999      0.0978
      3  C2A       22.5810   25.3990   31.5370 C.3   999  PLP999      0.0555
      4  C3        23.3640   23.6860   29.7840 C.ar  999  PLP999      0.2049
      5  O3        22.1850   22.9600   29.9530 O.3   999  PLP999     -0.2857
      6  C4        24.3090   23.2690   28.8450 C.ar  999  PLP999      0.0182
      7  C4A       24.0510   21.9810   27.9970 C.3   999  PLP999      0.0342
      8  C5        25.4350   24.0780   28.6150 C.ar  999  PLP999      0.0261
      9  C6        25.5820   25.2590   29.3250 C.ar  999  PLP999      0.0965
     10  C5A       26.4650   23.7850   27.4580 C.3   999  PLP999      0.1815
     11  O4P       26.0820   24.5760   26.3250 O.3   999  PLP999     -0.2653
     12  P         27.0430   24.7570   25.0710 P.3   999  PLP999      0.5329
     13  O1P       26.1870   25.3580   24.0520 O.2   999  PLP999     -0.2224
     14  O2P       28.1160   25.9070   25.5930 O.3   999  PLP999     -0.1145
     15  O3P       27.7720   23.4640   24.7850 O.3   999  PLP999     -0.1145
@<TRIPOS>BOND
     1    13    12    2
     2    15    12    1
     3    12    14    1
     4    12    11    1
     5    11    10    1
     6    10     8    1
     7     7     6    1
     8     8     6   ar
     9     8     9   ar
    10     6     4   ar
    11     9     1   ar
    12     4     5    1
    13     4     2   ar
    14     1     2   ar
    15     2     3    1
