@<TRIPOS>MOLECULE
1ftq_GL2_A_1.pdb
 18 19 0 0 0
SMALL
GASTEIGER

@<TRIPOS>ATOM
      1  C1        33.9380   22.7320   27.7550 C.3   998  GL2998      0.2905
      2  C2        33.9120   23.0630   26.2390 C.3   998  GL2998      0.2404
      3  O2        33.9670   24.4510   26.0080 O.3   998  GL2998     -0.2150
      4  C3        32.6330   22.4750   25.5960 C.3   998  GL2998      0.2197
      5  O3        32.7720   22.6430   24.1970 O.3   998  GL2998     -0.2174
      6  C4        32.4970   20.9670   25.9410 C.3   998  GL2998      0.2144
      7  O4        31.3310   20.5310   25.3120 O.3   998  GL2998     -0.2176
      8  C5        32.3930   20.8120   27.4750 C.3   998  GL2998      0.1834
      9  C6        32.1950   19.4220   27.9430 C.3   998  GL2998      0.2142
     10  O6        33.2270   18.6060   27.3850 O.3   998  GL2998     -0.2176
     11  O5        33.6110   21.3100   28.0530 O.3   998  GL2998     -0.3258
     12  N2        35.2700   23.0360   28.2060 N.2   998  GL2998     -0.1528
     13  C8        35.1650   23.9410   29.1800 C.1   998  GL2998      0.2361
     14  O8        36.1360   24.3990   29.7760 O.2   998  GL2998     -0.2045
     15  N1        33.9200   24.3460   29.4760 N.am  998  GL2998     -0.0866
     16  C7        33.1140   23.6580   28.6660 C.2   998  GL2998      0.3045
     17  O7        31.8610   23.7560   28.6570 O.2   998  GL2998     -0.2676
     18  N3        33.5480   25.3010   30.4320 N.3   998  GL2998      0.0018
@<TRIPOS>BOND
     1     5     4    1
     2     7     6    1
     3     4     6    1
     4     4     2    1
     5     6     8    1
     6     3     2    1
     7     2     1    1
     8    10     9    1
     9     8     9    1
    10     8    11    1
    11     1    11    1
    12     1    12    1
    13     1    16    1
    14    12    13    2
    15    17    16    2
    16    16    15   am
    17    13    15   am
    18    13    14    2
    19    15    18    1
