@<TRIPOS>MOLECULE
1ftq_IMP_A_1.pdb
 23 25 0 0 0
SMALL
GASTEIGER

@<TRIPOS>ATOM
      1  P         30.9430    2.1000   51.1730 P.3   930  IMP930      0.5327
      2  O1P       31.1580    1.8700   49.6940 O.2   930  IMP930     -0.2224
      3  O2P       30.4810    3.4930   51.4810 O.3   930  IMP930     -0.1145
      4  O3P       32.1420    1.7480   51.9090 O.3   930  IMP930     -0.1145
      5  O5'       29.7500    1.1190   51.6610 O.3   930  IMP930     -0.2675
      6  C5'       29.0730    0.1520   50.7480 C.3   930  IMP930      0.1860
      7  C4'       27.9010   -0.7000   51.4570 C.3   930  IMP930      0.1823
      8  O4'       28.5730   -2.0040   51.6190 O.3   930  IMP930     -0.3135
      9  C3'       27.5840   -0.4060   52.9100 C.3   930  IMP930      0.2184
     10  O3'       26.5030    0.5330   53.0280 O.3   930  IMP930     -0.2174
     11  C2'       27.1020   -1.8170   53.4030 C.3   930  IMP930      0.2570
     12  O2'       25.8450   -2.2980   52.8790 O.3   930  IMP930     -0.2130
     13  C1'       28.1450   -2.7200   52.8090 C.3   930  IMP930      0.3186
     14  N9        29.3470   -2.9550   53.7260 N.pl3 930  IMP930     -0.1435
     15  C8        30.4750   -2.2000   53.7290 C.3   930  IMP930      0.3382
     16  N7        31.3790   -2.7200   54.7200 N.2   930  IMP930     -0.2054
     17  C5        30.6840   -3.8170   55.2580 C.2   930  IMP930      0.2446
     18  C6        31.1630   -4.7190   56.3190 C.1   930  IMP930      0.1792
     19  O6        32.2140   -4.7020   56.9320 O.2   930  IMP930     -0.2203
     20  N1        30.1580   -5.6680   56.5590 N.2   930  IMP930     -0.1458
     21  C2        28.9220   -5.7500   55.8920 C.3   930  IMP930      0.4017
     22  N3        28.5680   -4.9250   54.9700 N.2   930  IMP930     -0.0334
     23  C4        29.4640   -3.9750   54.6760 C.2   930  IMP930      0.3528
@<TRIPOS>BOND
     1     2     1    2
     2     6     7    1
     3     6     5    1
     4     1     3    1
     5     1     5    1
     6     1     4    1
     7     7     8    1
     8     7     9    1
     9     8    13    1
    10    13    11    1
    11    13    14    1
    12    12    11    1
    13     9    10    1
    14     9    11    1
    15    14    15    1
    16    14    23    1
    17    15    16    1
    18    23    22    2
    19    23    17    1
    20    16    17    2
    21    22    21    1
    22    17    18    1
    23    21    20    1
    24    18    20    2
    25    18    19    2
