@<TRIPOS>MOLECULE
1ftw_GL5_A_1.pdb
 18 19 0 0 0
SMALL
GASTEIGER

@<TRIPOS>ATOM
      1  C1        33.8860   22.7750   27.6670 C.3   998  GL5998      0.2913
      2  C2        33.8950   23.0860   26.1250 C.3   998  GL5998      0.2404
      3  O2        33.9900   24.5230   25.8870 O.3   998  GL5998     -0.2150
      4  C3        32.5780   22.5170   25.4040 C.3   998  GL5998      0.2197
      5  O3        32.6070   22.6220   24.0150 O.3   998  GL5998     -0.2174
      6  C4        32.3720   21.0350   25.8140 C.3   998  GL5998      0.2144
      7  O4        31.2000   20.5260   25.2370 O.3   998  GL5998     -0.2176
      8  C5        32.2960   20.9250   27.4640 C.3   998  GL5998      0.1834
      9  C6        32.0890   19.4540   27.8880 C.3   998  GL5998      0.2142
     10  O6        33.1950   18.7230   27.4310 O.3   998  GL5998     -0.2176
     11  O5        33.5670   21.3920   27.9660 O.3   998  GL5998     -0.3258
     12  N2        35.2020   23.0150   28.2390 N.2   998  GL5998     -0.1522
     13  C8        35.1410   23.8940   29.2530 C.1   998  GL5998      0.2458
     14  O8        36.1380   24.3120   29.8660 O.2   998  GL5998     -0.2038
     15  N1        33.8780   24.3270   29.5300 N.am  998  GL5998     -0.0303
     16  C7        33.0470   23.7170   28.5970 C.2   998  GL5998      0.3139
     17  O7        31.7580   23.9030   28.4990 O.2   998  GL5998     -0.2668
     18  O9        33.4620   25.2490   30.4820 O.3   998  GL5998     -0.0766
@<TRIPOS>BOND
     1     5     4    1
     2     7     6    1
     3     4     6    1
     4     4     2    1
     5     6     8    1
     6     3     2    1
     7     2     1    1
     8    10     9    1
     9     8     9    1
    10     8    11    1
    11     1    11    1
    12     1    12    1
    13     1    16    1
    14    12    13    2
    15    17    16    2
    16    16    15   am
    17    13    15   am
    18    13    14    2
    19    15    18    1
