@<TRIPOS>MOLECULE
1ftw_PLP_A_1.pdb
 15 15 0 0 0
SMALL
GASTEIGER

@<TRIPOS>ATOM
      1  N1        24.6320   25.7400   30.2650 N.ar  999  PLP999     -0.2452
      2  C2        23.5100   25.0080   30.4480 C.ar  999  PLP999      0.0978
      3  C2A       22.5310   25.4910   31.4780 C.3   999  PLP999      0.0555
      4  C3        23.2980   23.8390   29.7450 C.ar  999  PLP999      0.2049
      5  O3        22.1960   23.0690   29.9820 O.3   999  PLP999     -0.2857
      6  C4        24.2210   23.4140   28.8430 C.ar  999  PLP999      0.0182
      7  C4A       23.9980   22.0670   28.0770 C.3   999  PLP999      0.0342
      8  C5        25.3850   24.1880   28.6570 C.ar  999  PLP999      0.0261
      9  C6        25.5740   25.3370   29.3860 C.ar  999  PLP999      0.0965
     10  C5A       26.3950   23.9280   27.4950 C.3   999  PLP999      0.1815
     11  O4P       26.0500   24.6600   26.3270 O.3   999  PLP999     -0.2653
     12  P         26.9600   24.7840   25.0490 P.3   999  PLP999      0.5329
     13  O1P       26.0880   25.3480   24.0330 O.2   999  PLP999     -0.2224
     14  O2P       28.0750   25.8940   25.4970 O.3   999  PLP999     -0.1145
     15  O3P       27.6650   23.5450   24.7900 O.3   999  PLP999     -0.1145
@<TRIPOS>BOND
     1    13    12    2
     2    15    12    1
     3    12    14    1
     4    12    11    1
     5    11    10    1
     6    10     8    1
     7     7     6    1
     8     8     6   ar
     9     8     9   ar
    10     6     4   ar
    11     9     1   ar
    12     4     5    1
    13     4     2   ar
    14     1     2   ar
    15     2     3    1
