@<TRIPOS>MOLECULE
1ftx_EPC_A_1.pdb
 22 22 0 0 0
SMALL
GASTEIGER

@<TRIPOS>ATOM
      1  C         24.2000   16.8700   67.9600 C.3   1001  EPC1001     0.1546
      2  N2        24.1210   15.4660   68.4090 N.2   1001  EPC1001    -0.2634
      3  N1        23.3750   10.4800   68.8280 N.ar  1001  EPC1001    -0.2452
      4  C2        24.5120   11.2290   68.9930 C.ar  1001  EPC1001     0.0981
      5  C2A       25.8410   10.5490   69.3680 C.3   1001  EPC1001     0.0555
      6  C3        24.4410   12.6490   68.8050 C.ar  1001  EPC1001     0.2103
      7  O1        25.6020   13.3610   68.9740 O.3   1001  EPC1001    -0.2853
      8  C4        23.2030   13.2470   68.4560 C.ar  1001  EPC1001     0.0587
      9  C4A       23.1070   14.6980   68.2700 C.2   1001  EPC1001     0.0966
     10  C5        22.0370   12.4140   68.2970 C.ar  1001  EPC1001     0.0316
     11  C6        22.1720   11.0320   68.4930 C.ar  1001  EPC1001     0.0968
     12  C5A       20.6920   12.9480   67.9210 C.3   1001  EPC1001     0.1819
     13  O2        20.8190   13.5650   66.6450 O.3   1001  EPC1001    -0.2653
     14  P1        19.6610   14.4390   66.0480 P.3   1001  EPC1001     0.5329
     15  O3        20.1640   15.1010   64.4650 O.2   1001  EPC1001    -0.2224
     16  O4        19.3280   15.8200   67.1200 O.3   1001  EPC1001    -0.1145
     17  O5        18.2320   13.3680   65.8540 O.3   1001  EPC1001    -0.1145
     18  P2        25.9160   17.3500   67.9790 P.3   1001  EPC1001     0.1392
     19  O7        26.4090   17.2740   69.5300 O.3   1001  EPC1001    -0.3559
     20  O8        26.0630   18.8330   67.3620 O.3   1001  EPC1001    -0.3559
     21  O6        26.6640   16.3960   67.1460 O.2   1001  EPC1001    -0.4582
     22  CA        23.5870   17.0720   66.5550 C.3   1001  EPC1001     0.0342
@<TRIPOS>BOND
     1    15    14    2
     2    17    14    1
     3    14    13    1
     4    14    16    1
     5    22     1    1
     6    13    12    1
     7    21    18    2
     8    20    18    1
     9    12    10    1
    10     1    18    1
    11     1     2    1
    12    18    19    1
    13     9     2    2
    14     9     8    1
    15    10     8   ar
    16    10    11   ar
    17     8     6   ar
    18    11     3   ar
    19     6     7    1
    20     6     4   ar
    21     3     4   ar
    22     4     5    1
