@<TRIPOS>MOLECULE
1fty_GL7_A_1.pdb
 18 19 0 0 0
SMALL
GASTEIGER

@<TRIPOS>ATOM
      1  C1        33.8970   22.6710   27.6420 C.3   998  GL7998      0.2891
      2  C2        33.8750   23.0180   26.1150 C.3   998  GL7998      0.2403
      3  O2        33.9640   24.4080   25.8990 O.3   998  GL7998     -0.2150
      4  C3        32.6020   22.4800   25.4410 C.3   998  GL7998      0.2197
      5  O3        32.7510   22.6250   24.0440 O.3   998  GL7998     -0.2174
      6  C4        32.3500   20.9830   25.8050 C.3   998  GL7998      0.2144
      7  O4        31.1510   20.5750   25.2100 O.3   998  GL7998     -0.2176
      8  C5        32.2750   20.8070   27.3570 C.3   998  GL7998      0.1834
      9  C6        32.1300   19.3480   27.6270 C.3   998  GL7998      0.2142
     10  O6        33.3690   18.7460   27.3550 O.3   998  GL7998     -0.2176
     11  O5        33.5020   21.2860   27.9570 O.3   998  GL7998     -0.3259
     12  N2        35.2530   22.9390   28.0510 N.2   998  GL7998     -0.1539
     13  C8        35.2760   23.8830   28.9710 C.1   998  GL7998      0.2197
     14  O8        36.3000   24.2840   29.4880 O.2   998  GL7998     -0.2058
     15  N1        34.0890   24.3730   29.3030 N.am  998  GL7998     -0.1806
     16  C7        33.1790   23.6860   28.5620 C.2   998  GL7998      0.2885
     17  O7        31.9440   23.8270   28.6180 O.2   998  GL7998     -0.2690
     18  C9        33.9040   25.3520   30.1630 C.3   998  GL7998      0.1336
@<TRIPOS>BOND
     1     5     4    1
     2     7     6    1
     3     4     6    1
     4     4     2    1
     5     6     8    1
     6     3     2    1
     7     2     1    1
     8    10     9    1
     9     8     9    1
    10     8    11    1
    11     1    11    1
    12     1    12    1
    13     1    16    1
    14    12    13    2
    15    16    17    2
    16    16    15   am
    17    13    15   am
    18    13    14    2
    19    15    18    1
