@<TRIPOS>MOLECULE
1fty_PLP_A_1.pdb
 15 15 0 0 0
SMALL
GASTEIGER

@<TRIPOS>ATOM
      1  N1        24.6550   25.6600   30.2310 N.ar  999  PLP999     -0.2452
      2  C2        23.5570   24.9140   30.4650 C.ar  999  PLP999      0.0978
      3  C2A       22.6050   25.4430   31.5180 C.3   999  PLP999      0.0555
      4  C3        23.3630   23.7110   29.7830 C.ar  999  PLP999      0.2049
      5  O3        22.1830   22.9820   29.9260 O.3   999  PLP999     -0.2857
      6  C4        24.3040   23.3020   28.8490 C.ar  999  PLP999      0.0182
      7  C4A       24.0280   22.0010   28.0100 C.3   999  PLP999      0.0342
      8  C5        25.4300   24.1160   28.6230 C.ar  999  PLP999      0.0261
      9  C6        25.5810   25.2710   29.3380 C.ar  999  PLP999      0.0965
     10  C5A       26.4630   23.8550   27.4630 C.3   999  PLP999      0.1815
     11  O4P       26.0590   24.6350   26.3480 O.3   999  PLP999     -0.2653
     12  P         27.0370   24.7630   25.1000 P.3   999  PLP999      0.5329
     13  O1P       26.1490   25.3310   24.0350 O.2   999  PLP999     -0.2224
     14  O2P       28.1660   25.8970   25.6190 O.3   999  PLP999     -0.1145
     15  O3P       27.7910   23.4870   24.8550 O.3   999  PLP999     -0.1145
@<TRIPOS>BOND
     1    13    12    2
     2    15    12    1
     3    12    14    1
     4    12    11    1
     5    11    10    1
     6    10     8    1
     7     7     6    1
     8     8     6   ar
     9     8     9   ar
    10     6     4   ar
    11     9     1   ar
    12     4     5    1
    13     4     2   ar
    14     1     2   ar
    15     2     3    1
