@<TRIPOS>MOLECULE
1fu4_PLP_A_1.pdb
 15 15 0 0 0
SMALL
GASTEIGER

@<TRIPOS>ATOM
      1  N1        24.6820   25.6030   30.3110 N.ar  999  PLP999     -0.2452
      2  C2        23.5930   24.8860   30.5290 C.ar  999  PLP999      0.0978
      3  C2A       22.5830   25.4690   31.4770 C.3   999  PLP999      0.0555
      4  C3        23.3850   23.7350   29.8090 C.ar  999  PLP999      0.2049
      5  O3        22.2170   23.0540   29.9150 O.3   999  PLP999     -0.2857
      6  C4        24.2780   23.3340   28.8690 C.ar  999  PLP999      0.0182
      7  C4A       24.0150   22.0640   28.0430 C.3   999  PLP999      0.0342
      8  C5        25.3800   24.0930   28.6380 C.ar  999  PLP999      0.0261
      9  C6        25.5770   25.2160   29.3790 C.ar  999  PLP999      0.0965
     10  C5A       26.3040   23.8240   27.4300 C.3   999  PLP999      0.1815
     11  O4P       25.9340   24.6700   26.3240 O.3   999  PLP999     -0.2653
     12  P         26.9740   24.8400   25.1320 P.3   999  PLP999      0.5329
     13  O1P       26.1440   25.4540   24.1070 O.2   999  PLP999     -0.2224
     14  O2P       28.0870   25.8920   25.6550 O.3   999  PLP999     -0.1145
     15  O3P       27.6700   23.5500   24.8590 O.3   999  PLP999     -0.1145
@<TRIPOS>BOND
     1    13    12    2
     2    15    12    1
     3    12    14    1
     4    12    11    1
     5    11    10    1
     6    10     8    1
     7     7     6    1
     8     8     6   ar
     9     8     9   ar
    10     6     4   ar
    11     9     1   ar
    12     4     5    1
    13     4     2   ar
    14     1     2   ar
    15     2     3    1
