@<TRIPOS>MOLECULE
1fu4_GL9_A_1.pdb
 21 22 0 0 0
SMALL
GASTEIGER

@<TRIPOS>ATOM
      1  C1        33.9430   22.9780   27.6990 C.3   998  GL9998      0.2907
      2  C2        34.1000   23.1960   26.1750 C.3   998  GL9998      0.2404
      3  O2        34.2220   24.5670   25.9390 O.3   998  GL9998     -0.2150
      4  C3        32.8370   22.5870   25.4330 C.3   998  GL9998      0.2197
      5  O3        32.9220   22.6090   24.0320 O.3   998  GL9998     -0.2174
      6  C4        32.6860   21.1510   25.8620 C.3   998  GL9998      0.2144
      7  O4        31.6010   20.6380   25.1900 O.3   998  GL9998     -0.2176
      8  C5        32.4490   21.1090   27.3670 C.3   998  GL9998      0.1834
      9  C6        32.2210   19.7010   27.7750 C.3   998  GL9998      0.2142
     10  O6        33.3070   18.9130   27.3910 O.3   998  GL9998     -0.2176
     11  O5        33.6330   21.6110   28.0160 O.3   998  GL9998     -0.3258
     12  N2        35.1820   23.3240   28.2770 N.2   998  GL9998     -0.1526
     13  C8        34.9770   24.3770   29.0700 C.1   998  GL9998      0.2380
     14  O8        35.9470   24.9480   29.5590 O.2   998  GL9998     -0.2043
     15  N1        33.7080   24.7900   29.2610 N.am  998  GL9998     -0.0837
     16  C7        33.0400   23.9320   28.4580 C.2   998  GL9998      0.3063
     17  O7        31.8290   23.9520   28.3510 O.2   998  GL9998     -0.2674
     18  N3        33.3200   25.7030   29.9790 N.am  998  GL9998     -0.0927
     19  C9        32.4530   25.7780   31.0020 C.2   998  GL9998      0.2607
     20  O9        31.7400   26.7630   31.1780 O.2   998  GL9998     -0.2717
     21  C10       32.3490   24.6590   32.0080 C.3   998  GL9998      0.0982
@<TRIPOS>BOND
     1     5     4    1
     2     7     6    1
     3     4     6    1
     4     4     2    1
     5     6     8    1
     6     3     2    1
     7     2     1    1
     8     8     9    1
     9     8    11    1
    10    10     9    1
    11     1    11    1
    12     1    12    1
    13     1    16    1
    14    12    13    2
    15    17    16    2
    16    16    15   am
    17    13    15   am
    18    13    14    2
    19    15    18    1
    20    18    19   am
    21    19    20    2
    22    19    21    1
