@<TRIPOS>MOLECULE
1fu7_CR1_A_1.pdb
 16 16 0 0 0
SMALL
GASTEIGER

@<TRIPOS>ATOM
      1  C2        34.0510   23.0920   26.2420 C.3   998  CR1998      0.2327
      2  O2        34.1430   24.5150   26.0780 O.3   998  CR1998     -0.2157
      3  C4        32.5440   21.0560   25.9050 C.3   998  CR1998      0.2144
      4  C5        32.4350   20.8950   27.4650 C.3   998  CR1998      0.1828
      5  C6        32.2510   19.4510   27.8610 C.3   998  CR1998      0.2142
      6  C1        34.0210   22.7170   27.7560 C.3   998  CR1998      0.2480
      7  C3        32.7780   22.5400   25.5600 C.3   998  CR1998      0.2190
      8  O3        32.8810   22.6490   24.1590 O.3   998  CR1998     -0.2174
      9  O4        31.3940   20.5510   25.2830 O.3   998  CR1998     -0.2176
     10  O5        33.6450   21.3530   28.0640 O.3   998  CR1998     -0.3314
     11  N2        35.3810   22.8510   28.1840 N.am  998  CR1998     -0.1383
     12  O6        33.2440   18.6690   27.2580 O.3   998  CR1998     -0.2176
     13  C7        35.7480   23.3940   29.3390 C.2   998  CR1998      0.4234
     14  O7        34.9490   23.8440   30.1590 O.2   998  CR1998     -0.2245
     15  C8        37.5840   23.7810   30.7640 C.3   998  CR1998      0.2574
     16  O8        37.1010   23.6860   29.4350 O.3   998  CR1998     -0.4294
@<TRIPOS>BOND
     1     8     7    1
     2     9     3    1
     3     7     3    1
     4     7     1    1
     5     3     4    1
     6     2     1    1
     7     1     6    1
     8    12     5    1
     9     4     5    1
    10     4    10    1
    11     6    10    1
    12     6    11    1
    13    11    13   am
    14    13    16    1
    15    13    14    2
    16    16    15    1
