@<TRIPOS>MOLECULE
1fu7_PLP_A_1.pdb
 15 15 0 0 0
SMALL
GASTEIGER

@<TRIPOS>ATOM
      1  N1        24.6480   25.7360   30.2500 N.ar  999  PLP999     -0.2452
      2  C2        23.5190   24.9970   30.4650 C.ar  999  PLP999      0.0978
      3  C2A       22.5450   25.5010   31.5060 C.3   999  PLP999      0.0555
      4  C3        23.3230   23.8060   29.7880 C.ar  999  PLP999      0.2049
      5  O3        22.1890   23.0440   29.9840 O.3   999  PLP999     -0.2857
      6  C4        24.2620   23.3760   28.8870 C.ar  999  PLP999      0.0182
      7  C4A       24.0250   22.0330   28.1300 C.3   999  PLP999      0.0342
      8  C5        25.4120   24.1490   28.6790 C.ar  999  PLP999      0.0261
      9  C6        25.5910   25.3080   29.3880 C.ar  999  PLP999      0.0965
     10  C5A       26.3860   23.8850   27.5030 C.3   999  PLP999      0.1815
     11  O4P       26.0370   24.6660   26.3530 O.3   999  PLP999     -0.2653
     12  P         26.9970   24.8640   25.1070 P.3   999  PLP999      0.5329
     13  O1P       26.1540   25.5450   24.1300 O.2   999  PLP999     -0.2224
     14  O2P       28.1960   25.8840   25.5930 O.3   999  PLP999     -0.1145
     15  O3P       27.6230   23.5630   24.7590 O.3   999  PLP999     -0.1145
@<TRIPOS>BOND
     1    13    12    2
     2    15    12    1
     3    12    14    1
     4    12    11    1
     5    11    10    1
     6    10     8    1
     7     7     6    1
     8     8     6   ar
     9     8     9   ar
    10     6     4   ar
    11     9     1   ar
    12     4     5    1
    13     4     2   ar
    14     1     2   ar
    15     2     3    1
