@<TRIPOS>MOLECULE
1fu8_CR6_A_1.pdb
 18 18 0 0 0
SMALL
GASTEIGER

@<TRIPOS>ATOM
      1  N1        33.3280   25.1470   28.4210 N.am  998  CR6998     -0.0841
      2  C2        34.1670   22.8940   26.2150 C.3   998  CR6998      0.2373
      3  O2        34.5820   24.1540   25.7040 O.3   998  CR6998     -0.2153
      4  C4        32.5020   21.0630   25.8990 C.3   998  CR6998      0.2144
      5  C5        32.3440   20.9970   27.4850 C.3   998  CR6998      0.1831
      6  C6        32.1390   19.5920   27.9570 C.3   998  CR6998      0.2142
      7  C1        33.9880   22.8450   27.7670 C.3   998  CR6998      0.2746
      8  C3        32.8920   22.5330   25.4290 C.3   998  CR6998      0.2194
      9  O3        33.1440   22.6420   24.0210 O.3   998  CR6998     -0.2174
     10  O4        31.3140   20.6820   25.3160 O.3   998  CR6998     -0.2176
     11  O5        33.5400   21.4780   28.1530 O.3   998  CR6998     -0.3280
     12  N2        35.2470   23.1510   28.3910 N.am  998  CR6998     -0.1710
     13  O6        33.2280   18.8130   27.5020 O.3   998  CR6998     -0.2176
     14  C7        35.6350   23.4770   29.6190 C.2   998  CR6998      0.2442
     15  O7        34.8690   23.5660   30.5690 O.2   998  CR6998     -0.2732
     16  C8        37.1260   23.6800   29.7730 C.3   998  CR6998      0.0965
     17  C9        32.8860   23.8980   28.1930 C.2   998  CR6998      0.3076
     18  O9        31.7650   23.5190   28.5370 O.2   998  CR6998     -0.2671
@<TRIPOS>BOND
     1     9     8    1
     2    10     4    1
     3     8     4    1
     4     8     2    1
     5     3     2    1
     6     4     5    1
     7     2     7    1
     8     5     6    1
     9     5    11    1
    10    13     6    1
    11     7    11    1
    12     7    17    1
    13     7    12    1
    14    17     1   am
    15    17    18    2
    16    12    14   am
    17    14    16    1
    18    14    15    2
