@<TRIPOS>MOLECULE
1fu8_PLP_A_1.pdb
 15 15 0 0 0
SMALL
GASTEIGER

@<TRIPOS>ATOM
      1  N1        24.6640   25.6340   30.3810 N.ar  999  PLP999     -0.2452
      2  C2        23.5560   24.8860   30.5790 C.ar  999  PLP999      0.0978
      3  C2A       22.4880   25.4730   31.5310 C.3   999  PLP999      0.0555
      4  C3        23.3620   23.7070   29.8300 C.ar  999  PLP999      0.2049
      5  O3        22.2450   22.9000   30.0260 O.3   999  PLP999     -0.2857
      6  C4        24.3090   23.3640   28.8690 C.ar  999  PLP999      0.0182
      7  C4A       24.1120   22.0610   28.0070 C.3   999  PLP999      0.0342
      8  C5        25.4380   24.1920   28.6870 C.ar  999  PLP999      0.0261
      9  C6        25.5880   25.2940   29.4520 C.ar  999  PLP999      0.0965
     10  C5A       26.4940   23.9720   27.5760 C.3   999  PLP999      0.1815
     11  O4P       26.1430   24.6340   26.4030 O.3   999  PLP999     -0.2653
     12  P         26.9520   24.7380   25.1050 P.3   999  PLP999      0.5329
     13  O1P       26.0080   25.2120   24.1190 O.2   999  PLP999     -0.2224
     14  O2P       28.1100   25.9680   25.4700 O.3   999  PLP999     -0.1145
     15  O3P       27.5850   23.4620   24.7860 O.3   999  PLP999     -0.1145
@<TRIPOS>BOND
     1    13    12    2
     2    15    12    1
     3    12    14    1
     4    12    11    1
     5    11    10    1
     6    10     8    1
     7     7     6    1
     8     8     6   ar
     9     8     9   ar
    10     6     4   ar
    11     9     1   ar
    12     4     5    1
    13     4     2   ar
    14     1     2   ar
    15     2     3    1
