@<TRIPOS>MOLECULE
1fue_FMN_A_1.pdb
 31 33 0 0 0
SMALL
GASTEIGER

@<TRIPOS>ATOM
      1  N1       -30.3530  -24.0790  -37.5720 N.2   165  FMN165     -0.2890
      2  C2       -31.5110  -24.1120  -38.3080 C.1   165  FMN165      0.3669
      3  O2       -31.6970  -23.4360  -39.2810 O.2   165  FMN165     -0.1744
      4  N3       -32.5720  -25.0030  -37.9000 N.2   165  FMN165     -0.2300
      5  C4       -32.5210  -25.8320  -36.8220 C.1   165  FMN165      0.2513
      6  O4       -33.4790  -26.5740  -36.5300 O.2   165  FMN165     -0.2057
      7  C4A      -31.2830  -25.7920  -36.0400 C.2   165  FMN165      0.2700
      8  N5       -31.1540  -26.5620  -34.9800 N.2   165  FMN165     -0.3878
      9  C5A      -29.9990  -26.5210  -34.2530 C.2   165  FMN165      0.1320
     10  C6       -29.8640  -27.3780  -33.0720 C.2   165  FMN165      0.0250
     11  C7       -28.7530  -27.4070  -32.2810 C.2   165  FMN165     -0.0238
     12  C7M      -28.6340  -28.3170  -31.0360 C.3   165  FMN165      0.0308
     13  C8       -27.6050  -26.5340  -32.6270 C.2   165  FMN165     -0.0280
     14  C8M      -26.3510  -26.5330  -31.7880 C.3   165  FMN165      0.0304
     15  C9       -27.7180  -25.7070  -33.7540 C.2   165  FMN165     -0.0041
     16  C9A      -28.8660  -25.6620  -34.5790 C.3   165  FMN165      0.1497
     17  N10      -29.0400  -24.8340  -35.7370 N.pl3 165  FMN165     -0.2691
     18  C10      -30.2140  -24.8610  -36.4930 C.2   165  FMN165      0.2416
     19  C1'      -27.9570  -23.9050  -36.1750 C.3   165  FMN165      0.1294
     20  C2'      -28.0950  -22.5510  -35.4760 C.3   165  FMN165      0.2044
     21  O2'      -29.3480  -21.9160  -35.7480 O.3   165  FMN165     -0.2185
     22  C3'      -26.9970  -21.5520  -35.9040 C.3   165  FMN165      0.2164
     23  O3'      -25.6880  -22.2090  -35.8630 O.3   165  FMN165     -0.2175
     24  C4'      -26.9470  -20.3080  -35.0290 C.3   165  FMN165      0.2147
     25  O4'      -25.9110  -19.4270  -35.5330 O.3   165  FMN165     -0.2176
     26  C5'      -26.6290  -20.5710  -33.5510 C.3   165  FMN165      0.1892
     27  O5'      -26.6240  -19.3170  -32.8400 O.3   165  FMN165     -0.2674
     28  P        -25.8330  -19.0560  -31.4940 P.3   165  FMN165      0.5327
     29  O1P      -24.3680  -19.2610  -31.7810 O.2   165  FMN165     -0.2224
     30  O2P      -26.3880  -19.9800  -30.4330 O.3   165  FMN165     -0.1145
     31  O3P      -26.1570  -17.5540  -31.1530 O.3   165  FMN165     -0.1145
@<TRIPOS>BOND
     1     3     2    2
     2     2     4    2
     3     2     1    2
     4     4     5    2
     5     1    18    2
     6     5     6    2
     7     5     7    1
     8    18     7    1
     9    18    17    1
    10    19    17    1
    11    19    20    1
    12     7     8    2
    13    22    23    1
    14    22    20    1
    15    22    24    1
    16    21    20    1
    17    17    16    1
    18    25    24    1
    19    24    26    1
    20     8     9    2
    21    16     9    1
    22    16    15    1
    23     9    10    1
    24    15    13    2
    25    26    27    1
    26    10    11    2
    27    27    28    1
    28    13    11    1
    29    13    14    1
    30    11    12    1
    31    29    28    2
    32    28    31    1
    33    28    30    1
