@<TRIPOS>MOLECULE
1fui_FOC_A_1.pdb
 11 10 0 0 0
SMALL
GASTEIGER

@<TRIPOS>ATOM
      1  C1       120.0280   40.3970  104.8580 C.3   594  FOC594      0.2175
      2  O1       120.2240   41.6120  104.3390 O.3   594  FOC594     -0.2175
      3  C2       121.3940   39.8340  105.2470 C.3   594  FOC594      0.2175
      4  O2       122.2920   40.9570  105.3030 O.3   594  FOC594     -0.2175
      5  C3       121.4090   39.1370  106.6100 C.3   594  FOC594      0.2174
      6  O3       121.6050   40.1340  107.6260 O.3   594  FOC594     -0.2175
      7  C4       122.5240   38.0790  106.7070 C.3   594  FOC594      0.2148
      8  O4       122.6450   37.4020  105.4640 O.3   594  FOC594     -0.2176
      9  C5       122.2950   37.0410  107.7860 C.3   594  FOC594      0.1849
     10  O5       121.3670   36.0930  107.2070 O.3   594  FOC594     -0.2203
     11  C6       123.6420   36.3040  107.9940 C.3   594  FOC594      0.0383
@<TRIPOS>BOND
     1     2     1    1
     2     1     3    1
     3     3     4    1
     4     3     5    1
     5     8     7    1
     6     5     7    1
     7     5     6    1
     8     7     9    1
     9    10     9    1
    10     9    11    1
