@<TRIPOS>MOLECULE
1fuj_FUC_A_1.pdb
 10 10 0 0 0
SMALL
GASTEIGER

@<TRIPOS>ATOM
      1  C1        18.6930    6.9750   56.3590 C.3   245  FUC245      0.1776
      2  C2        17.4420    6.1240   56.1640 C.3   245  FUC245      0.2141
      3  C3        17.6700    5.2700   54.9200 C.3   245  FUC245      0.2172
      4  C4        19.1120    4.7480   54.7390 C.3   245  FUC245      0.2116
      5  C5        20.1630    5.8250   54.9100 C.3   245  FUC245      0.1483
      6  C6        21.5430    5.1990   54.7090 C.3   245  FUC245      0.0349
      7  O2        16.2100    6.8560   56.0380 O.3   245  FUC245     -0.2176
      8  O3        16.7920    4.1650   54.8050 O.3   245  FUC245     -0.2175
      9  O4        19.5220    3.5870   55.4620 O.3   245  FUC245     -0.2177
     10  O5        19.9720    6.3870   56.2240 O.3   245  FUC245     -0.3508
@<TRIPOS>BOND
     1     6     5    1
     2     4     5    1
     3     4     3    1
     4     4     9    1
     5     8     3    1
     6     5    10    1
     7     3     2    1
     8     7     2    1
     9     2     1    1
    10    10     1    1
