@<TRIPOS>MOLECULE
1fuo_CIT_A_1.pdb
 13 12 0 0 0
SMALL
GASTEIGER

@<TRIPOS>ATOM
      1  C1        87.9780  159.8280   43.6530 C.2   469  CIT469      0.3680
      2  O1        88.3680  160.4420   44.5670 O.co2 469  CIT469     -0.2455
      3  O2        88.7150  159.6000   42.6550 O.co2 469  CIT469     -0.2455
      4  C2        86.6420  159.1440   43.7330 C.3   469  CIT469      0.1560
      5  C3        85.5700  158.2910   44.7300 C.3   469  CIT469      0.2402
      6  O7        84.2080  158.4280   44.7210 O.3   469  CIT469     -0.2129
      7  C4        86.2010  156.9020   44.8660 C.3   469  CIT469      0.1560
      8  C5        86.0320  155.6330   44.9780 C.2   469  CIT469      0.3680
      9  O3        86.4610  154.8730   44.0480 O.co2 469  CIT469     -0.2455
     10  O4        85.2290  155.3810   45.8600 O.co2 469  CIT469     -0.2455
     11  C6        86.1530  158.5090   46.1430 C.2   469  CIT469      0.3927
     12  O5        87.3560  158.6460   46.3390 O.co2 469  CIT469     -0.2429
     13  O6        85.4230  158.5520   47.1430 O.co2 469  CIT469     -0.2429
@<TRIPOS>BOND
     1     3     1   ar
     2     1     4    1
     3     1     2   ar
     4     4     5    1
     5     9     8   ar
     6     6     5    1
     7     5     7    1
     8     5    11    1
     9     7     8    1
    10     8    10   ar
    11    11    12   ar
    12    11    13   ar
