@<TRIPOS>MOLECULE
1fup_PMA_A_1.pdb
 18 18 0 0 0
SMALL
GASTEIGER

@<TRIPOS>ATOM
      1  C1        86.9910  158.5460   42.2190 C.ar  474  PMA474      0.0863
      2  C2        87.4190  159.6380   43.0130 C.ar  474  PMA474      0.0863
      3  C3        86.3600  157.4620   42.8320 C.ar  474  PMA474      0.0136
      4  C4        86.5230  158.5370   44.9960 C.ar  474  PMA474      0.0863
      5  C5        86.2030  157.4050   44.2150 C.ar  474  PMA474      0.0863
      6  C6        87.1480  159.6350   44.3920 C.ar  474  PMA474      0.0136
      7  C7        86.2170  158.5890   46.4430 C.2   474  PMA474      0.3880
      8  C8        85.6910  156.1640   44.8300 C.2   474  PMA474      0.3880
      9  C9        87.1760  158.4960   40.7320 C.2   474  PMA474      0.3880
     10  C10       88.1750  160.8220   42.4220 C.2   474  PMA474      0.3880
     11  O1        88.0310  157.8350   40.2310 O.co2 474  PMA474     -0.2405
     12  O2        86.3640  159.1980   39.9390 O.co2 474  PMA474     -0.2405
     13  O3        87.9190  161.2490   41.1400 O.co2 474  PMA474     -0.2405
     14  O4        89.0940  161.5790   42.9550 O.co2 474  PMA474     -0.2405
     15  O5        87.0270  158.0800   47.2470 O.co2 474  PMA474     -0.2405
     16  O6        85.1600  159.1280   46.9130 O.co2 474  PMA474     -0.2405
     17  O7        86.1680  155.0340   44.4500 O.co2 474  PMA474     -0.2405
     18  O8        84.8520  156.0220   45.6840 O.co2 474  PMA474     -0.2405
@<TRIPOS>BOND
     1    12     9   ar
     2    11     9   ar
     3     9     1    1
     4    13    10   ar
     5     1     3   ar
     6     1     2   ar
     7    10    14   ar
     8    10     2    1
     9     3     5   ar
    10     2     6   ar
    11     5     8    1
    12     5     4   ar
    13     6     4   ar
    14    17     8   ar
    15     8    18   ar
    16     4     7    1
    17     7    16   ar
    18     7    15   ar
