@<TRIPOS>MOLECULE
1fuq_SIF_A_1.pdb
 12 11 0 0 0
SMALL
GASTEIGER

@<TRIPOS>ATOM
      1  C1        85.1380  171.8980   40.0120 C.2   1000  SIF1000     0.0000
      2  O1        85.6490  171.6980   41.1710 O.co2 1000  SIF1000     0.0000
      3  O2        85.3450  171.1960   38.9610 O.co2 1000  SIF1000     0.0000
      4  C2        84.1960  173.0390   39.9280 C.3   1000  SIF1000     0.0000
      5  C3        83.9910  173.8690   40.9540 C.3   1000  SIF1000     0.0000
      6 SI         82.7040  174.7110   40.8920 Si    1000  SIF1000     0.0000
      7  C4        84.8380  174.0760   42.1270 C.2   1000  SIF1000     0.0000
      8  O3        84.6250  173.3400   43.1470 O.co2 1000  SIF1000     0.0000
      9  O4        85.7650  174.9490   42.0600 O.co2 1000  SIF1000     0.0000
     10  C5        81.6300  174.0760   41.7930 C.3   1000  SIF1000     0.0000
     11  C6        83.0020  176.1400   41.3820 C.3   1000  SIF1000     0.0000
     12  C7        82.1900  174.7620   39.4430 C.3   1000  SIF1000     0.0000
@<TRIPOS>BOND
     1     3     1   ar
     2    12     6    1
     3     4     1    1
     4     4     5    1
     5     1     2   ar
     6     6     5    1
     7     6    11    1
     8     6    10    1
     9     5     7    1
    10     9     7   ar
    11     7     8   ar
