@<TRIPOS>MOLECULE
1fuq_CIT_A_1.pdb
 13 12 0 0 0
SMALL
GASTEIGER

@<TRIPOS>ATOM
      1  C1        87.9730  159.7700   43.6690 C.2   1001  CIT1001     0.3680
      2  O1        88.3370  160.4630   44.5290 O.co2 1001  CIT1001    -0.2455
      3  O2        88.7560  159.3920   42.7430 O.co2 1001  CIT1001    -0.2455
      4  C2        86.6090  159.1620   43.7550 C.3   1001  CIT1001     0.1560
      5  C3        85.5450  158.2950   44.7290 C.3   1001  CIT1001     0.2402
      6  O7        84.1800  158.4280   44.7200 O.3   1001  CIT1001    -0.2129
      7  C4        86.1840  156.9090   44.8600 C.3   1001  CIT1001     0.1560
      8  C5        86.0170  155.6350   44.9680 C.2   1001  CIT1001     0.3680
      9  O3        86.4480  154.8780   44.0410 O.co2 1001  CIT1001    -0.2455
     10  O4        85.2110  155.3750   45.8530 O.co2 1001  CIT1001    -0.2455
     11  C6        86.1290  158.5160   46.1380 C.2   1001  CIT1001     0.3927
     12  O5        87.3390  158.6650   46.3230 O.co2 1001  CIT1001    -0.2429
     13  O6        85.4070  158.5550   47.1370 O.co2 1001  CIT1001    -0.2429
@<TRIPOS>BOND
     1     3     1   ar
     2     1     4    1
     3     1     2   ar
     4     4     5    1
     5     9     8   ar
     6     6     5    1
     7     5     7    1
     8     5    11    1
     9     7     8    1
    10     8    10   ar
    11    11    12   ar
    12    11    13   ar
