@<TRIPOS>MOLECULE
1fut_2GP_A_1.pdb
 24 26 0 0 0
SMALL
GASTEIGER

@<TRIPOS>ATOM
      1  P         -1.9340   15.2460   10.0180 P.3   108  2GP108      0.5327
      2  O1P       -2.9290   16.0510   10.8800 O.3   108  2GP108     -0.1145
      3  O2P       -1.1960   16.2160    9.1030 O.2   108  2GP108     -0.2224
      4  O3P       -2.7350   14.1680    9.3540 O.3   108  2GP108     -0.1145
      5  O5'        1.7570   17.7480   11.7560 O.3   108  2GP108     -0.2176
      6  C5'        2.7570   16.7690   12.0040 C.3   108  2GP108      0.2142
      7  C4'        2.5520   15.4340   11.3340 C.3   108  2GP108      0.1827
      8  O4'        2.3460   14.3780   12.3940 O.3   108  2GP108     -0.3326
      9  C3'        1.3930   15.2960   10.3150 C.3   108  2GP108      0.2132
     10  O3'        1.6100   14.2410    9.3920 O.3   108  2GP108     -0.2176
     11  C2'        0.2990   15.0190   11.3370 C.3   108  2GP108      0.2054
     12  O2'       -0.8970   14.4660   10.8720 O.3   108  2GP108     -0.2657
     13  C1'        0.9620   14.1730   12.4070 C.3   108  2GP108      0.2266
     14  N9         0.4660   14.1570   13.7580 N.pl3 108  2GP108     -0.2354
     15  C8        -0.0140   13.1330   14.4850 C.3   108  2GP108      0.2246
     16  N7        -0.3700   13.4970   15.6830 N.2   108  2GP108     -0.2322
     17  C5        -0.0870   14.8580   15.7670 C.2   108  2GP108      0.2182
     18  C6        -0.2910   15.8300   16.7860 C.1   108  2GP108      0.2372
     19  O6        -0.7500   15.6850   17.9430 O.2   108  2GP108     -0.2069
     20  N1         0.0540   17.0990   16.3930 N.2   108  2GP108     -0.2485
     21  C2         0.5700   17.4100   15.1510 C.1   108  2GP108      0.2531
     22  N2         0.8980   18.7010   14.9570 N.pl3 108  2GP108     -0.0226
     23  N3         0.7960   16.5240   14.2010 N.2   108  2GP108     -0.3074
     24  C4         0.4200   15.2710   14.5720 C.2   108  2GP108      0.2300
@<TRIPOS>BOND
     1     3     1    2
     2     4     1    1
     3    10     9    1
     4     1    12    1
     5     1     2    1
     6     9     7    1
     7     9    11    1
     8    12    11    1
     9     7     6    1
    10     7     8    1
    11    11    13    1
    12     5     6    1
    13     8    13    1
    14    13    14    1
    15    14    15    1
    16    14    24    1
    17    23    24    2
    18    23    21    2
    19    15    16    1
    20    24    17    1
    21    22    21    1
    22    21    20    2
    23    16    17    2
    24    17    18    1
    25    20    18    2
    26    18    19    2
