@<TRIPOS>MOLECULE
1fuy_FIP_A_1.pdb
 18 19 0 0 0
SMALL
GASTEIGER

@<TRIPOS>ATOM
      1  C3        49.8130   27.6960   14.9200 C.2   269  FIP269     -0.0018
      2  C9        50.4420   26.4090   14.8680 C.2   269  FIP269      0.0136
      3  C8        51.8240   26.6650   15.0380 C.2   269  FIP269      0.0632
      4  C4        49.9980   25.0970   14.7130 C.2   269  FIP269      0.0302
      5  C2        50.7920   28.6240   15.0870 C.2   269  FIP269      0.0942
      6  N1        52.0150   28.0130   15.1650 N.2   269  FIP269     -0.2482
      7  C7        52.7750   25.6560   15.0320 C.3   269  FIP269      0.0741
      8  C5        50.9860   24.0930   14.7310 C.2   269  FIP269      0.1363
      9  C6        52.3410   24.3680   14.8900 C.2   269  FIP269      0.0098
     10  F         50.6680   22.8170   14.5930 F     269  FIP269     -0.2045
     11  C3P       48.3430   27.9650   14.7740 C.3   269  FIP269      0.0306
     12  C2P       48.0510   27.7810   13.2400 C.3   269  FIP269      0.0374
     13  C1P       48.8860   28.7410   12.3840 C.3   269  FIP269      0.1541
     14  P         48.7420   29.7180    9.9910 P.3   269  FIP269      0.5326
     15  OP1       49.8410   30.5390   10.4980 O.3   269  FIP269     -0.1145
     16  OP2       47.4260   30.4220   10.0890 O.3   269  FIP269     -0.1145
     17  OP3       48.9290   28.9830    8.7060 O.2   269  FIP269     -0.2224
     18  OP4       48.5640   28.5060   11.0130 O.3   269  FIP269     -0.2702
@<TRIPOS>BOND
     1    17    14    2
     2    14    16    1
     3    14    15    1
     4    14    18    1
     5    18    13    1
     6    13    12    1
     7    12    11    1
     8    10     8    1
     9     4     8    1
    10     4     2    2
    11     8     9    2
    12    11     1    1
    13     2     1    1
    14     2     3    1
    15     9     7    1
    16     1     5    2
    17     7     3    1
    18     3     6    2
    19     5     6    1
