@<TRIPOS>MOLECULE
1fuy_PLP_B_1.pdb
 15 15 0 0 0
SMALL
GASTEIGER

@<TRIPOS>ATOM
      1  N1        84.8410   13.9140   11.9810 N.ar  401  PLP401     -0.2452
      2  C2        84.8150   14.2930   10.6510 C.ar  401  PLP401      0.0978
      3  C2A       86.1220   14.1890    9.8600 C.3   401  PLP401      0.0555
      4  C3        83.6200   14.6750   10.1400 C.ar  401  PLP401      0.2049
      5  O3        83.4060   15.0260    8.8180 O.3   401  PLP401     -0.2857
      6  C4        82.5420   14.7240   11.0040 C.ar  401  PLP401      0.0182
      7  C4A       81.2410   15.1690   10.3500 C.3   401  PLP401      0.0342
      8  C5        82.5660   14.4430   12.3260 C.ar  401  PLP401      0.0261
      9  C6        83.7760   14.0030   12.7760 C.ar  401  PLP401      0.0965
     10  C5A       81.4040   14.5630   13.3090 C.3   401  PLP401      0.1815
     11  O4P       80.2130   13.8510   13.0130 O.3   401  PLP401     -0.2653
     12  P         79.8760   12.6030   13.8620 P.3   401  PLP401      0.5329
     13  O1P       80.8400   11.5260   13.5770 O.3   401  PLP401     -0.1145
     14  O2P       78.4850   12.3230   13.3760 O.2   401  PLP401     -0.2224
     15  O3P       79.8500   13.1180   15.2100 O.3   401  PLP401     -0.1145
@<TRIPOS>BOND
     1     5     4    1
     2     3     2    1
     3     4     2   ar
     4     4     6   ar
     5     7     6    1
     6     2     1   ar
     7     6     8   ar
     8     1     9   ar
     9     8     9   ar
    10     8    10    1
    11    11    10    1
    12    11    12    1
    13    14    12    2
    14    13    12    1
    15    12    15    1
