@<TRIPOS>MOLECULE
1fv0_9AR_A_1.pdb
 26 29 0 0 0
SMALL
GASTEIGER

@<TRIPOS>ATOM
      1  C1        15.5110   22.9080   40.4330 C.ar  401  9AR401      0.0846
      2  C2        14.1180   22.8870   40.2100 C.ar  401  9AR401      0.0468
      3  C3        13.2010   22.9020   41.2540 C.ar  401  9AR401      0.1766
      4  C4        13.6190   22.9400   42.6060 C.ar  401  9AR401      0.1764
      5  C5        15.0560   22.9660   42.9560 C.ar  401  9AR401      0.0391
      6  C6        16.0310   22.9540   41.8090 C.ar  401  9AR401      0.0320
      7  C7        15.5570   22.9990   44.3250 C.ar  401  9AR401      0.0062
      8  C8        17.0210   23.0050   44.5500 C.ar  401  9AR401      0.0390
      9  C9        17.8960   22.9940   43.4400 C.ar  401  9AR401      0.0272
     10  C10       17.4450   22.9840   42.1020 C.ar  401  9AR401      0.1432
     11  C11       14.7200   23.0160   45.4980 C.ar  401  9AR401      0.0036
     12  C12       15.2500   23.0370   46.7900 C.ar  401  9AR401      0.0452
     13  C13       16.6320   23.0370   46.9950 C.ar  401  9AR401      0.2293
     14  C14       17.5620   23.0200   45.8850 C.ar  401  9AR401      0.1773
     15  C15       11.3760   22.9040   42.4750 C.3   401  9AR401      0.4294
     16  C16       16.3290   23.0260   39.1400 C.2   401  9AR401      0.3879
     17  C17       20.1900   21.9140   46.0480 C.3   401  9AR401      0.2526
     18  O1        18.8630   22.5860   46.0210 O.3   401  9AR401     -0.4682
     19  O2        11.8510   22.8780   41.1170 O.3   401  9AR401     -0.4346
     20  O3        12.4940   22.9420   43.3850 O.3   401  9AR401     -0.4346
     21  O4        17.2480   22.2820   38.8000 O.co2 401  9AR401     -0.2406
     22  O5        15.8920   23.4950   38.0950 O.co2 401  9AR401     -0.2406
     23  O6        17.0970   23.0530   48.3350 O.3   401  9AR401     -0.2833
     24  O7        18.7170   23.9890   40.2160 O.2   401  9AR401     -0.1261
     25  O8        19.5990   23.1920   41.9230 O.2   401  9AR401     -0.1261
     26  N1        18.7030   23.3900   41.0990 N.pl3 401  9AR401      0.0577
@<TRIPOS>BOND
     1    22    16   ar
     2    21    16   ar
     3    16     1    1
     4     2     1   ar
     5     2     3   ar
     6    24    26    2
     7     1     6   ar
     8    26    25    2
     9    26    10    1
    10    19     3    1
    11    19    15    1
    12     3     4   ar
    13     6    10   ar
    14     6     5   ar
    15    10     9   ar
    16    15    20    1
    17     4     5   ar
    18     4    20    1
    19     5     7   ar
    20     9     8   ar
    21     7     8   ar
    22     7    11   ar
    23     8    14   ar
    24    11    12   ar
    25    14    18    1
    26    14    13   ar
    27    18    17    1
    28    12    13   ar
    29    13    23    1
