@<TRIPOS>MOLECULE
1fv2_GAL_A_1.pdb
 11 11 0 0 0
SMALL
GASTEIGER

@<TRIPOS>ATOM
      1  C1        25.1670   -3.5260    3.7570 C.3     4  GAL4        0.2997
      2  C2        24.3590   -3.2590    5.0180 C.3     4  GAL4        0.2134
      3  C3        25.3060   -3.0740    6.2170 C.3     4  GAL4        0.0738
      4  C4        26.3400   -4.1900    6.3210 C.3     4  GAL4        0.1843
      5  C5        26.9870   -4.4610    4.9640 C.3     4  GAL4        0.1810
      6  C6        27.9040   -5.6820    4.9600 C.3     4  GAL4        0.2141
      7  O1        24.3120   -3.8500    2.6740 O.3     4  GAL4       -0.1870
      8  O2        23.5380   -2.1180    4.7870 O.3     4  GAL4       -0.2175
      9  O4        25.6630   -5.3300    6.7430 O.3     4  GAL4       -0.2204
     10  O5        25.9910   -4.6390    3.9680 O.3     4  GAL4       -0.3238
     11  O6        27.3060   -6.7510    4.2650 O.3     4  GAL4       -0.2176
@<TRIPOS>BOND
     1     7     1    1
     2     1    10    1
     3     1     2    1
     4    10     5    1
     5    11     6    1
     6     8     2    1
     7     6     5    1
     8     5     4    1
     9     2     3    1
    10     3     4    1
    11     4     9    1
