@<TRIPOS>MOLECULE
1fv3_GAL_A_1.pdb
 11 11 0 0 0
SMALL
GASTEIGER

@<TRIPOS>ATOM
      1  C1         2.0930   -2.8050    6.0170 C.3     4  GAL4        0.2997
      2  C2         3.5950   -3.0660    5.9210 C.3     4  GAL4        0.2134
      3  C3         4.1570   -2.9950    7.3380 C.3     4  GAL4        0.0738
      4  C4         3.8110   -1.6760    7.9990 C.3     4  GAL4        0.1843
      5  C5         2.3200   -1.4660    7.9480 C.3     4  GAL4        0.1810
      6  C6         2.0210   -0.0790    8.4860 C.3     4  GAL4        0.2141
      7  O1         1.5040   -2.8490    4.7450 O.3     4  GAL4       -0.1870
      8  O2         3.9100   -4.3330    5.3960 O.3     4  GAL4       -0.2175
      9  O4         4.4780   -0.5990    7.3640 O.3     4  GAL4       -0.2204
     10  O5         1.8980   -1.5410    6.6060 O.3     4  GAL4       -0.3238
     11  O6         0.9720    0.5030    7.7320 O.3     4  GAL4       -0.2176
@<TRIPOS>BOND
     1     7     1    1
     2     8     2    1
     3     2     1    1
     4     2     3    1
     5     1    10    1
     6    10     5    1
     7     3     4    1
     8     9     4    1
     9    11     6    1
    10     5     4    1
    11     5     6    1
