@<TRIPOS>MOLECULE
1fv9_172_A_1.pdb
 11 12 0 0 0
SMALL
GASTEIGER

@<TRIPOS>ATOM
      1  C1        21.0210   16.0610   33.5870 C.ar  246  172246      0.1985
      2  C2        21.0130   17.3660   34.0060 C.ar  246  172246      0.0777
      3  C3        19.8440   18.0310   33.9110 C.ar  246  172246      0.1786
      4  C4        18.7770   17.5240   33.4730 C.ar  246  172246      0.1756
      5  C5        18.6710   16.2560   33.0310 C.ar  246  172246      0.0390
      6  C6        19.8380   15.4740   33.0780 C.ar  246  172246      0.0449
      7  N10       19.7560   19.3420   34.2640 N.2   246  172246     -0.3231
      8  C11       18.4010   19.5750   33.9580 C.1   246  172246      0.2416
      9  N12       17.7440   18.4180   33.4490 N.2   246  172246     -0.3232
     10  N14       17.7880   20.7780   34.1480 N.pl3 246  172246     -0.0232
     11  O17       22.1710   15.3420   33.6520 O.3   246  172246     -0.2865
@<TRIPOS>BOND
     1     5     6   ar
     2     5     4   ar
     3     6     1   ar
     4     9     4    2
     5     9     8    2
     6     4     3   ar
     7     1    11    1
     8     1     2   ar
     9     3     2   ar
    10     3     7    2
    11     8    10    1
    12     8     7    2
