@<TRIPOS>MOLECULE
1fvi_AMP_A_1.pdb
 22 24 0 0 0
SMALL
GASTEIGER

@<TRIPOS>ATOM
      1  P         37.5330   13.2880   55.2330 P.3   501  AMP501      0.3942
      2  O1P       37.7450   13.2950   53.7870 O.3   501  AMP501     -0.1425
      3  O3P       39.0420   13.2880   55.7170 O.3   501  AMP501     -0.1425
      4  O5'       37.0580   11.9320   55.6820 O.3   501  AMP501     -0.2926
      5  C5'       36.9310   11.6250   57.1560 C.3   501  AMP501      0.1831
      6  C4'       37.1450   10.1620   57.4750 C.3   501  AMP501      0.1822
      7  O4'       36.5950    9.9550   58.7790 O.3   501  AMP501     -0.3135
      8  C3'       36.4020    9.1970   56.5220 C.3   501  AMP501      0.2184
      9  O3'       37.1290    8.0110   56.2010 O.3   501  AMP501     -0.2174
     10  C2'       35.1880    8.7820   57.2800 C.3   501  AMP501      0.2570
     11  O2'       34.8170    7.4550   56.9260 O.3   501  AMP501     -0.2130
     12  C1'       35.5660    8.9950   58.7570 C.3   501  AMP501      0.3186
     13  N9        34.4410    9.5150   59.5100 N.pl3 501  AMP501     -0.1439
     14  C8        34.5010   10.6220   60.3270 C.3   501  AMP501      0.3377
     15  N7        33.3390   10.8540   60.8680 N.2   501  AMP501     -0.2095
     16  C5        32.4620    9.8810   60.4100 C.2   501  AMP501      0.2526
     17  C6        31.1030    9.6190   60.6400 C.2   501  AMP501      0.4393
     18  N6        30.3380   10.3840   61.4540 N.pl3 501  AMP501      0.2180
     19  N1        30.5840    8.5550   60.0010 N.2   501  AMP501      0.0021
     20  C2        31.3330    7.8190   59.2110 C.3   501  AMP501      0.5254
     21  N3        32.6260    7.9480   58.9010 N.2   501  AMP501     -0.0055
     22  C4        33.1830    9.0210   59.5350 C.2   501  AMP501      0.3518
@<TRIPOS>BOND
     1     2     1    1
     2     1     4    1
     3     1     3    1
     4     4     5    1
     5     9     8    1
     6     8    10    1
     7     8     6    1
     8    11    10    1
     9     5     6    1
    10    10    12    1
    11     6     7    1
    12    12     7    1
    13    12    13    1
    14    21    20    1
    15    21    22    2
    16    20    19    1
    17    13    22    1
    18    13    14    1
    19    22    16    1
    20    19    17    2
    21    14    15    1
    22    16    17    1
    23    16    15    2
    24    17    18    1
