@<TRIPOS>MOLECULE
1fvp_FMA_A_1.pdb
 47 49 0 0 0
SMALL
GASTEIGER

@<TRIPOS>ATOM
      1  N1        -7.5160   34.6610  102.0730 N.2   232  FMA232     -0.2887
      2  C2        -7.8910   33.7720  103.0040 C.1   232  FMA232      0.3669
      3  O2        -8.6900   32.9090  102.9720 O.2   232  FMA232     -0.1744
      4  N3        -7.2550   33.8110  104.3170 N.2   232  FMA232     -0.2300
      5  C4        -6.3120   34.7290  104.5710 C.1   232  FMA232      0.2513
      6  O4        -5.7830   34.7870  105.6470 O.2   232  FMA232     -0.2057
      7  C4A       -5.9340   35.6590  103.5650 C.2   232  FMA232      0.2706
      8  N5        -5.0210   36.5630  103.7820 N.2   232  FMA232     -0.3845
      9  C5A       -4.5860   37.4640  102.8980 C.2   232  FMA232      0.1412
     10  C6        -3.6290   38.4180  103.2110 C.2   232  FMA232      0.0013
     11  C7        -3.2130   39.2860  102.2380 C.2   232  FMA232     -0.0416
     12  C7M       -2.1290   40.3830  102.4890 C.3   232  FMA232      0.0264
     13  C8        -3.7800   39.2470  100.9120 C.3   232  FMA232      0.0414
     14  C8M       -3.3650   40.1940   99.8360 C.3   232  FMA232      0.0091
     15  C9        -4.7460   38.3080  100.6300 C.2   232  FMA232     -0.0050
     16  C9A       -5.1960   37.4220  101.5710 C.2   232  FMA232      0.0792
     17  N10       -6.1670   36.4340  101.3500 N.pl3 232  FMA232     -0.2545
     18  C10       -6.6040   35.5460  102.2440 C.2   232  FMA232      0.2449
     19  C1B       -6.8650   36.4670  100.0470 C.3   232  FMA232      0.1336
     20  C2B       -7.0430   35.5160   98.8720 C.3   232  FMA232      0.2048
     21  O2B       -6.8800   36.3720   97.7430 O.3   232  FMA232     -0.2185
     22  C3B       -8.4820   35.0090   98.9060 C.3   232  FMA232      0.2165
     23  O3'       -8.6310   34.1030   99.9320 O.3   232  FMA232     -0.2175
     24  C4B       -8.9070   34.3760   97.5800 C.3   232  FMA232      0.2147
     25  O4'       -8.7250   35.3990   96.5390 O.3   232  FMA232     -0.2176
     26  C5B      -10.3680   33.8930   97.6580 C.3   232  FMA232      0.1892
     27  O5'      -11.2210   35.1630   97.4530 O.3   232  FMA232     -0.2674
     28  P        -11.8270   35.6770   96.0850 P.3   232  FMA232      0.5327
     29  O1P      -10.8340   36.8550   95.7900 O.3   232  FMA232     -0.1145
     30  O2P      -11.6480   34.5840   95.1500 O.2   232  FMA232     -0.2224
     31  O3P      -13.1640   35.9610   96.2640 O.3   232  FMA232     -0.1145
     32  C1'       -4.6940   39.4760  106.3250 C.2   232  FMA232      0.3652
     33  O1'       -5.9490   39.7090  106.5640 O.co2 232  FMA232     -0.2456
     34  O2'       -3.8990   39.8300  107.1990 O.co2 232  FMA232     -0.2456
     35  C2'       -4.3940   38.3210  105.4270 C.3   232  FMA232      0.1184
     36  C3'       -3.0930   38.4260  104.5980 C.3   232  FMA232      0.0355
     37  C4'       -2.1610   37.3170  104.9300 C.3   232  FMA232      0.0050
     38  C5'       -0.7100   37.4730  104.5040 C.3   232  FMA232      0.0003
     39  C6'       -0.0530   36.1190  104.5820 C.3   232  FMA232      0.0000
     40  C7'        1.4610   36.2300  104.4680 C.3   232  FMA232      0.0000
     41  C8'        2.1330   34.9170  104.3410 C.3   232  FMA232      0.0000
     42  C9'        3.6610   34.9100  104.2930 C.3   232  FMA232      0.0000
     43  C11        4.1390   35.6700  103.0700 C.3   232  FMA232      0.0000
     44  C12        4.4580   37.1180  103.2800 C.3   232  FMA232      0.0000
     45  C13        4.4180   38.0160  102.0880 C.3   232  FMA232      0.0000
     46  C14        5.6880   37.9890  101.2650 C.3   232  FMA232      0.0000
     47  C15        6.1040   39.3510  100.7730 C.3   232  FMA232      0.0000
@<TRIPOS>BOND
     1    30    28    2
     2    29    28    1
     3    28    31    1
     4    28    27    1
     5    25    24    1
     6    27    26    1
     7    24    26    1
     8    24    22    1
     9    21    20    1
    10    20    22    1
    11    20    19    1
    12    22    23    1
    13    14    13    1
    14    19    17    1
    15    15    13    1
    16    15    16    2
    17    47    46    1
    18    13    11    1
    19    46    45    1
    20    17    16    1
    21    17    18    1
    22    16     9    1
    23     1    18    2
    24     1     2    2
    25    45    44    1
    26    11    12    1
    27    11    10    2
    28    18     7    1
    29     9    10    1
    30     9     8    2
    31     3     2    2
    32     2     4    2
    33    43    44    1
    34    43    42    1
    35    10    36    1
    36     7     8    2
    37     7     5    1
    38    42    41    1
    39     4     5    2
    40    41    40    1
    41    40    39    1
    42    38    39    1
    43    38    37    1
    44     5     6    2
    45    36    37    1
    46    36    35    1
    47    35    32    1
    48    32    33   ar
    49    32    34   ar
