@<TRIPOS>MOLECULE
1fvt_106_A_1.pdb
 23 25 0 0 0
SMALL
GASTEIGER

@<TRIPOS>ATOM
      1  N1        40.5760    9.9930  -15.5280 N.2   299  106299     -0.3316
      2  C2        39.7040   10.4960  -14.6080 C.1   299  106299      0.2248
      3  C3        39.9520    9.8500  -13.2980 C.2   299  106299      0.1991
      4  C4        41.7880    8.1020  -12.6060 C.ar  299  106299      0.0116
      5  C5        42.9280    7.3320  -13.1730 C.ar  299  106299      0.0348
      6  C6        43.3110    7.4350  -14.6070 C.ar  299  106299      0.0094
      7  C7        42.5190    8.3170  -15.4840 C.ar  299  106299      0.0336
      8  C8        41.4110    9.1160  -14.9240 C.ar  299  106299      0.1467
      9  C9        41.0630    8.9960  -13.5240 C.ar  299  106299      0.0626
     10  O11       38.8350   11.3520  -14.7510 O.2   299  106299     -0.2077
     11  N12       39.2210   10.0950  -12.0670 N.2   299  106299     -0.1350
     12 BR4        43.8710    6.1500  -12.0940 Br    299  106299     -0.0490
     13  N17       38.0050   10.3380  -12.0420 N.2   299  106299     -0.1473
     14  C19       37.2090   10.3250  -10.9450 C.ar  299  106299      0.1030
     15  C20       36.1770   11.3750  -10.8960 C.ar  299  106299      0.0223
     16  C21       35.1980   11.3790   -9.8020 C.ar  299  106299      0.0216
     17  C22       35.2720   10.3560   -8.7280 C.ar  299  106299      0.1251
     18  C23       36.3170    9.3020   -8.7600 C.ar  299  106299      0.0216
     19  C24       37.2810    9.2890   -9.8570 C.ar  299  106299      0.0223
     20  S27       33.8490   10.2290   -7.6860 S.O2  299  106299      0.0935
     21  O28       32.7720    9.8000   -8.5350 O.2   299  106299     -0.1503
     22  O29       33.7460   11.5170   -7.0650 O.2   299  106299     -0.1503
     23  N30       34.0410    9.1420   -6.4690 N.3   299  106299      0.0392
@<TRIPOS>BOND
     1     1     8    2
     2     1     2    2
     3     7     8   ar
     4     7     6   ar
     5     8     9   ar
     6    10     2    2
     7     2     3    1
     8     6     5   ar
     9     9     3    2
    10     9     4   ar
    11     3    11    1
    12     5     4   ar
    13     5    12    1
    14    11    13    2
    15    13    14    1
    16    14    15   ar
    17    14    19   ar
    18    15    16   ar
    19    19    18   ar
    20    16    17   ar
    21    18    17   ar
    22    17    20    1
    23    21    20    2
    24    20    22    2
    25    20    23    1
