@<TRIPOS>MOLECULE
1fvv_107_A_1.pdb
 31 35 0 0 0
SMALL
GASTEIGER

@<TRIPOS>ATOM
      1  O1       -11.2220  207.9760  109.2120 O.2   501  107501     -0.2093
      2  C2       -12.1710  207.5020  109.8420 C.1   501  107501      0.2060
      3  N3       -13.3600  207.1380  109.3200 N.2   501  107501     -0.3331
      4  C4       -14.2170  206.7500  110.3000 C.2   501  107501      0.1424
      5  C5       -15.6380  206.3600  110.1900 C.2   501  107501      0.0340
      6  C6       -16.3860  205.9670  111.3900 C.2   501  107501      0.0181
      7  C7       -15.7410  206.0270  112.6900 C.2   501  107501      0.0688
      8  N8       -16.2320  205.7140  113.9500 N.2   501  107501     -0.2616
      9  C9       -15.3040  205.8370  114.9320 C.3   501  107501      0.1833
     10  S10      -13.8140  206.4530  114.4280 S.3   501  107501     -0.1044
     11  C11      -14.2920  206.4680  112.8160 C.3   501  107501      0.1144
     12  C12      -13.5570  206.8060  111.5860 C.2   501  107501      0.0371
     13  C13      -12.2030  207.2550  111.3270 C.2   501  107501      0.1134
     14  C14      -11.1760  207.4750  112.1700 C.2   501  107501      0.1112
     15  N15      -10.1070  208.4390  111.7920 N.2   501  107501     -0.2431
     16  C16       -9.0990  208.8850  112.5560 C.ar  501  107501      0.0815
     17  C17       -9.2420  209.2080  114.0130 C.ar  501  107501      0.0205
     18  C18       -8.0670  209.5940  114.7840 C.ar  501  107501      0.0218
     19  C19       -6.7650  209.7680  114.0980 C.ar  501  107501      0.1272
     20  C20       -6.6070  209.4480  112.6660 C.ar  501  107501      0.0218
     21  C21       -7.7830  209.0220  111.8860 C.ar  501  107501      0.0205
     22  S22       -5.4220  210.3800  115.0540 S.O2  501  107501      0.0942
     23  O23       -4.2100  210.2890  114.2980 O.2   501  107501     -0.1483
     24  O24       -5.8540  211.6490  115.5540 O.2   501  107501     -0.1483
     25  N25       -5.2170  209.3650  116.3500 N.pl3 501  107501     -0.0772
     26  C27       -3.5620  206.0480  115.3440 C.ar  501  107501      0.0046
     27  C28       -3.8620  205.2520  116.5560 C.ar  501  107501      0.0208
     28  C29       -4.7090  205.8750  117.5970 C.ar  501  107501      0.1004
     29  N30       -5.1930  207.2180  117.4430 N.ar  501  107501     -0.2259
     30  C31       -4.8230  208.0270  116.3130 C.ar  501  107501      0.1716
     31  C32       -4.0220  207.4320  115.1920 C.ar  501  107501      0.0376
@<TRIPOS>BOND
     1     1     2    2
     2     3     2    2
     3     3     4    2
     4     2    13    1
     5     5     4    1
     6     5     6    2
     7     4    12    1
     8    13    12    2
     9    13    14    1
    10     6     7    1
    11    12    11    1
    12    15    14    2
    13    15    16    1
    14    21    16   ar
    15    21    20   ar
    16    16    17   ar
    17    20    19   ar
    18     7    11    1
    19     7     8    2
    20    11    10    1
    21     8     9    1
    22    17    18   ar
    23    19    18   ar
    24    19    22    1
    25    23    22    2
    26    10     9    1
    27    22    24    2
    28    22    25    1
    29    31    26   ar
    30    31    30   ar
    31    26    27   ar
    32    30    25    1
    33    30    29   ar
    34    27    28   ar
    35    29    28   ar
