@<TRIPOS>MOLECULE
1fvx_FMN_A_1.pdb
 31 33 0 0 0
SMALL
GASTEIGER

@<TRIPOS>ATOM
      1  N1        27.8200   14.2340   15.9500 N.2   139  FMN139     -0.2890
      2  C2        27.9270   14.0720   17.2770 C.1   139  FMN139      0.3669
      3  O2        26.9340   13.8640   17.9620 O.2   139  FMN139     -0.1744
      4  N3        29.2010   14.1170   17.8710 N.2   139  FMN139     -0.2300
      5  C4        30.3810   14.2330   17.1710 C.1   139  FMN139      0.2513
      6  O4        31.4600   14.2010   17.7480 O.2   139  FMN139     -0.2057
      7  C4A       30.2550   14.3970   15.7060 C.2   139  FMN139      0.2700
      8  N5        31.3320   14.5430   14.9500 N.2   139  FMN139     -0.3878
      9  C5A       31.1690   14.7170   13.5940 C.2   139  FMN139      0.1320
     10  C6        32.3070   14.8360   12.7620 C.2   139  FMN139      0.0250
     11  C7        32.1790   15.1000   11.4190 C.2   139  FMN139     -0.0238
     12  C7M       33.3950   15.1910   10.5560 C.3   139  FMN139      0.0308
     13  C8        30.8860   15.2680   10.8510 C.2   139  FMN139     -0.0280
     14  C8M       30.6740   15.6090    9.3990 C.3   139  FMN139      0.0304
     15  C9        29.7640   15.1060   11.6430 C.2   139  FMN139     -0.0041
     16  C9A       29.8730   14.8470   13.0140 C.3   139  FMN139      0.1497
     17  N10       28.7660   14.6390   13.8330 N.pl3 139  FMN139     -0.2691
     18  C10       28.8890   14.3920   15.1820 C.2   139  FMN139      0.2416
     19  C1'       27.4470   14.6220   13.2000 C.3   139  FMN139      0.1294
     20  C2'       26.8540   16.0220   13.0130 C.3   139  FMN139      0.2044
     21  O2'       26.8950   16.7480   14.2420 O.3   139  FMN139     -0.2185
     22  C3'       25.4070   15.8940   12.5670 C.3   139  FMN139      0.2164
     23  O3'       25.3540   15.1740   11.3370 O.3   139  FMN139     -0.2175
     24  C4'       24.6140   17.2080   12.4390 C.3   139  FMN139      0.2147
     25  O4'       23.2590   16.9160   12.0960 O.3   139  FMN139     -0.2176
     26  C5'       25.2190   18.1110   11.3630 C.3   139  FMN139      0.1892
     27  O5'       24.5100   19.3330   11.3340 O.3   139  FMN139     -0.2674
     28  P         24.8490   20.3800   10.2440 P.3   139  FMN139      0.5327
     29  O1P       26.3110   20.4390   10.1100 O.3   139  FMN139     -0.1145
     30  O2P       24.2090   21.6010   10.7370 O.3   139  FMN139     -0.1145
     31  O3P       24.2540   19.9940    8.8860 O.2   139  FMN139     -0.2224
@<TRIPOS>BOND
     1    31    28    2
     2    14    13    1
     3    29    28    1
     4    28    30    1
     5    28    27    1
     6    12    11    1
     7    13    11    1
     8    13    15    2
     9    27    26    1
    10    23    22    1
    11    26    24    1
    12    11    10    2
    13    15    16    1
    14    25    24    1
    15    24    22    1
    16    22    20    1
    17    10     9    1
    18    20    19    1
    19    20    21    1
    20    16     9    1
    21    16    17    1
    22    19    17    1
    23     9     8    2
    24    17    18    1
    25     8     7    2
    26    18     7    1
    27    18     1    2
    28     7     5    1
    29     1     2    2
    30     5     6    2
    31     5     4    2
    32     2     4    2
    33     2     3    2
