@<TRIPOS>MOLECULE
1fw0_KAI_A_1.pdb
 15 15 0 0 0
SMALL
GASTEIGER

@<TRIPOS>ATOM
      1  N         14.3510   -1.8980   16.0370 N.3   999  KAI999     -0.2080
      2  CD        15.6050   -1.2130   15.5700 C.3   999  KAI999      0.0933
      3  CD1       18.2910   -1.0880   14.4340 C.2   999  KAI999     -0.0091
      4  CD2       19.1920   -3.1290   15.5420 C.3   999  KAI999      0.0264
      5  CA        14.6010   -3.3280   16.0990 C.3   999  KAI999      0.1766
      6  CB        15.9500   -3.6860   15.4710 C.3   999  KAI999      0.0434
      7  CB1       16.0730   -3.9080   13.8710 C.3   999  KAI999      0.1164
      8  CG        16.6900   -2.3860   15.7120 C.3   999  KAI999      0.0382
      9  CG1       15.7190   -5.3410   13.4220 C.2   999  KAI999      0.3649
     10  CG2       18.1350   -2.1320   15.1890 C.2   999  KAI999     -0.0428
     11  C         14.5070   -3.8180   17.5860 C.2   999  KAI999      0.3803
     12  O         14.1850   -2.9580   18.4350 O.co2 999  KAI999     -0.2441
     13  OD1       15.3840   -5.4570   12.2380 O.co2 999  KAI999     -0.2457
     14  OD2       15.8400   -6.2770   14.2380 O.co2 999  KAI999     -0.2457
     15  OXT       14.7720   -5.0250   17.8170 O.co2 999  KAI999     -0.2441
@<TRIPOS>BOND
     1    13     9   ar
     2     9     7    1
     3     9    14   ar
     4     7     6    1
     5     3    10    2
     6    10     4    1
     7    10     8    1
     8     6     8    1
     9     6     5    1
    10     2     8    1
    11     2     1    1
    12     1     5    1
    13     5    11    1
    14    11    15   ar
    15    11    12   ar
