@<TRIPOS>MOLECULE
1fw1_GSH_A_1.pdb
 20 19 0 0 0
SMALL
GASTEIGER

@<TRIPOS>ATOM
      1  N1        33.2700   32.7090    5.3380 N.3   217  GSH217     -0.1208
      2  CA1       33.4150   32.4790    6.8040 C.3   217  GSH217      0.1948
      3  C1        34.9260   32.6270    7.1940 C.2   217  GSH217      0.3819
      4  O11       35.1710   33.0430    8.3770 O.co2 217  GSH217     -0.2441
      5  O12       35.7260   32.5070    6.2550 O.co2 217  GSH217     -0.2441
      6  CB1       32.8830   31.0440    7.1520 C.3   217  GSH217      0.0402
      7  CG1       32.9820   30.6950    8.6810 C.3   217  GSH217      0.0889
      8  CD1       32.1460   29.4430    9.1040 C.2   217  GSH217      0.2418
      9  OE1       31.4890   28.9090    8.1780 O.2   217  GSH217     -0.2733
     10  N2        32.6020   28.8060   10.1690 N.am  217  GSH217     -0.1968
     11  CA2       32.3730   27.4000   10.4010 C.3   217  GSH217      0.1843
     12  C2        31.4080   27.3180   11.5790 C.2   217  GSH217      0.2627
     13  O2        31.5250   28.1580   12.5760 O.2   217  GSH217     -0.2714
     14  CB2       33.6340   26.6100   10.8910 C.3   217  GSH217      0.0997
     15  SG2       34.5360   26.2410    9.4020 S.3   217  GSH217     -0.0797
     16  N3        30.1560   26.9030   11.2460 N.am  217  GSH217     -0.1917
     17  CA3       29.0960   26.7710   12.2810 C.3   217  GSH217      0.2285
     18  C3        27.9470   25.8740   11.8180 C.2   217  GSH217      0.3865
     19  O31       26.8650   25.9950   12.5000 O.co2 217  GSH217     -0.2437
     20  O32       27.8210   25.5960   10.5450 O.co2 217  GSH217     -0.2437
@<TRIPOS>BOND
     1     1     2    1
     2     5     3   ar
     3     2     6    1
     4     2     3    1
     5     6     7    1
     6     3     4   ar
     7     9     8    2
     8     7     8    1
     9     8    10   am
    10    15    14    1
    11    10    11    1
    12    11    14    1
    13    11    12    1
    14    20    18   ar
    15    16    12   am
    16    16    17    1
    17    12    13    2
    18    18    17    1
    19    18    19   ar
