@<TRIPOS>MOLECULE
1fw6_ADP_A_1.pdb
 27 29 0 0 0
SMALL
GASTEIGER

@<TRIPOS>ATOM
      1  PB        73.1540   47.2060   86.0090 P.3   999  ADP999      0.5373
      2  O1B       72.2690   48.1590   86.7450 O.3   999  ADP999     -0.1143
      3  O2B       72.7330   45.8590   85.6270 O.3   999  ADP999     -0.1143
      4  O3B       73.7900   48.0120   84.7830 O.2   999  ADP999     -0.2221
      5  PA        75.5200   46.2420   87.3340 P.3   999  ADP999      0.2231
      6  O1A       76.7790   46.9090   87.0430 O.3   999  ADP999     -0.4370
      7  O2A       75.2860   44.9090   86.7840 O.2   999  ADP999     -0.5169
      8  O3A       74.4330   47.2790   86.9140 O.3   999  ADP999     -0.2261
      9  O5'       75.1550   46.0770   88.8850 O.3   999  ADP999     -0.3111
     10  C5'       76.2950   45.7540   89.7060 C.3   999  ADP999      0.1813
     11  C4'       76.4190   44.6460   90.7200 C.3   999  ADP999      0.1821
     12  O4'       76.0180   43.3920   90.1270 O.3   999  ADP999     -0.3135
     13  C3'       77.9400   44.5500   90.7080 C.3   999  ADP999      0.2184
     14  O3'       78.5280   45.3900   91.7010 O.3   999  ADP999     -0.2174
     15  C2'       78.2960   43.1020   90.8870 C.3   999  ADP999      0.2570
     16  O2'       78.4390   42.7870   92.2610 O.3   999  ADP999     -0.2130
     17  C1'       77.0640   42.4390   90.2400 C.3   999  ADP999      0.3186
     18  N9        77.2840   41.7470   88.9610 N.pl3 999  ADP999     -0.1439
     19  C8        76.9830   42.1700   87.6880 C.3   999  ADP999      0.3377
     20  N7        77.2370   41.3270   86.7290 N.2   999  ADP999     -0.2095
     21  C5        77.7670   40.2520   87.4060 C.2   999  ADP999      0.2526
     22  C6        78.2370   38.9600   87.0030 C.2   999  ADP999      0.4393
     23  N6        78.2310   38.5800   85.7390 N.pl3 999  ADP999      0.2180
     24  N1        78.7120   38.0670   87.9250 N.2   999  ADP999      0.0021
     25  C2        78.7160   38.4320   89.2350 C.3   999  ADP999      0.5254
     26  N3        78.2860   39.6210   89.7220 N.2   999  ADP999     -0.0055
     27  C4        77.8260   40.4930   88.7790 C.2   999  ADP999      0.3518
@<TRIPOS>BOND
     1     4     1    2
     2     3     1    1
     3    23    22    1
     4     1     2    1
     5     1     8    1
     6    20    21    2
     7    20    19    1
     8     7     5    2
     9     8     5    1
    10    22    21    1
    11    22    24    2
    12     6     5    1
    13     5     9    1
    14    21    27    1
    15    19    18    1
    16    24    25    1
    17    27    18    1
    18    27    26    2
    19     9    10    1
    20    18    17    1
    21    25    26    1
    22    10    11    1
    23    12    17    1
    24    12    11    1
    25    17    15    1
    26    13    11    1
    27    13    15    1
    28    13    14    1
    29    15    16    1
