@<TRIPOS>MOLECULE
1fwk_ADP_A_1.pdb
 27 29 0 0 0
SMALL
GASTEIGER

@<TRIPOS>ATOM
      1  PB        36.1630   27.6550   60.2120 P.3   600  ADP600      0.5373
      2  O1B       35.1870   28.6520   60.9770 O.3   600  ADP600     -0.1143
      3  O2B       36.7410   26.5860   61.2560 O.3   600  ADP600     -0.1143
      4  O3B       37.2990   28.5390   59.5340 O.2   600  ADP600     -0.2221
      5  PA        34.2300   25.8870   59.6010 P.3   600  ADP600      0.2231
      6  O1A       34.7830   24.6730   60.5160 O.2   600  ADP600     -0.5169
      7  O2A       33.1980   26.6670   60.6000 O.3   600  ADP600     -0.4370
      8  O3A       35.3420   26.9120   59.1120 O.3   600  ADP600     -0.2261
      9  O5'       33.4090   25.3710   58.3780 O.3   600  ADP600     -0.3111
     10  C5'       32.1720   26.0470   58.3150 C.3   600  ADP600      0.1813
     11  C4'       31.2340   25.6520   57.2470 C.3   600  ADP600      0.1821
     12  O4'       30.1630   26.6260   57.3420 O.3   600  ADP600     -0.3135
     13  C3'       31.8020   25.6430   55.8230 C.3   600  ADP600      0.2184
     14  O3'       31.3750   24.4340   55.1870 O.3   600  ADP600     -0.2174
     15  C2'       31.2300   26.8980   55.1920 C.3   600  ADP600      0.2570
     16  O2'       30.9250   26.7670   53.8020 O.3   600  ADP600     -0.2130
     17  C1'       30.0030   27.2430   56.0530 C.3   600  ADP600      0.3186
     18  N9        29.7800   28.7140   56.0290 N.pl3 600  ADP600     -0.1439
     19  C8        28.5860   29.4170   55.9590 C.3   600  ADP600      0.3377
     20  N7        28.5460   30.7890   55.9080 N.2   600  ADP600     -0.2095
     21  C5        29.9190   31.0140   55.9470 C.2   600  ADP600      0.2526
     22  C6        30.6670   32.2600   55.9140 C.2   600  ADP600      0.4393
     23  N6        30.0360   33.4220   55.8160 N.pl3 600  ADP600      0.2180
     24  N1        32.0230   32.2560   55.9710 N.2   600  ADP600      0.0021
     25  C2        32.6940   31.1030   56.0610 C.3   600  ADP600      0.5254
     26  N3        32.1880   29.8710   56.0940 N.2   600  ADP600     -0.0055
     27  C4        30.6910   29.7730   56.0390 C.2   600  ADP600      0.3518
@<TRIPOS>BOND
     1    16    15    1
     2    14    13    1
     3    15    13    1
     4    15    17    1
     5    23    22    1
     6    13    11    1
     7    20    21    2
     8    20    19    1
     9    22    21    1
    10    22    24    2
    11    21    27    1
    12    19    18    1
    13    24    25    1
    14    18    27    1
    15    18    17    1
    16    27    26    2
    17    17    12    1
    18    25    26    1
    19    11    12    1
    20    11    10    1
    21    10     9    1
    22     9     5    1
    23     8     5    1
    24     8     1    1
    25     4     1    2
    26     5     6    2
    27     5     7    1
    28     1     2    1
    29     1     3    1
