@<TRIPOS>MOLECULE
1fwm_CB3_A_1.pdb
 35 37 0 0 0
SMALL
GASTEIGER

@<TRIPOS>ATOM
      1  N1        16.2110   18.8320   28.5940 N.2   266  CB3266     -0.3245
      2  C2        17.2140   19.3770   27.9970 C.1   266  CB3266      0.2518
      3  NA2       17.0660   20.6670   27.3640 N.pl3 266  CB3266     -0.0226
      4  N3        18.4600   18.7810   27.9190 N.2   266  CB3266     -0.2501
      5  C4        18.6740   17.5670   28.4950 C.1   266  CB3266      0.2180
      6  O4        19.8210   17.0660   28.3980 O.2   266  CB3266     -0.2085
      7  C4A       17.6360   16.9550   29.1350 C.2   266  CB3266      0.1220
      8  C5        17.8490   15.7110   29.7380 C.2   266  CB3266     -0.0051
      9  C6        16.7610   15.1370   30.3810 C.3   266  CB3266      0.0646
     10  C7        15.4710   15.7640   30.4500 C.2   266  CB3266     -0.0177
     11  C8        15.3140   16.9770   29.8520 C.2   266  CB3266      0.0296
     12  C8A       16.3840   17.6070   29.1910 C.2   266  CB3266      0.1564
     13  C9        16.8310   13.8400   31.0610 C.3   266  CB3266      0.1004
     14  N10       17.1980   13.9230   32.5410 N.pl3 266  CB3266     -0.2959
     15  C11       14.2810   13.5560   35.6340 C.ar  266  CB3266      0.0551
     16  C12       13.8620   13.5900   34.3360 C.ar  266  CB3266      0.0058
     17  C13       14.8770   13.7080   33.3280 C.ar  266  CB3266      0.0147
     18  C14       16.2240   13.8020   33.6420 C.ar  266  CB3266      0.0486
     19  C15       16.6600   13.7760   35.0020 C.ar  266  CB3266      0.0147
     20  C16       15.6300   13.6460   36.0360 C.ar  266  CB3266      0.0058
     21  C         13.1140   13.3990   36.5740 C.2   266  CB3266      0.2652
     22  O         11.9080   13.3210   36.2420 O.2   266  CB3266     -0.2684
     23  N         13.5240   13.3070   37.8830 N.am  266  CB3266     -0.1918
     24  CA        12.4900   13.0990   38.8950 C.3   266  CB3266      0.1986
     25  CB        11.8050   11.6710   38.7170 C.3   266  CB3266      0.0451
     26  CG        12.9790   10.6700   38.5890 C.3   266  CB3266      0.1164
     27  CD        12.2980    9.2870   38.3510 C.2   266  CB3266      0.3649
     28  OE1       11.7050    8.7570   39.3750 O.co2 266  CB3266     -0.2457
     29  OE2       12.2780    8.6540   37.2540 O.co2 266  CB3266     -0.2457
     30  CT        13.0850   13.2060   40.2860 C.2   266  CB3266      0.3842
     31  O1        12.3030   13.0450   41.2510 O.co2 266  CB3266     -0.2437
     32  O2        14.2960   13.4440   40.4050 O.co2 266  CB3266     -0.2437
     33  CP1       18.6360   14.0540   33.0230 C.3   266  CB3266      0.1695
     34  CP2       19.1000   15.4720   33.3330 C.1   266  CB3266     -0.0557
     35  CP3       19.4260   16.6050   33.6240 C.1   266  CB3266     -0.0124
@<TRIPOS>BOND
     1     3     2    1
     2     4     2    2
     3     4     5    2
     4     2     1    2
     5     6     5    2
     6     5     7    1
     7     1    12    2
     8     7    12    1
     9     7     8    2
    10    12    11    1
    11     8     9    1
    12    11    10    2
    13     9    10    1
    14     9    13    1
    15    13    14    1
    16    14    33    1
    17    14    18    1
    18    33    34    1
    19    17    18   ar
    20    17    16   ar
    21    34    35    3
    22    18    19   ar
    23    16    15   ar
    24    19    20   ar
    25    15    20   ar
    26    15    21    1
    27    22    21    2
    28    21    23   am
    29    29    27   ar
    30    23    24    1
    31    27    26    1
    32    27    28   ar
    33    26    25    1
    34    25    24    1
    35    24    30    1
    36    30    32   ar
    37    30    31   ar
