@<TRIPOS>MOLECULE
1fwn_PEP_A_1.pdb
 10 9 0 0 0
SMALL
GASTEIGER

@<TRIPOS>ATOM
      1  C1        32.2720   51.6820   22.5110 C.2   1268  PEP1268     0.4216
      2  O1        33.0900   52.1710   23.3600 O.co2 1268  PEP1268    -0.2371
      3  O2'       31.0820   51.7480   22.6190 O.co2 1268  PEP1268    -0.2371
      4  C2        32.9630   50.9850   21.3200 C.2   1268  PEP1268     0.2283
      5  C3        34.2920   50.7020   21.2380 C.2   1268  PEP1268     0.0477
      6  O2        31.9760   50.4710   20.4690 O.2   1268  PEP1268    -0.3930
      7  P         32.1070   49.4580   19.2560 P.3   1268  PEP1268     0.5889
      8  O1P       32.7840   48.2480   19.7300 O.3   1268  PEP1268    -0.1039
      9  O2P       32.8480   50.0930   18.1270 O.2   1268  PEP1268    -0.2114
     10  O3P       30.5950   49.3870   18.8730 O.3   1268  PEP1268    -0.1039
@<TRIPOS>BOND
     1     9     7    2
     2    10     7    1
     3     7     8    1
     4     7     6    1
     5     6     4    1
     6     5     4    2
     7     4     1    1
     8     1     3   ar
     9     1     2   ar
