@<TRIPOS>MOLECULE
1fws_PEP_A_1.pdb
 10 9 0 0 0
SMALL
GASTEIGER

@<TRIPOS>ATOM
      1  C1        32.2960   51.7240   22.5290 C.2   1268  PEP1268     0.4216
      2  O1        33.1190   52.2910   23.3250 O.co2 1268  PEP1268    -0.2371
      3  O2'       31.1160   51.7050   22.6960 O.co2 1268  PEP1268    -0.2371
      4  C2        32.9530   51.0490   21.3100 C.2   1268  PEP1268     0.2283
      5  C3        34.2890   50.8240   21.1640 C.2   1268  PEP1268     0.0477
      6  O2        31.9440   50.5400   20.4870 O.2   1268  PEP1268    -0.3930
      7  P         32.1000   49.5030   19.2940 P.3   1268  PEP1268     0.5889
      8  O1P       32.7710   48.3060   19.8090 O.3   1268  PEP1268    -0.1039
      9  O2P       32.8570   50.1170   18.1750 O.2   1268  PEP1268    -0.2114
     10  O3P       30.6000   49.4180   18.8760 O.3   1268  PEP1268    -0.1039
@<TRIPOS>BOND
     1     9     7    2
     2    10     7    1
     3     7     8    1
     4     7     6    1
     5     6     4    1
     6     5     4    2
     7     4     1    1
     8     1     3   ar
     9     1     2   ar
