@<TRIPOS>MOLECULE
1fwt_PEP_A_1.pdb
 10 9 0 0 0
SMALL
GASTEIGER

@<TRIPOS>ATOM
      1  C1        32.3520   51.5370   22.4710 C.2   1268  PEP1268     0.4216
      2  O1        33.1640   52.0570   23.3090 O.co2 1268  PEP1268    -0.2371
      3  O2'       31.1670   51.5400   22.6060 O.co2 1268  PEP1268    -0.2371
      4  C2        33.0160   50.8570   21.2550 C.2   1268  PEP1268     0.2283
      5  C3        34.3450   50.6000   21.1270 C.2   1268  PEP1268     0.0477
      6  O2        32.0030   50.3530   20.4290 O.2   1268  PEP1268    -0.3930
      7  P         32.1190   49.3250   19.2280 P.3   1268  PEP1268     0.5889
      8  O1P       32.7950   48.1210   19.7210 O.3   1268  PEP1268    -0.1039
      9  O2P       32.8460   49.9440   18.0910 O.2   1268  PEP1268    -0.2114
     10  O3P       30.6060   49.2590   18.8490 O.3   1268  PEP1268    -0.1039
@<TRIPOS>BOND
     1     9     7    2
     2    10     7    1
     3     7     8    1
     4     7     6    1
     5     6     4    1
     6     5     4    2
     7     4     1    1
     8     1     3   ar
     9     1     2   ar
