@<TRIPOS>MOLECULE
1fwt_E4P_A_1.pdb
 12 11 0 0 0
SMALL
GASTEIGER

@<TRIPOS>ATOM
      1  C1        35.5730   51.7930   17.6590 C.2   1269  E4P1269     0.2427
      2  O1        34.5430   52.2780   18.1100 O.2   1269  E4P1269    -0.2854
      3  C2        36.8280   52.6140   17.3620 C.3   1269  E4P1269     0.2485
      4  O2        37.7140   52.7800   18.4760 O.3   1269  E4P1269    -0.2118
      5  C3        36.3730   53.6460   16.3180 C.3   1269  E4P1269     0.2197
      6  O3        36.4150   53.4480   14.9030 O.3   1269  E4P1269    -0.2172
      7  C4        37.0360   54.9570   16.7200 C.3   1269  E4P1269     0.1896
      8  O4        38.4510   54.8430   16.5850 O.3   1269  E4P1269    -0.2674
      9  P         39.4190   55.5870   15.5670 P.3   1269  E4P1269     0.5327
     10  O1P       39.0070   57.0140   15.6020 O.3   1269  E4P1269    -0.1145
     11  O2P       40.7670   55.3400   16.1350 O.3   1269  E4P1269    -0.1145
     12  O3P       39.1800   54.9030   14.2770 O.2   1269  E4P1269    -0.2224
@<TRIPOS>BOND
     1    12     9    2
     2     6     5    1
     3     9    10    1
     4     9    11    1
     5     9     8    1
     6     5     7    1
     7     5     3    1
     8     8     7    1
     9     3     1    1
    10     3     4    1
    11     1     2    2
