@<TRIPOS>MOLECULE
1fwu_SGA_A_1.pdb
 16 16 0 0 0
SMALL
GASTEIGER

@<TRIPOS>ATOM
      1  C1         0.0740    6.0250   10.0480 C.3   2001  SGA2001     0.3023
      2  C2        -0.0700    7.5190    9.8370 C.3   2001  SGA2001     0.2426
      3  C3         0.7640    8.2970   10.8820 C.3   2001  SGA2001     0.2112
      4  C4         0.2420    7.9120   12.2990 C.3   2001  SGA2001     0.2136
      5  C5         0.4020    6.3540   12.4730 C.3   2001  SGA2001     0.1835
      6  C6        -0.1070    5.8080   13.8320 C.3   2001  SGA2001     0.2142
      7  O1        -0.7060    5.2910    9.0700 O.3   2001  SGA2001    -0.1869
      8  O2         0.3700    7.8340    8.5160 O.3   2001  SGA2001    -0.2148
      9  O3         0.6210    9.7100   10.6740 O.3   2001  SGA2001    -0.2382
     10  O4        -1.1390    8.2480   12.4380 O.3   2001  SGA2001    -0.2176
     11  O5        -0.3500    5.6240   11.4090 O.3   2001  SGA2001    -0.3236
     12  O6        -0.0460    4.3840   13.8350 O.3   2001  SGA2001    -0.2176
     13  S          1.8070   10.6300   10.9440 S.3   2001  SGA2001    -0.0001
     14  O1S        2.9600   10.2560   10.0910 O.2   2001  SGA2001    -0.3452
     15  O2S        1.4220   12.0140   10.6430 O.2   2001  SGA2001    -0.3452
     16  O3S        2.1870   10.5720   12.3450 O.3   2001  SGA2001    -0.2682
@<TRIPOS>BOND
     1     8     2    1
     2     7     1    1
     3     2     1    1
     4     2     3    1
     5     1    11    1
     6    14    13    2
     7    15    13    2
     8     9     3    1
     9     9    13    1
    10     3     4    1
    11    13    16    1
    12    11     5    1
    13     4    10    1
    14     4     5    1
    15     5     6    1
    16     6    12    1
