@<TRIPOS>MOLECULE
1fwu_MAG_A_1.pdb
 13 13 0 0 0
SMALL
GASTEIGER

@<TRIPOS>ATOM
      1  C1        -1.3110    1.4150    7.4750 C.3   2002  MAG2002     0.2890
      2  C2        -1.8380    1.8570    8.8690 C.3   2002  MAG2002     0.1544
      3  C3        -1.8480    3.4050    8.9600 C.3   2002  MAG2002     0.0295
      4  C4        -0.3550    3.8850    8.7740 C.3   2002  MAG2002     0.0343
      5  C5         0.1320    3.4030    7.3480 C.3   2002  MAG2002     0.1508
      6  C6         1.5780    3.7970    7.0740 C.3   2002  MAG2002     0.2115
      7  C7        -3.1530    0.2000    8.3020 C.2   2002  MAG2002     0.2420
      8  C8        -3.9690    0.2460    7.0460 C.3   2002  MAG2002     0.0964
      9  N2        -3.1860    1.3250    9.0670 N.am  2002  MAG2002    -0.2019
     10  O1        -1.2810    0.0650    7.3590 O.3   2002  MAG2002    -0.1880
     11  O5         0.0510    1.9570    7.2490 O.3   2002  MAG2002    -0.3270
     12  O6         2.0250    3.3630    5.7800 O.3   2002  MAG2002    -0.2177
     13  O7        -2.4950   -0.8420    8.5840 O.2   2002  MAG2002    -0.2733
@<TRIPOS>BOND
     1    12     6    1
     2     8     7    1
     3     6     5    1
     4    11     5    1
     5    11     1    1
     6     5     4    1
     7    10     1    1
     8     1     2    1
     9     7    13    2
    10     7     9   am
    11     4     3    1
    12     2     3    1
    13     2     9    1
