@<TRIPOS>MOLECULE
1fwv_SGA_A_1.pdb
 16 16 0 0 0
SMALL
GASTEIGER

@<TRIPOS>ATOM
      1  C1        -0.8320    6.5040   10.2130 C.3   2001  SGA2001     0.3023
      2  C2        -0.7520    8.0050    9.9990 C.3   2001  SGA2001     0.2426
      3  C3         0.2330    8.6370   10.9840 C.3   2001  SGA2001     0.2112
      4  C4        -0.2420    8.3060   12.4150 C.3   2001  SGA2001     0.2136
      5  C5        -0.3140    6.7670   12.5720 C.3   2001  SGA2001     0.1835
      6  C6        -0.8260    6.2880   13.9470 C.3   2001  SGA2001     0.2142
      7  O1        -1.8060    5.9140    9.3310 O.3   2001  SGA2001    -0.1869
      8  O2        -0.3400    8.2850    8.6440 O.3   2001  SGA2001    -0.2148
      9  O3         0.3010   10.0500   10.8040 O.3   2001  SGA2001    -0.2382
     10  O4        -1.5400    8.8430   12.6340 O.3   2001  SGA2001    -0.2176
     11  O5        -1.2240    6.1750   11.5830 O.3   2001  SGA2001    -0.3236
     12  O6         0.0120    6.8160   14.9990 O.3   2001  SGA2001    -0.2176
     13  S          1.5960   10.7420   11.1330 S.3   2001  SGA2001    -0.0001
     14  O1S        2.7460   10.0460   10.4870 O.2   2001  SGA2001    -0.3452
     15  O2S        1.5640   12.1270   10.6300 O.2   2001  SGA2001    -0.3452
     16  O3S        1.8010   10.7780   12.5840 O.3   2001  SGA2001    -0.2682
@<TRIPOS>BOND
     1     8     2    1
     2     7     1    1
     3     2     1    1
     4     2     3    1
     5     1    11    1
     6    14    13    2
     7    15    13    2
     8     9     3    1
     9     9    13    1
    10     3     4    1
    11    13    16    1
    12    11     5    1
    13     4     5    1
    14     4    10    1
    15     5     6    1
    16     6    12    1
