@<TRIPOS>MOLECULE
1fww_PEP_A_1.pdb
 10 9 0 0 0
SMALL
GASTEIGER

@<TRIPOS>ATOM
      1  C1        32.3930   51.5330   22.4550 C.2   1268  PEP1268     0.4216
      2  O1        33.1500   52.0560   23.3460 O.co2 1268  PEP1268    -0.2371
      3  O2'       31.2100   51.5650   22.6090 O.co2 1268  PEP1268    -0.2371
      4  C2        33.0710   50.8710   21.2450 C.2   1268  PEP1268     0.2283
      5  C3        34.3700   50.4810   21.2480 C.2   1268  PEP1268     0.0477
      6  O2        32.0890   50.3800   20.3810 O.2   1268  PEP1268    -0.3930
      7  P         32.1060   49.3130   19.2120 P.3   1268  PEP1268     0.5889
      8  O1P       32.7170   48.0770   19.7180 O.3   1268  PEP1268    -0.1039
      9  O2P       32.7530   50.1140   18.1480 O.2   1268  PEP1268    -0.2114
     10  O3P       30.5990   49.1580   18.8310 O.3   1268  PEP1268    -0.1039
@<TRIPOS>BOND
     1     9     7    2
     2    10     7    1
     3     7     8    1
     4     7     6    1
     5     6     4    1
     6     4     5    2
     7     4     1    1
     8     1     3   ar
     9     1     2   ar
