@<TRIPOS>MOLECULE
1fww_A5P_A_1.pdb
 14 13 0 0 0
SMALL
GASTEIGER

@<TRIPOS>ATOM
      1  C1        35.7300   51.3450   18.0730 C.2   1269  A5P1269     0.2427
      2  O1        35.2660   50.4760   17.3740 O.2   1269  A5P1269    -0.2854
      3  C2        35.2320   52.7610   17.9690 C.3   1269  A5P1269     0.2486
      4  O2        33.8920   52.8540   18.4370 O.3   1269  A5P1269    -0.2118
      5  C3        36.5910   53.4450   18.1240 C.3   1269  A5P1269     0.2224
      6  O3        37.2330   53.6080   19.3890 O.3   1269  A5P1269    -0.2171
      7  C4        36.4380   54.7960   17.4240 C.3   1269  A5P1269     0.2151
      8  O4        35.2890   55.4240   16.8610 O.3   1269  A5P1269    -0.2176
      9  C5        37.0830   54.4850   16.0830 C.3   1269  A5P1269     0.1892
     10  O5        38.4580   54.6750   16.3910 O.3   1269  A5P1269    -0.2674
     11  P         39.4090   55.6040   15.5360 P.3   1269  A5P1269     0.5327
     12  O1P       40.7430   55.4100   16.1540 O.3   1269  A5P1269    -0.1145
     13  O2P       39.2870   55.0840   14.1540 O.2   1269  A5P1269    -0.2224
     14  O3P       38.9200   56.9980   15.6840 O.3   1269  A5P1269    -0.1145
@<TRIPOS>BOND
     1    13    11    2
     2    11    14    1
     3    11    12    1
     4    11    10    1
     5     9    10    1
     6     9     7    1
     7     8     7    1
     8     2     1    2
     9     7     5    1
    10     3     1    1
    11     3     5    1
    12     3     4    1
    13     5     6    1
