@<TRIPOS>MOLECULE
1fwy_UD1_A_1.pdb
 39 41 0 0 0
SMALL
GASTEIGER

@<TRIPOS>ATOM
      1  C1'       83.6700   14.8890  183.2420 C.3   501  UD1501      0.2633
      2  C2'       84.2510   15.0460  184.6550 C.3   501  UD1501      0.1845
      3  C3'       83.5160   16.0760  185.4950 C.3   501  UD1501      0.2094
      4  C4'       83.5880   17.4270  184.7970 C.3   501  UD1501      0.2136
      5  C5'       82.8720   17.2580  183.3890 C.3   501  UD1501      0.1834
      6  C6'       82.9040   18.5540  182.5530 C.3   501  UD1501      0.2142
      7  C7'       85.0590   12.7080  184.8590 C.2   501  UD1501      0.2420
      8  C8'       84.8750   11.3870  185.5310 C.3   501  UD1501      0.0964
      9  N2'       84.2260   13.6770  185.2600 N.am  501  UD1501     -0.1992
     10  O1'       82.4390   14.1640  183.4380 O.3   501  UD1501     -0.2864
     11  O3'       84.1790   16.1230  186.7690 O.3   501  UD1501     -0.2183
     12  O4'       82.8980   18.4130  185.6040 O.3   501  UD1501     -0.2176
     13  O5'       83.5530   16.2080  182.6220 O.3   501  UD1501     -0.3260
     14  O6'       82.0190   18.4470  181.4370 O.3   501  UD1501     -0.2176
     15  O7'       85.9300   12.8330  183.9860 O.2   501  UD1501     -0.2733
     16  N1        84.6320   11.0700  176.7320 N.am  501  UD1501     -0.1766
     17  C2        85.3670   10.1190  176.0190 C.1   501  UD1501      0.2845
     18  N3        85.2150    8.8080  176.3520 N.2   501  UD1501     -0.2452
     19  C4        84.4080    8.3440  177.3070 C.1   501  UD1501      0.2182
     20  C5        83.5970    9.3100  178.0990 C.2   501  UD1501      0.1242
     21  C6        83.7030   10.6320  177.8170 C.2   501  UD1501      0.0929
     22  O2        86.1470   10.3810  175.1230 O.2   501  UD1501     -0.1918
     23  O4        84.3430    7.1590  177.5220 O.2   501  UD1501     -0.2085
     24  C1B       84.7840   12.4900  176.3900 C.3   501  UD1501      0.2401
     25  C2B       83.5490   13.1960  175.7810 C.3   501  UD1501      0.2319
     26  O2'       83.4850   12.9300  174.3890 O.3   501  UD1501     -0.2157
     27  C3B       83.7750   14.6800  176.1730 C.3   501  UD1501      0.2158
     28  C4B       84.5580   14.5290  177.5050 C.3   501  UD1501      0.1799
     29  O4B       85.1210   13.2150  177.5370 O.3   501  UD1501     -0.3320
     30  O3B       84.6440   15.2960  175.2130 O.3   501  UD1501     -0.2175
     31  C5B       83.6670   14.6190  178.7670 C.3   501  UD1501      0.1813
     32  O5B       82.6810   13.5870  178.8730 O.3   501  UD1501     -0.3112
     33  PA        81.3210   13.8630  179.5280 P.3   501  UD1501      0.2189
     34  O1A       80.5900   12.5490  179.4410 O.3   501  UD1501     -0.4371
     35  O2A       80.6400   14.9190  178.7750 O.2   501  UD1501     -0.5170
     36  O3A       81.6270   14.3080  180.9430 O.3   501  UD1501     -0.2703
     37  PB        81.5810   13.5360  182.2920 P.3   501  UD1501      0.2208
     38  O1B       82.0930   12.1500  182.1140 O.2   501  UD1501     -0.5170
     39  O2B       80.1920   13.5630  182.8530 O.3   501  UD1501     -0.4371
@<TRIPOS>BOND
     1    26    25    1
     2    22    17    2
     3    30    27    1
     4    25    27    1
     5    25    24    1
     6    17    18    2
     7    17    16   am
     8    27    28    1
     9    18    19    2
    10    24    16    1
    11    24    29    1
    12    16    21    1
    13    19    23    2
    14    19    20    1
    15    28    29    1
    16    28    31    1
    17    21    20    2
    18    31    32    1
    19    35    33    2
    20    32    33    1
    21    34    33    1
    22    33    36    1
    23    36    37    1
    24    14     6    1
    25    38    37    2
    26    37    39    1
    27    37    10    1
    28     6     5    1
    29    13     1    1
    30    13     5    1
    31     1    10    1
    32     1     2    1
    33     5     4    1
    34    15     7    2
    35     2     9    1
    36     2     3    1
    37     4     3    1
    38     4    12    1
    39     7     9   am
    40     7     8    1
    41     3    11    1
