@<TRIPOS>MOLECULE
1fx1_FMN_A_1.pdb
 31 33 0 0 0
SMALL
GASTEIGER

@<TRIPOS>ATOM
      1  N1        26.4200   13.3700   14.8300 N.2   149  FMN149     -0.2890
      2  C2        25.3600   14.0700   15.4200 C.1   149  FMN149      0.3669
      3  O2        25.4600   14.5200   16.7400 O.2   149  FMN149     -0.1744
      4  N3        24.2000   14.3300   14.6800 N.2   149  FMN149     -0.2300
      5  C4        24.0900   13.8800   13.3600 C.1   149  FMN149      0.2513
      6  O4        22.9300   14.1400   12.6200 O.2   149  FMN149     -0.2057
      7  C4A       25.1500   13.1700   12.7700 C.2   149  FMN149      0.2700
      8  N5        25.0400   12.7200   11.4500 N.2   149  FMN149     -0.3878
      9  C5A       26.0900   12.0000   10.8700 C.2   149  FMN149      0.1320
     10  C6        25.9700   11.5400    9.5500 C.2   149  FMN149      0.0250
     11  C7        27.0200   10.8400    8.9600 C.2   149  FMN149     -0.0238
     12  C7M       26.9000   10.3800    7.6400 C.3   149  FMN149      0.0308
     13  C8        28.2000   10.6100    9.6700 C.2   149  FMN149     -0.0280
     14  C8M       29.2600    9.9100    9.0800 C.3   149  FMN149      0.0304
     15  C9        28.3200   11.0700   10.9900 C.2   149  FMN149     -0.0041
     16  C9A       27.2600   11.7600   11.6000 C.3   149  FMN149      0.1497
     17  N10       27.3800   12.2200   12.9200 N.pl3 149  FMN149     -0.2691
     18  C10       26.3100   12.9200   13.5100 C.2   149  FMN149      0.2416
     19  C1'       28.5600   12.0000   13.6300 C.3   149  FMN149      0.1294
     20  C2'       28.4700   10.7200   14.4600 C.3   149  FMN149      0.2044
     21  O2'       27.4800   10.8900   15.4800 O.3   149  FMN149     -0.2185
     22  C3'       29.8400   10.4100   15.1000 C.3   149  FMN149      0.2164
     23  O3'       30.5600    9.5400   14.2300 O.3   149  FMN149     -0.2175
     24  C4'       29.6500    9.7500   16.4600 C.3   149  FMN149      0.2147
     25  O4'       30.6500   10.2200   17.3600 O.3   149  FMN149     -0.2176
     26  C5'       29.7400    8.3300   16.3300 C.3   149  FMN149      0.1892
     27  O5'       29.4700    7.7000   17.5900 O.3   149  FMN149     -0.2674
     28  P         29.4700    6.0100   17.4000 P.3   149  FMN149      0.5327
     29  O1P       30.9900    5.4800   16.8600 O.3   149  FMN149     -0.1145
     30  O2P       29.1000    5.2900   18.8900 O.3   149  FMN149     -0.1145
     31  O3P       28.2700    5.5800   16.2700 O.2   149  FMN149     -0.2224
@<TRIPOS>BOND
     1    12    11    1
     2    11    10    2
     3    11    13    1
     4    14    13    1
     5    10     9    1
     6    13    15    2
     7     9     8    2
     8     9    16    1
     9    15    16    1
    10     8     7    2
    11    16    17    1
    12     6     5    2
    13     7     5    1
    14     7    18    1
    15    17    18    1
    16    17    19    1
    17     5     4    2
    18    18     1    2
    19    19    20    1
    20    23    22    1
    21    20    22    1
    22    20    21    1
    23     4     2    2
    24     1     2    2
    25    22    24    1
    26     2     3    2
    27    31    28    2
    28    26    24    1
    29    26    27    1
    30    24    25    1
    31    29    28    1
    32    28    27    1
    33    28    30    1
