@<TRIPOS>MOLECULE
1fx9_MJI_A_1.pdb
 32 31 0 0 0
SMALL
GASTEIGER

@<TRIPOS>ATOM
      1  C1        38.3820   35.4660   34.6090 C.3   193  MJI193      0.1745
      2  O1        39.0590   35.9800   33.4970 O.3   193  MJI193     -0.3511
      3  C2        39.2170   34.3720   35.2090 C.3   193  MJI193      0.1806
      4  O2        38.3990   33.3210   35.7390 O.3   193  MJI193     -0.3114
      5  C3        40.0940   33.7850   34.1280 C.3   193  MJI193      0.1749
      6  O3        41.3000   33.4170   34.7620 O.3   193  MJI193     -0.3430
      7  C31       41.5090   34.2060   35.9070 C.3   193  MJI193      0.2459
      8  C32       42.6780   33.6490   36.6470 C.3   193  MJI193      0.4248
      9  F31       42.6440   33.9670   37.9480 F     193  MJI193     -0.1674
     10  F32       43.8360   34.1060   36.1650 F     193  MJI193     -0.1674
     11  F33       42.7310   32.3140   36.5660 F     193  MJI193     -0.1674
     12  P2        38.1290   33.2000   37.3160 P.3   193  MJI193      0.2141
     13  O21       37.2250   32.0060   37.5610 O.2   193  MJI193     -0.5172
     14  O22       37.7010   34.5390   37.8470 O.3   193  MJI193     -0.4373
     15  C2P       39.9910   31.4370   37.7820 C.3   193  MJI193      0.1815
     16  O23       39.5730   32.8130   37.8860 O.3   193  MJI193     -0.3114
     17  C11       38.1930   36.5520   32.5520 C.3   193  MJI193      0.1423
     18  C12       38.8640   37.7390   31.8870 C.3   193  MJI193      0.0321
     19  C13       37.8390   38.5190   31.0840 C.3   193  MJI193      0.0026
     20  C14       38.4600   39.7070   30.3700 C.3   193  MJI193      0.0001
     21  C15       38.7590   39.3210   28.9270 C.3   193  MJI193      0.0000
     22  C16       39.4630   40.4750   28.2300 C.3   193  MJI193      0.0000
     23  C17       38.4460   41.3010   27.4570 C.3   193  MJI193      0.0000
     24  C18       39.0780   41.8290   26.1770 C.3   193  MJI193      0.0000
     25  C19       39.7010   43.1950   26.4450 C.3   193  MJI193      0.0000
     26  C20       41.1580   43.1880   25.9870 C.3   193  MJI193      0.0000
     27  C21       41.9050   42.0650   26.6880 C.3   193  MJI193      0.0000
     28  C22       43.3370   42.4930   26.9910 C.3   193  MJI193      0.0000
     29  C23       43.8120   41.6570   28.1830 C.3   193  MJI193      0.0000
     30  C24       43.2790   40.2480   27.9360 C.3   193  MJI193      0.0000
     31  C25       44.1330   39.6370   26.8300 C.3   193  MJI193      0.0000
     32  C26       43.9550   38.1260   26.8030 C.3   193  MJI193      0.0000
@<TRIPOS>BOND
     1    26    25    1
     2    26    27    1
     3    24    25    1
     4    24    23    1
     5    27    28    1
     6    32    31    1
     7    31    30    1
     8    28    29    1
     9    23    22    1
    10    30    29    1
    11    22    21    1
    12    21    20    1
    13    20    19    1
    14    19    18    1
    15    18    17    1
    16    17     2    1
    17     2     1    1
    18     5     6    1
    19     5     3    1
    20     1     3    1
    21     6     7    1
    22     3     4    1
    23     4    12    1
    24     7     8    1
    25    10     8    1
    26    11     8    1
    27     8     9    1
    28    12    13    2
    29    12    14    1
    30    12    16    1
    31    15    16    1
