@<TRIPOS>MOLECULE
1fxf_MJI_A_1.pdb
 32 31 0 0 0
SMALL
GASTEIGER

@<TRIPOS>ATOM
      1  C1        37.3590   35.3540   34.4220 C.3   297  MJI297      0.1745
      2  O1        37.8800   36.6110   34.0690 O.3   297  MJI297     -0.3511
      3  C2        38.3110   34.6660   35.3540 C.3   297  MJI297      0.1806
      4  O2        37.8060   33.4000   35.8410 O.3   297  MJI297     -0.3114
      5  C3        39.5950   34.3900   34.6160 C.3   297  MJI297      0.1749
      6  O3        40.4760   33.7700   35.5310 O.3   297  MJI297     -0.3430
      7  C31       41.6410   34.5430   35.6430 C.3   297  MJI297      0.2459
      8  C32       42.5920   33.8500   36.5590 C.3   297  MJI297      0.4248
      9  F31       42.5450   34.3830   37.7890 F     297  MJI297     -0.1674
     10  F32       43.8480   33.9620   36.1140 F     297  MJI297     -0.1674
     11  F33       42.3070   32.5470   36.6940 F     297  MJI297     -0.1674
     12  P2        37.5720   33.3000   37.4460 P.3   297  MJI297      0.2141
     13  O21       36.7530   32.0710   37.7790 O.2   297  MJI297     -0.5172
     14  O22       37.0400   34.6510   37.8730 O.3   297  MJI297     -0.4373
     15  C2P       39.6890   31.8160   37.7260 C.3   297  MJI297      0.1815
     16  O23       39.0660   33.1040   37.9380 O.3   297  MJI297     -0.3114
     17  C11       37.2150   37.2160   32.9930 C.3   297  MJI297      0.1423
     18  C12       38.2340   37.5090   31.9050 C.3   297  MJI297      0.0321
     19  C13       37.8110   38.7010   31.0620 C.3   297  MJI297      0.0026
     20  C14       39.0190   39.2610   30.3200 C.3   297  MJI297      0.0001
     21  C15       38.6450   39.6660   28.9020 C.3   297  MJI297      0.0000
     22  C16       38.0650   41.0780   28.9140 C.3   297  MJI297      0.0000
     23  C17       38.4340   41.7930   27.6230 C.3   297  MJI297      0.0000
     24  C18       39.9480   42.0060   27.5630 C.3   297  MJI297      0.0000
     25  C19       40.2040   43.1970   26.6490 C.3   297  MJI297      0.0000
     26  C20       41.6600   43.6310   26.7130 C.3   297  MJI297      0.0000
     27  C21       42.5830   42.4770   26.3400 C.3   297  MJI297      0.0000
     28  C22       43.8120   42.5640   27.2660 C.3   297  MJI297      0.0000
     29  C23       43.4390   41.6140   28.4120 C.3   297  MJI297      0.0000
     30  C24       42.9690   40.3600   27.6650 C.3   297  MJI297      0.0000
     31  C25       44.2640   39.6730   27.2710 C.3   297  MJI297      0.0000
     32  C26       44.0350   38.7330   26.1220 C.3   297  MJI297      0.0000
@<TRIPOS>BOND
     1    32    31    1
     2    27    26    1
     3    27    28    1
     4    25    26    1
     5    25    24    1
     6    28    29    1
     7    31    30    1
     8    24    23    1
     9    23    22    1
    10    30    29    1
    11    21    22    1
    12    21    20    1
    13    20    19    1
    14    19    18    1
    15    18    17    1
    16    17     2    1
    17     2     1    1
    18     1     3    1
    19     5     3    1
    20     5     6    1
    21     3     4    1
    22     6     7    1
    23     7     8    1
    24     4    12    1
    25    10     8    1
    26     8    11    1
    27     8     9    1
    28    12    13    2
    29    12    14    1
    30    12    16    1
    31    15    16    1
