@<TRIPOS>MOLECULE
1fxh_PAC_B_1.pdb
 10 10 0 0 0
SMALL
GASTEIGER

@<TRIPOS>ATOM
      1  C1        -0.9100   -0.4510   -0.9330 C.2   1001  PAC1001     0.3692
      2  C2        -0.6700   -1.1680    0.3790 C.3   1001  PAC1001     0.1404
      3  C1'       -1.9690   -1.7440    0.9280 C.ar  1001  PAC1001    -0.0109
      4  C2'       -2.4870   -3.0200    0.5800 C.ar  1001  PAC1001    -0.0037
      5  C3'       -3.6890   -3.5000    1.1290 C.ar  1001  PAC1001    -0.0003
      6  C4'       -4.3180   -2.6300    2.0310 C.ar  1001  PAC1001    -0.0000
      7  C5'       -3.8360   -1.3560    2.4020 C.ar  1001  PAC1001    -0.0003
      8  C6'       -2.6300   -0.8940    1.8440 C.ar  1001  PAC1001    -0.0037
      9  O1        -0.1750    0.6080   -0.9840 O.co2 1001  PAC1001    -0.2453
     10  O2        -1.6920   -0.8380   -1.8080 O.co2 1001  PAC1001    -0.2453
@<TRIPOS>BOND
     1    10     1   ar
     2     9     1   ar
     3     1     2    1
     4     2     3    1
     5     4     3   ar
     6     4     5   ar
     7     3     8   ar
     8     5     6   ar
     9     8     7   ar
    10     6     7   ar
