@<TRIPOS>MOLECULE
1fxo_TMP_A_1.pdb
 21 22 0 0 0
SMALL
GASTEIGER

@<TRIPOS>ATOM
      1  P         66.7400   63.4090   67.2310 P.3   8500  TMP8500     0.5327
      2  O1P       65.4740   63.7210   66.2940 O.2   8500  TMP8500    -0.2224
      3  O2P       67.7420   62.2610   66.4820 O.3   8500  TMP8500    -0.1145
      4  O3P       67.6260   64.8110   67.4740 O.3   8500  TMP8500    -0.1145
      5  O5'       66.2100   62.8090   68.6090 O.3   8500  TMP8500    -0.2675
      6  C5'       66.5970   63.2220   69.8910 C.3   8500  TMP8500     0.1858
      7  C4'       65.9600   62.3660   71.0230 C.3   8500  TMP8500     0.1774
      8  O4'       64.8680   62.9630   71.7170 O.3   8500  TMP8500    -0.3339
      9  C3'       65.2800   60.9930   70.8760 C.3   8500  TMP8500     0.1857
     10  O3'       65.1610   60.0390   72.0310 O.3   8500  TMP8500    -0.2203
     11  C2'       64.0730   61.5950   70.1060 C.3   8500  TMP8500     0.0874
     12  C1'       63.6300   62.6040   71.1090 C.3   8500  TMP8500     0.2090
     13  N1        62.9870   63.8610   70.7560 N.am  8500  TMP8500    -0.1794
     14  C2        61.8040   64.0230   71.3570 C.1   8500  TMP8500     0.2844
     15  O2        61.3560   63.0530   72.0860 O.2   8500  TMP8500    -0.1918
     16  N3        61.0870   65.1230   71.2350 N.2   8500  TMP8500    -0.2455
     17  C4        61.5550   66.1200   70.5050 C.1   8500  TMP8500     0.2134
     18  O4        60.8390   67.2240   70.4030 O.2   8500  TMP8500    -0.2088
     19  C5        62.7640   66.0120   69.8570 C.2   8500  TMP8500     0.0891
     20  C5M       63.2100   67.1910   69.0510 C.3   8500  TMP8500     0.0462
     21  C6        63.5140   64.8460   70.0180 C.2   8500  TMP8500     0.0877
@<TRIPOS>BOND
     1     2     1    2
     2     3     1    1
     3     1     4    1
     4     1     5    1
     5     5     6    1
     6    20    19    1
     7    19    21    2
     8    19    17    1
     9     6     7    1
    10    21    13    1
    11    11     9    1
    12    11    12    1
    13    18    17    2
    14    17    16    2
    15    13    12    1
    16    13    14   am
    17     9     7    1
    18     9    10    1
    19     7     8    1
    20    12     8    1
    21    16    14    2
    22    14    15    2
