@<TRIPOS>MOLECULE
1fxq_A5P_A_1.pdb
 14 13 0 0 0
SMALL
GASTEIGER

@<TRIPOS>ATOM
      1  C1        35.7070   51.2570   18.1930 C.2   1269  A5P1269     0.2427
      2  O1        35.4290   50.5120   17.2870 O.2   1269  A5P1269    -0.2854
      3  C2        35.2720   52.6940   18.1460 C.3   1269  A5P1269     0.2486
      4  O2        33.9590   52.8420   18.6780 O.3   1269  A5P1269    -0.2118
      5  C3        36.6590   53.3320   18.2170 C.3   1269  A5P1269     0.2224
      6  O3        37.5110   53.1430   19.3520 O.3   1269  A5P1269    -0.2171
      7  C4        36.3800   54.7520   17.7300 C.3   1269  A5P1269     0.2151
      8  O4        35.1950   55.2500   17.1040 O.3   1269  A5P1269    -0.2176
      9  C5        36.9720   54.7180   16.3280 C.3   1269  A5P1269     0.1892
     10  O5        38.3840   54.8150   16.4360 O.3   1269  A5P1269    -0.2674
     11  P         39.3840   55.6430   15.5290 P.3   1269  A5P1269     0.5327
     12  O1P       40.7140   55.3330   16.1230 O.3   1269  A5P1269    -0.1145
     13  O2P       39.2330   55.1250   14.1510 O.2   1269  A5P1269    -0.2224
     14  O3P       39.0110   57.0730   15.6650 O.3   1269  A5P1269    -0.1145
@<TRIPOS>BOND
     1    13    11    2
     2    11    14    1
     3    11    12    1
     4    11    10    1
     5     9    10    1
     6     9     7    1
     7     8     7    1
     8     2     1    2
     9     7     5    1
    10     3     1    1
    11     3     5    1
    12     3     4    1
    13     5     6    1
