@<TRIPOS>MOLECULE
1fxq_PEP_A_1.pdb
 10 9 0 0 0
SMALL
GASTEIGER

@<TRIPOS>ATOM
      1  C1        32.4440   51.4470   22.5550 C.2   1268  PEP1268     0.4216
      2  O1        33.2470   51.9270   23.4320 O.co2 1268  PEP1268    -0.2371
      3  O2'       31.2590   51.5490   22.7040 O.co2 1268  PEP1268    -0.2371
      4  C2        33.1400   50.7990   21.3460 C.2   1268  PEP1268     0.2283
      5  C3        34.4400   50.4140   21.3680 C.2   1268  PEP1268     0.0477
      6  O2        32.1920   50.3630   20.4180 O.2   1268  PEP1268    -0.3930
      7  P         32.2580   49.3700   19.1870 P.3   1268  PEP1268     0.5889
      8  O1P       32.8540   48.1100   19.6470 O.3   1268  PEP1268    -0.1039
      9  O2P       32.8960   50.1070   18.0810 O.2   1268  PEP1268    -0.2114
     10  O3P       30.7790   49.1630   18.7410 O.3   1268  PEP1268    -0.1039
@<TRIPOS>BOND
     1     9     7    2
     2    10     7    1
     3     7     8    1
     4     7     6    1
     5     6     4    1
     6     4     5    2
     7     4     1    1
     8     1     3   ar
     9     1     2   ar
