@<TRIPOS>MOLECULE
1fxs_NAP_A_1.pdb
 48 52 0 0 0
SMALL
GASTEIGER

@<TRIPOS>ATOM
      1  PA        31.3150   25.6500   13.3890 P.3   350  NAP350      0.2189
      2  O1A       31.5630   25.0160   12.0430 O.2   350  NAP350     -0.5170
      3  O2A       32.0850   25.1660   14.5620 O.3   350  NAP350     -0.4371
      4  O5B       29.6840   25.5580   13.6500 O.3   350  NAP350     -0.3112
      5  C5B       28.7500   25.3130   12.5660 C.3   350  NAP350      0.1813
      6  C4B       27.8420   24.2050   13.0360 C.3   350  NAP350      0.1820
      7  O4B       26.7180   24.1600   12.1280 O.3   350  NAP350     -0.3136
      8  C3B       28.4980   22.8480   12.9940 C.3   350  NAP350      0.2157
      9  O3B       28.2800   22.1230   14.2310 O.3   350  NAP350     -0.2175
     10  C2B       27.8230   22.1650   11.8640 C.3   350  NAP350      0.2314
     11  O2B       27.6980   20.7660   12.1110 O.3   350  NAP350     -0.2630
     12  C1B       26.4590   22.7870   11.8090 C.3   350  NAP350      0.3158
     13  N9A       25.8660   22.6540   10.4390 N.pl3 350  NAP350     -0.1439
     14  C8A       26.3420   23.1650    9.2360 C.3   350  NAP350      0.3377
     15  N7A       25.5800   22.8470    8.2230 N.2   350  NAP350     -0.2095
     16  C5A       24.5480   22.0850    8.7710 C.2   350  NAP350      0.2526
     17  C6A       23.4190   21.4530    8.1940 C.2   350  NAP350      0.4393
     18  N6A       23.1800   21.5070    6.8910 N.pl3 350  NAP350      0.2180
     19  N1A       22.5760   20.7690    9.0140 N.2   350  NAP350      0.0021
     20  C2A       22.8310   20.7180   10.3300 C.3   350  NAP350      0.5254
     21  N3A       23.8650   21.2800   10.9540 N.2   350  NAP350     -0.0055
     22  C4A       24.6960   21.9650   10.1070 C.2   350  NAP350      0.3518
     23  O3        31.4310   27.2480   13.2570 O.3   350  NAP350     -0.2703
     24  PN        31.4680   28.5040   14.2720 P.3   350  NAP350      0.2189
     25  O1N       32.9400   28.9210   14.3810 O.2   350  NAP350     -0.5170
     26  O2N       30.7910   28.0140   15.5570 O.3   350  NAP350     -0.4371
     27  O5D       30.6420   29.6960   13.5690 O.3   350  NAP350     -0.3112
     28  C5D       29.1940   29.7970   13.6210 C.3   350  NAP350      0.1813
     29  C4D       28.8170   31.2520   13.3260 C.3   350  NAP350      0.1799
     30  O4D       29.4680   32.0580   14.3550 O.3   350  NAP350     -0.3327
     31  C3D       29.4330   31.7770   12.0220 C.3   350  NAP350      0.2158
     32  O3D       28.6580   31.4710   10.8350 O.3   350  NAP350     -0.2175
     33  C2D       29.5700   33.2660   12.2720 C.3   350  NAP350      0.2309
     34  O2D       28.3630   33.9160   11.9540 O.3   350  NAP350     -0.2158
     35  C1D       29.9080   33.3150   13.7980 C.3   350  NAP350      0.2263
     36  N1N       31.3590   33.4790   13.9210 N.pl3 350  NAP350     -0.2787
     37  C2N       31.7990   34.7430   13.5730 C.3   350  NAP350      0.1244
     38  C3N       33.1890   35.0070   13.6530 C.2   350  NAP350      0.0544
     39  C7N       33.6560   36.3350   13.2820 C.2   350  NAP350      0.2818
     40  O7N       32.7530   37.2600   12.8960 O.2   350  NAP350     -0.2670
     41  N7N       34.8630   36.6820   13.3020 N.am  350  NAP350     -0.0839
     42  C4N       34.0700   33.9990   14.0670 C.2   350  NAP350      0.0033
     43  C5N       33.6260   32.7520   14.4110 C.2   350  NAP350      0.0157
     44  C6N       32.2630   32.4850   14.3340 C.2   350  NAP350      0.0633
     45  P2B       28.7130   19.6740   11.4510 P.3   350  NAP350      0.5328
     46  O1X       30.1200   20.2720   11.5380 O.3   350  NAP350     -0.1145
     47  O2X       28.4350   18.4810   12.3380 O.3   350  NAP350     -0.1145
     48  O3X       28.2350   19.5530   10.0220 O.2   350  NAP350     -0.2224
@<TRIPOS>BOND
     1    18    17    1
     2    17    16    1
     3    17    19    2
     4    15    16    2
     5    15    14    1
     6    16    22    1
     7    19    20    1
     8    14    13    1
     9    48    45    2
    10    22    13    1
    11    22    21    2
    12    20    21    1
    13    13    12    1
    14    32    31    1
    15    45    46    1
    16    45    11    1
    17    45    47    1
    18    12    10    1
    19    12     7    1
    20    10    11    1
    21    10     8    1
    22    34    33    1
    23    31    33    1
    24    31    29    1
    25     2     1    2
    26     7     6    1
    27    33    35    1
    28     5     6    1
    29     5     4    1
    30    40    39    2
    31     8     6    1
    32     8     9    1
    33    23     1    1
    34    23    24    1
    35    39    41   am
    36    39    38    1
    37    29    28    1
    38    29    30    1
    39     1     4    1
    40     1     3    1
    41    27    28    1
    42    27    24    1
    43    37    38    1
    44    37    36    1
    45    38    42    2
    46    35    36    1
    47    35    30    1
    48    36    44    1
    49    42    43    1
    50    24    25    2
    51    24    26    1
    52    44    43    2
