@<TRIPOS>MOLECULE
1fxu_GU7_A_1.pdb
 19 20 0 0 0
SMALL
GASTEIGER

@<TRIPOS>ATOM
      1  N9        71.3570   46.9230   50.4450 N.2   290  GU7290     -0.1926
      2  C8        72.2610   45.8800   50.4250 C.3   290  GU7290      0.2142
      3  N7        73.4760   46.3200   50.2400 N.3   290  GU7290     -0.2241
      4  C5        73.4070   47.6930   50.1500 C.3   290  GU7290      0.2777
      5  C6        74.4310   48.6800   49.9180 C.1   290  GU7290      0.2219
      6  O6        75.6480   48.4850   49.7320 O.2   290  GU7290     -0.2109
      7  N1        73.9180   49.9950   49.8900 N.2   290  GU7290     -0.2515
      8  C2        72.5760   50.3160   50.0970 C.1   290  GU7290      0.2603
      9  N2        72.2420   51.6370   50.1420 N.pl3 290  GU7290     -0.0221
     10  N3        71.6100   49.3840   50.3510 N.2   290  GU7290     -0.2725
     11  C4        72.0960   48.0960   50.3500 C.1   290  GU7290      0.1063
     12  C10       74.7160   45.5410   50.1180 C.3   290  GU7290      0.0947
     13  C11       75.5580   45.5810   51.3730 C.3   290  GU7290      0.1062
     14  N12       75.1220   44.4340   52.1550 N.3   290  GU7290     -0.2126
     15  C13       75.6820   44.4060   53.5210 C.3   290  GU7290      0.1386
     16  C14       74.7720   45.1570   54.4820 C.3   290  GU7290      0.2020
     17  O15       73.4380   45.0490   54.0640 O.3   290  GU7290     -0.2188
     18  C16       75.7090   42.9800   54.0410 C.3   290  GU7290      0.2020
     19  O17       76.3600   42.1240   53.1240 O.3   290  GU7290     -0.2188
@<TRIPOS>BOND
     1     6     5    2
     2     7     5    2
     3     7     8    2
     4     5     4    1
     5     8     9    1
     6     8    10    2
     7    12     3    1
     8    12    13    1
     9     4     3    1
    10     4    11    1
    11     3     2    1
    12    11    10    2
    13    11     1    2
    14     2     1    1
    15    13    14    1
    16    14    15    1
    17    19    18    1
    18    15    18    1
    19    15    16    1
    20    17    16    1
