@<TRIPOS>MOLECULE
1fxv_PNN_B_1.pdb
 23 25 0 0 0
SMALL
GASTEIGER

@<TRIPOS>ATOM
      1  O8        -3.0880    0.5560   -1.4530 O.2   1001  PNN1001    -0.2729
      2  C7        -2.1000    0.8290   -2.0980 C.2   1001  PNN1001     0.2491
      3  N4        -1.8190    0.6200   -3.4630 N.am  1001  PNN1001    -0.2594
      4  C3        -2.0180   -0.6200   -4.2080 C.3   1001  PNN1001     0.1888
      5  C11       -2.6270   -0.2510   -5.6220 C.2   1001  PNN1001     0.3833
      6  O13       -2.0070    0.5680   -6.3200 O.co2 1001  PNN1001    -0.2438
      7  O12       -3.7050   -0.8110   -5.9280 O.co2 1001  PNN1001    -0.2438
      8  C2        -0.6130   -1.3490   -4.2310 C.3   1001  PNN1001     0.0681
      9  C10       -0.5720   -2.3760   -3.1020 C.3   1001  PNN1001     0.0131
     10  C9        -0.2870   -2.0300   -5.5760 C.3   1001  PNN1001     0.0131
     11  S1         0.6620   -0.0760   -3.8940 S.3   1001  PNN1001    -0.1184
     12  C5        -0.5090    1.2130   -3.3450 C.3   1001  PNN1001     0.1529
     13  C6        -0.7650    1.5030   -1.8600 C.3   1001  PNN1001     0.1995
     14  N14        0.1400    0.9100   -0.8730 N.am  1001  PNN1001    -0.1949
     15  C15        0.7180    1.7660    0.0280 C.2   1001  PNN1001     0.2463
     16  O16        0.4580    2.9620   -0.0330 O.2   1001  PNN1001    -0.2730
     17  C17        1.6820    1.3130    1.1020 C.3   1001  PNN1001     0.1131
     18  C18        2.1810   -0.0090    1.3990 C.ar  1001  PNN1001    -0.0130
     19  C19        1.9710   -1.1300    0.6100 C.ar  1001  PNN1001    -0.0038
     20  C20        2.5230   -2.4180    0.9610 C.ar  1001  PNN1001    -0.0003
     21  C21        3.2670   -2.4890    2.0970 C.ar  1001  PNN1001    -0.0000
     22  C22        3.4850   -1.4720    2.8870 C.ar  1001  PNN1001    -0.0003
     23  C23        2.9340   -0.2470    2.5100 C.ar  1001  PNN1001    -0.0038
@<TRIPOS>BOND
     1     6     5   ar
     2     7     5   ar
     3     5     4    1
     4    10     8    1
     5     8     4    1
     6     8    11    1
     7     8     9    1
     8     4     3    1
     9    11    12    1
    10     3    12    1
    11     3     2   am
    12    12    13    1
    13     2    13    1
    14     2     1    2
    15    13    14    1
    16    14    15   am
    17    16    15    2
    18    15    17    1
    19    19    20   ar
    20    19    18   ar
    21    20    21   ar
    22    17    18    1
    23    18    23   ar
    24    21    22   ar
    25    23    22   ar
