@<TRIPOS>MOLECULE
1fxy_0G6_A_1.pdb
 30 31 0 0 0
SMALL
GASTEIGER

@<TRIPOS>ATOM
      1  N         20.5180   11.8780   12.6140 N.3     1  0G61       -0.1228
      2  CA        21.0540   11.2290   13.8420 C.3     1  0G61        0.1721
      3  C         20.0690   10.2100   14.3900 C.2     1  0G61        0.2437
      4  O         19.5480    9.3760   13.6490 O.2     1  0G61       -0.2733
      5  CB        22.3730   10.5210   13.5310 C.3     1  0G61        0.0547
      6  CG        23.5350   11.4490   13.3610 C.ar    1  0G61       -0.0202
      7  CD1       23.9030   12.3160   14.3820 C.ar    1  0G61       -0.0042
      8  CD2       24.2700   11.4520   12.1790 C.ar    1  0G61       -0.0042
      9  CE1       24.9870   13.1720   14.2290 C.ar    1  0G61       -0.0003
     10  CE2       25.3560   12.3040   12.0160 C.ar    1  0G61       -0.0003
     11  CZ        25.7140   13.1650   13.0430 C.ar    1  0G61       -0.0000
     12  N1        19.7780   10.2810   15.6960 N.am    1  0G61       -0.2718
     13  CA1       18.8470    9.3280   16.3040 C.3     1  0G61        0.1535
     14  C1        17.4140    9.4530   15.7870 C.2     1  0G61        0.2595
     15  O1        16.9160   10.5510   15.5280 O.2     1  0G61       -0.2716
     16  CB1       18.9480    9.6320   17.7980 C.3     1  0G61        0.0310
     17  CG1       19.3280   11.0740   17.8490 C.3     1  0G61        0.0237
     18  CD        20.2540   11.2790   16.6710 C.3     1  0G61        0.0939
     19  N2        16.7520    8.3070   15.6610 N.am    1  0G61       -0.2032
     20  CA2       15.3800    8.2540   15.1860 C.3     1  0G61        0.1257
     21  C2        14.4280    7.8680   16.3870 C.3     1  0G61        0.1718
     22  O2        13.1000    8.1970   15.9850 O.3     1  0G61       -0.2213
     23  CB2       15.2880    7.2480   14.0380 C.3     1  0G61        0.0280
     24  CG2       16.0040    7.7090   12.7860 C.3     1  0G61        0.0488
     25  CD3       16.1310    6.6000   11.7590 C.3     1  0G61        0.2205
     26  NE        16.8080    7.0630   10.5470 N.pl3   1  0G61       -0.0865
     27  CZ1       17.0470    6.3030    9.4800 C.cat   1  0G61        0.5346
     28  NH1       16.6670    5.0310    9.4560 N.pl3   1  0G61        0.1354
     29  NH2       17.6750    6.8180    8.4330 N.pl3   1  0G61        0.1354
     30  C3        14.7250    8.5660   17.7830 C.3     1  0G61        0.0373
@<TRIPOS>BOND
     1    29    27    1
     2    28    27    1
     3    27    26    2
     4    26    25    1
     5    25    24    1
     6    10     8   ar
     7    10    11   ar
     8     8     6   ar
     9     1     2    1
    10    24    23    1
    11    11     9   ar
    12     6     5    1
    13     6     7   ar
    14     5     2    1
    15     4     3    2
    16     2     3    1
    17    23    20    1
    18     9     7   ar
    19     3    12   am
    20    20    19    1
    21    20    21    1
    22    15    14    2
    23    19    14   am
    24    12    13    1
    25    12    18    1
    26    14    13    1
    27    22    21    1
    28    13    16    1
    29    21    30    1
    30    18    17    1
    31    16    17    1
