@<TRIPOS>MOLECULE
1fy4_III_B_1.pdb
 20 19 0 0 0
SMALL
GASTEIGER

@<TRIPOS>ATOM
      1  N         11.4370    0.2650  -10.3460 N.3     1  GLY1       -0.1210
      2  CA        10.0130    0.2950  -10.6290 C.3     1  GLY1        0.1956
      3  C          9.1730    0.5380   -9.3990 C.2     1  GLY1        0.2612
      4  O          7.9640    0.6240   -9.4030 O.2     1  GLY1       -0.2717
      5  N          9.7950    0.6900   -8.2310 N.am    2  ALA2       -0.1965
      6  CA         9.1100    0.8580   -6.9560 C.3     2  ALA2        0.1728
      7  C          8.2800    2.1240   -6.7940 C.2     2  ALA2        0.2612
      8  O          8.6240    3.2180   -7.2570 O.2     2  ALA2       -0.2715
      9  CB        10.2310    0.7980   -5.9040 C.3     2  ALA2        0.0334
     10  N          7.1200    1.9660   -6.1290 N.am    3  ARG3       -0.2031
     11  CA         6.2250    3.1030   -6.0140 C.3     3  ARG3        0.1283
     12  C          6.4630    3.7730   -4.5840 C.3     3  ARG3        0.2036
     13  O          5.5180    4.9160   -4.2590 O.3     3  ARG3       -0.2185
     14  CB         4.7800    2.7210   -6.4060 C.3     3  ARG3        0.0281
     15  CG         4.7180    2.3500   -7.8710 C.3     3  ARG3        0.0488
     16  CD         3.3130    1.9330   -8.2800 C.3     3  ARG3        0.2205
     17  NE         3.3410    1.7060   -9.7270 N.pl3   3  ARG3       -0.0865
     18  CZ         2.2890    1.2960  -10.3890 C.cat   3  ARG3        0.5346
     19  NH1        1.1910    1.0580   -9.6490 N.pl3   3  ARG3        0.1354
     20  NH2        2.2940    1.0770  -11.6970 N.pl3   3  ARG3        0.1354
@<TRIPOS>BOND
     1    20    18    1
     2     2     1    1
     3     2     3    1
     4    18    17    2
     5    18    19    1
     6    17    16    1
     7     4     3    2
     8     3     5   am
     9    16    15    1
    10     5     6    1
    11    15    14    1
    12     8     7    2
    13     6     7    1
    14     6     9    1
    15     7    10   am
    16    14    11    1
    17    10    11    1
    18    11    12    1
    19    12    13    1
