@<TRIPOS>MOLECULE
1fy5_III_B_1.pdb
 18 17 0 0 0
SMALL
GASTEIGER

@<TRIPOS>ATOM
      1  N         11.5520   -0.0910  -10.1690 N.3     1  GLY1       -0.1210
      2  CA        10.1470   -0.0800  -10.5370 C.3     1  GLY1        0.1956
      3  C          9.2480    0.2900   -9.3690 C.2     1  GLY1        0.2612
      4  O          8.0670    0.4350   -9.4910 O.2     1  GLY1       -0.2717
      5  N          9.8580    0.4960   -8.2050 N.am    2  ALA2       -0.1965
      6  CA         9.1850    0.6670   -6.9290 C.3     2  ALA2        0.1728
      7  C          8.3230    1.9130   -6.7750 C.2     2  ALA2        0.2616
      8  O          8.5970    3.0090   -7.2330 O.2     2  ALA2       -0.2715
      9  CB        10.2660    0.5920   -5.8580 C.3     2  ALA2        0.0334
     10  N          7.1420    1.6870   -6.1510 N.am    3  LYS3       -0.1977
     11  CA         6.3050    2.9050   -6.1560 C.3     3  LYS3        0.1596
     12  C          6.5340    4.2540   -4.8520 C.2     3  LYS3        0.2287
     13  O          5.7720    4.9550   -4.1940 O.2     3  LYS3       -0.2864
     14  CB         4.8220    2.5730   -6.3780 C.3     3  LYS3        0.0298
     15  CG         4.6870    2.4120   -7.8880 C.3     3  LYS3        0.0038
     16  CD         3.2990    1.9220   -8.2620 C.3     3  LYS3        0.0206
     17  CE         3.3760    1.6240   -9.7280 C.3     3  LYS3        0.1093
     18  NZ         2.1550    1.1790  -10.3840 N.3     3  LYS3       -0.1314
@<TRIPOS>BOND
     1     2     1    1
     2     2     3    1
     3    18    17    1
     4    17    16    1
     5     4     3    2
     6     3     5   am
     7    16    15    1
     8     5     6    1
     9    15    14    1
    10     8     7    2
    11     6     7    1
    12     6     9    1
    13     7    10   am
    14    14    11    1
    15    11    10    1
    16    11    12    1
    17    12    13    2
