@<TRIPOS>MOLECULE
1fy6_A5P_A_1.pdb
 14 13 0 0 0
SMALL
GASTEIGER

@<TRIPOS>ATOM
      1  C1        35.6330   51.7450   18.9640 C.2   1269  A5P1269     0.2427
      2  O1        35.6010   51.1720   17.8890 O.2   1269  A5P1269    -0.2854
      3  C2        34.9310   53.0850   19.1100 C.3   1269  A5P1269     0.2486
      4  O2        34.0380   53.0170   20.2230 O.3   1269  A5P1269    -0.2118
      5  C3        36.0770   54.0920   18.9820 C.3   1269  A5P1269     0.2224
      6  O3        35.9490   55.0480   20.0350 O.3   1269  A5P1269    -0.2171
      7  C4        36.1050   54.6410   17.5490 C.3   1269  A5P1269     0.2151
      8  O4        35.8860   53.7960   16.4170 O.3   1269  A5P1269    -0.2176
      9  C5        37.5440   55.1480   17.4390 C.3   1269  A5P1269     0.1892
     10  O5        38.3430   55.0720   16.2580 O.3   1269  A5P1269    -0.2674
     11  P         39.5300   55.8540   15.5260 P.3   1269  A5P1269     0.5327
     12  O1P       40.7850   55.4660   16.2150 O.3   1269  A5P1269    -0.1145
     13  O2P       39.4640   55.3980   14.1170 O.2   1269  A5P1269    -0.2224
     14  O3P       39.2400   57.3070   15.6520 O.3   1269  A5P1269    -0.1145
@<TRIPOS>BOND
     1    13    11    2
     2    11    14    1
     3    11    12    1
     4    11    10    1
     5    10     9    1
     6     8     7    1
     7     9     7    1
     8     7     5    1
     9     2     1    2
    10     1     3    1
    11     5     3    1
    12     5     6    1
    13     3     4    1
