@<TRIPOS>MOLECULE
1fy7_COA_A_1.pdb
 48 50 0 0 0
SMALL
GASTEIGER

@<TRIPOS>ATOM
      1  N1A       92.2250   20.1430   19.1130 N.2   500  COA500      0.0021
      2  C2A       91.0930   19.3730   18.8200 C.3   500  COA500      0.5254
      3  N3A       90.2990   19.4930   17.7280 N.2   500  COA500     -0.0055
      4  C4A       90.6950   20.4780   16.8930 C.2   500  COA500      0.3518
      5  C5A       91.8230   21.3540   17.0320 C.2   500  COA500      0.2526
      6  C6A       92.6460   21.1570   18.2650 C.2   500  COA500      0.4393
      7  N6A       93.6900   21.8700   18.5280 N.pl3 500  COA500      0.2180
      8  N7A       91.9210   22.2290   15.9970 N.2   500  COA500     -0.2095
      9  C8A       90.8790   21.9170   15.1900 C.3   500  COA500      0.3377
     10  N9A       90.1060   20.8640   15.6820 N.pl3 500  COA500     -0.1439
     11  C1B       88.8920   20.2480   15.0440 C.3   500  COA500      0.3185
     12  C2B       87.6290   21.0440   15.3150 C.3   500  COA500      0.2543
     13  O2B       87.1740   20.7160   16.6140 O.3   500  COA500     -0.2131
     14  C3B       86.6860   20.5810   14.1860 C.3   500  COA500      0.1928
     15  O3B       86.0520   19.3840   14.4580 O.3   500  COA500     -0.2673
     16  P3B       84.4920   19.3530   13.8430 P.3   500  COA500      0.5327
     17  O7A       83.6830   20.4590   14.6590 O.3   500  COA500     -0.1145
     18  O8A       83.7760   17.9500   14.1700 O.3   500  COA500     -0.1145
     19  O9A       84.5580   19.7100   12.2930 O.2   500  COA500     -0.2224
     20  C4B       87.6560   20.5670   12.9920 C.3   500  COA500      0.1795
     21  O4B       89.0130   20.3510   13.5940 O.3   500  COA500     -0.3136
     22  C5B       87.7360   21.8440   12.1980 C.3   500  COA500      0.1812
     23  O5B       88.2600   21.4550   10.8860 O.3   500  COA500     -0.3112
     24  P1A       89.7630   21.9330   10.4890 P.3   500  COA500      0.2189
     25  O1A       90.7350   21.2120   11.3910 O.3   500  COA500     -0.4371
     26  O2A       89.8550   23.4290   10.4340 O.2   500  COA500     -0.5170
     27  O3A       89.9530   21.3670    9.1040 O.3   500  COA500     -0.2703
     28  P2A       90.9580   20.2300    8.4690 P.3   500  COA500      0.2188
     29  O4A       90.7490   18.8610    9.0940 O.3   500  COA500     -0.4371
     30  O5A       92.4210   20.5950    8.5900 O.2   500  COA500     -0.5170
     31  O6A       90.4850   20.3360    6.9090 O.3   500  COA500     -0.3138
     32  CBP       89.2800   19.4160    4.9980 C.3   500  COA500      0.0645
     33  CCP       89.1570   20.0680    6.4200 C.3   500  COA500      0.1519
     34  CDP       87.8970   19.2490    4.2690 C.3   500  COA500      0.0056
     35  CEP       90.1780   20.4450    4.2610 C.3   500  COA500      0.0056
     36  CAP       89.9340   17.9790    5.2400 C.3   500  COA500      0.2312
     37  OAP       88.9820   17.0850    5.8930 O.3   500  COA500     -0.2131
     38  C9P       90.4470   17.2970    3.9660 C.2   500  COA500      0.2719
     39  O9P       91.6000   17.7130    3.3690 O.2   500  COA500     -0.2706
     40  N8P       89.7020   16.3130    3.5290 N.am  500  COA500     -0.2028
     41  C7P       89.9920   15.4880    2.3370 C.3   500  COA500      0.1248
     42  C6P       89.9590   16.3480    1.0850 C.3   500  COA500      0.1102
     43  C5P       88.5930   16.9220    0.8610 C.2   500  COA500      0.2432
     44  O5P       87.5130   16.2260    0.9620 O.2   500  COA500     -0.2733
     45  N4P       88.6170   18.2030    0.5480 N.am  500  COA500     -0.2044
     46  C3P       87.3960   19.0800    0.2560 C.3   500  COA500      0.1276
     47  C2P       87.0010   18.7700   -1.1710 C.3   500  COA500      0.0920
     48  S1P       85.3420   19.4640   -1.5590 S.3   500  COA500     -0.0802
@<TRIPOS>BOND
     1    48    47    1
     2    47    46    1
     3    46    45    1
     4    45    43   am
     5    43    44    2
     6    43    42    1
     7    42    41    1
     8    41    40    1
     9    39    38    2
    10    40    38   am
    11    38    36    1
    12    35    32    1
    13    34    32    1
    14    32    36    1
    15    32    33    1
    16    36    37    1
    17    33    31    1
    18    31    28    1
    19    28    30    2
    20    28    29    1
    21    28    27    1
    22    27    24    1
    23    26    24    2
    24    24    23    1
    25    24    25    1
    26    23    22    1
    27    22    20    1
    28    19    16    2
    29    20    21    1
    30    20    14    1
    31    21    11    1
    32    16    18    1
    33    16    15    1
    34    16    17    1
    35    14    15    1
    36    14    12    1
    37    11    12    1
    38    11    10    1
    39     9    10    1
    40     9     8    1
    41    12    13    1
    42    10     4    1
    43     8     5    2
    44     4     5    1
    45     4     3    2
    46     5     6    1
    47     3     2    1
    48     6     7    1
    49     6     1    2
    50     2     1    1
