@<TRIPOS>MOLECULE
1fyd_AMP_A_1.pdb
 23 25 0 0 0
SMALL
GASTEIGER

@<TRIPOS>ATOM
      1  P         15.1110   60.5920   47.8240 P.3   4000  AMP4000     0.5327
      2  O1P       15.5350   61.8400   47.1460 O.3   4000  AMP4000    -0.1145
      3  O2P       15.0550   59.4520   46.9160 O.2   4000  AMP4000    -0.2224
      4  O3P       15.6620   60.2040   49.1770 O.3   4000  AMP4000    -0.1145
      5  O5'       13.5890   60.8980   48.1310 O.3   4000  AMP4000    -0.2675
      6  C5'       12.9300   61.0080   46.8830 C.3   4000  AMP4000     0.1860
      7  C4'       11.5170   61.5240   46.9790 C.3   4000  AMP4000     0.1823
      8  O4'       10.6160   60.4850   46.5090 O.3   4000  AMP4000    -0.3135
      9  C3'       11.2000   61.9580   48.3970 C.3   4000  AMP4000     0.2184
     10  O3'       11.6000   63.3090   48.6980 O.3   4000  AMP4000    -0.2174
     11  C2'        9.7090   61.6610   48.3860 C.3   4000  AMP4000     0.2570
     12  O2'        8.9550   62.7780   47.8830 O.3   4000  AMP4000    -0.2130
     13  C1'        9.5550   60.4240   47.4850 C.3   4000  AMP4000     0.3186
     14  N9         9.6220   59.1550   48.2260 N.pl3 4000  AMP4000    -0.1439
     15  C8        10.6130   58.2280   48.1640 C.3   4000  AMP4000     0.3377
     16  N7        10.4620   57.2880   49.1390 N.2   4000  AMP4000    -0.2095
     17  C5         9.3200   57.6480   49.7380 C.2   4000  AMP4000     0.2526
     18  C6         8.6480   56.8770   50.6780 C.2   4000  AMP4000     0.4393
     19  N6         9.2130   55.8000   51.2080 N.pl3 4000  AMP4000     0.2180
     20  N1         7.4540   57.3660   51.0960 N.2   4000  AMP4000     0.0021
     21  C2         6.9860   58.5530   50.6710 C.3   4000  AMP4000     0.5254
     22  N3         7.6370   59.2730   49.7400 N.2   4000  AMP4000    -0.0055
     23  C4         8.7980   58.8260   49.2210 C.2   4000  AMP4000     0.3518
@<TRIPOS>BOND
     1     8     7    1
     2     8    13    1
     3     6     7    1
     4     6     5    1
     5     3     1    2
     6     7     9    1
     7     2     1    1
     8    13    14    1
     9    13    11    1
    10     1     5    1
    11     1     4    1
    12    12    11    1
    13    15    14    1
    14    15    16    1
    15    14    23    1
    16    11     9    1
    17     9    10    1
    18    16    17    2
    19    23    17    1
    20    23    22    2
    21    17    18    1
    22    22    21    1
    23    21    20    1
    24    18    20    2
    25    18    19    1
