@<TRIPOS>MOLECULE
1fyf_SSA_A_1.pdb
 29 31 0 0 0
SMALL
GASTEIGER

@<TRIPOS>ATOM
      1  N10       33.0030   21.7480   16.6130 N.3   1001  SSA1001    -0.1202
      2  CA        32.8490   20.6750   17.5890 C.3   1001  SSA1001     0.2036
      3  CB        32.5270   21.2130   18.9790 C.3   1001  SSA1001     0.2104
      4  OG        33.4090   22.2950   19.2870 O.3   1001  SSA1001    -0.2182
      5  C9        31.6370   19.9090   17.1600 C.2   1001  SSA1001     0.2825
      6  O9        30.9500   20.3650   16.2690 O.2   1001  SSA1001    -0.2700
      7  N8        31.7230   18.6010   17.4040 N.am  1001  SSA1001    -0.0576
      8  S1        30.6170   17.5490   16.9780 S.3   1001  SSA1001     0.0852
      9  O1S       30.4360   17.6140   15.5070 O.3   1001  SSA1001    -0.0508
     10  O2S       31.0260   16.2520   17.6040 O.3   1001  SSA1001    -0.0508
     11  O5'       29.2670   18.0410   17.6740 O.3   1001  SSA1001    -0.2230
     12  C5'       29.2040   18.3090   19.0790 C.3   1001  SSA1001     0.2064
     13  C4'       27.9620   17.6710   19.6770 C.3   1001  SSA1001     0.1842
     14  O4'       26.7770   18.1840   19.0090 O.3   1001  SSA1001    -0.3135
     15  C3'       27.8550   16.1730   19.4760 C.3   1001  SSA1001     0.2185
     16  O3'       28.6370   15.4740   20.4490 O.3   1001  SSA1001    -0.2174
     17  C2'       26.3580   15.9190   19.6370 C.3   1001  SSA1001     0.2570
     18  O2'       25.9250   15.7860   20.9740 O.3   1001  SSA1001    -0.2130
     19  C1'       25.7510   17.1990   19.0490 C.3   1001  SSA1001     0.3186
     20  N9        25.2130   17.0080   17.6990 N.pl3 1001  SSA1001    -0.1439
     21  C8        25.9070   16.8860   16.5180 C.3   1001  SSA1001     0.3377
     22  N7        25.1370   16.6740   15.4740 N.2   1001  SSA1001    -0.2095
     23  C5        23.8520   16.6690   15.9980 C.2   1001  SSA1001     0.2526
     24  C6        22.5850   16.4820   15.4040 C.2   1001  SSA1001     0.4393
     25  N6        22.4060   16.2810   14.0920 N.pl3 1001  SSA1001     0.2180
     26  N1        21.4990   16.5170   16.2120 N.2   1001  SSA1001     0.0021
     27  C2        21.6810   16.7340   17.5250 C.3   1001  SSA1001     0.5254
     28  N3        22.8210   16.9350   18.1970 N.2   1001  SSA1001    -0.0055
     29  C4        23.8810   16.8850   17.3680 C.2   1001  SSA1001     0.3518
@<TRIPOS>BOND
     1    25    24    1
     2    24    23    1
     3    24    26    2
     4    22    23    2
     5    22    21    1
     6     9     8    1
     7    23    29    1
     8    26    27    1
     9     6     5    2
    10    21    20    1
    11     1     2    1
    12     8     7    1
    13     8    10    1
    14     8    11    1
    15     5     7   am
    16     5     2    1
    17    29    20    1
    18    29    28    2
    19    27    28    1
    20     2     3    1
    21    11    12    1
    22    20    19    1
    23     3     4    1
    24    14    19    1
    25    14    13    1
    26    19    17    1
    27    12    13    1
    28    15    17    1
    29    15    13    1
    30    15    16    1
    31    17    18    1
