@<TRIPOS>MOLECULE
1fyk_NUC_C_1.pdb
 41 44 0 0 0
SMALL
GASTEIGER

@<TRIPOS>ATOM
      1  O5'        9.6240   -4.2760   -1.5570 O.3     1  RN1        -0.2176
      2  C5'       10.2350   -3.1530   -2.2130 C.3     1  RN1         0.2139
      3  C4'        9.7430   -1.8020   -1.7370 C.3     1  RN1         0.1755
      4  O4'        8.3170   -1.6920   -1.9680 O.3     1  RN1        -0.3510
      5  C3'        9.9520   -1.5060   -0.2460 C.3     1  RN1         0.1539
      6  O3'       10.3170   -0.1250   -0.0650 O.3     1  RN1        -0.3139
      7  C2'        8.5840   -1.7730    0.3520 C.3     1  RN1         0.0646
      8  C1'        7.6720   -1.3030   -0.7660 C.3     1  RN1         0.1449
      9  P         10.5010    0.4770    1.4240 P.3     2  RN2         0.2141
     10  OP1       11.7190    1.3320    1.4200 O.2     2  RN2        -0.5172
     11  OP2       10.3690   -0.6060    2.4420 O.3     2  RN2        -0.4373
     12  O5'        9.2610    1.4620    1.5920 O.3     2  RN2        -0.3114
     13  C5'        7.9530    1.0760    1.1800 C.3     2  RN2         0.1810
     14  C4'        6.9570    2.1470    1.5490 C.3     2  RN2         0.1725
     15  O4'        5.6480    1.7610    1.0560 O.3     2  RN2        -0.3511
     16  C3'        6.8070    2.3610    3.0580 C.3     2  RN2         0.1538
     17  O3'        6.7310    3.7610    3.3630 O.3     2  RN2        -0.3139
     18  C2'        5.5010    1.6550    3.3860 C.3     2  RN2         0.0646
     19  C1'        4.7050    1.8380    2.1110 C.3     2  RN2         0.1449
     20  P          6.4160    4.2410    4.8690 P.3     3  RN3         0.2141
     21  OP1        6.9840    5.6090    5.0050 O.2     3  RN3        -0.5172
     22  OP2        6.8260    3.1870    5.8310 O.3     3  RN3        -0.4373
     23  O5'        4.8270    4.3670    4.9110 O.3     3  RN3        -0.3114
     24  C5'        4.1370    5.1210    3.9070 C.3     3  RN3         0.1810
     25  C4'        2.6500    5.1250    4.1620 C.3     3  RN3         0.1725
     26  O4'        2.0570    3.8470    3.8140 O.3     3  RN3        -0.3511
     27  C3'        2.2470    5.4100    5.6090 C.3     3  RN3         0.1538
     28  O3'        1.1490    6.3250    5.6290 O.3     3  RN3        -0.3139
     29  C2'        1.8020    4.0520    6.1220 C.3     3  RN3         0.0646
     30  C1'        1.2150    3.4180    4.8720 C.3     3  RN3         0.1449
     31  P          0.7950    7.1170    6.9790 P.3     4  RN4         0.2141
     32  OP1        0.8020    8.5650    6.6350 O.2     4  RN4        -0.5172
     33  OP2        1.6490    6.6200    8.0900 O.3     4  RN4        -0.4373
     34  O5'       -0.7070    6.6680    7.2740 O.3     4  RN4        -0.3114
     35  C5'       -1.7420    6.9190    6.3220 C.3     4  RN4         0.1811
     36  C4'       -2.9650    6.0820    6.6240 C.3     4  RN4         0.1753
     37  O4'       -2.6580    4.6810    6.4120 O.3     4  RN4        -0.3510
     38  C3'       -3.4950    6.1900    8.0560 C.3     4  RN4         0.1839
     39  O3'       -4.9260    6.0810    8.1070 O.3     4  RN4        -0.2204
     40  C2'       -2.9120    4.9550    8.7240 C.3     4  RN4         0.0676
     41  C1'       -2.9150    3.9370    7.5930 C.3     4  RN4         0.1450
@<TRIPOS>BOND
     1     2     3    1
     2     2     1    1
     3     4     3    1
     4     4     8    1
     5     3     5    1
     6     8     7    1
     7     5     6    1
     8     5     7    1
     9     6     9    1
    10    15    14    1
    11    15    19    1
    12    13    14    1
    13    13    12    1
    14    10     9    2
    15     9    12    1
    16     9    11    1
    17    14    16    1
    18    19    18    1
    19    16    17    1
    20    16    18    1
    21    17    20    1
    22    26    25    1
    23    26    30    1
    24    24    25    1
    25    24    23    1
    26    25    27    1
    27    20    23    1
    28    20    21    2
    29    20    22    1
    30    30    29    1
    31    27    28    1
    32    27    29    1
    33    28    31    1
    34    35    36    1
    35    35    34    1
    36    37    36    1
    37    37    41    1
    38    36    38    1
    39    32    31    2
    40    31    34    1
    41    31    33    1
    42    41    40    1
    43    38    39    1
    44    38    40    1
