@<TRIPOS>MOLECULE
1fyr_III_I_1.pdb
 42 42 0 0 0
SMALL
GASTEIGER

@<TRIPOS>ATOM
      1  C         26.3740    9.4890   67.0550 C.2    -1  ACE-1       0.2423
      2  O         27.4970   10.0050   67.1970 O.2    -1  ACE-1      -0.2733
      3  CH3       25.6600    9.5590   65.6910 C.3    -1  ACE-1       0.0964
      4  N         25.7980    8.7920   68.0250 N.am    0  TYR0       -0.1974
      5  CA        26.4000    8.7150   69.3490 C.3     0  TYR0        0.1770
      6  C         26.6290    7.2670   69.7130 C.2     0  TYR0        0.2619
      7  O         25.7600    6.4090   69.4950 O.2     0  TYR0       -0.2715
      8  CB        25.4780    9.3980   70.3450 C.3     0  TYR0        0.0574
      9  CG        25.1670   10.8210   69.9540 C.ar    0  TYR0       -0.0198
     10  CD1       24.0230   11.1220   69.2490 C.ar    0  TYR0       -0.0011
     11  CD2       26.0180   11.8650   70.2970 C.ar    0  TYR0       -0.0011
     12  CE1       23.7200   12.4270   68.8930 C.ar    0  TYR0        0.0371
     13  CE2       25.7350   13.1770   69.9460 C.ar    0  TYR0        0.0371
     14  CZ        24.5740   13.4560   69.2410 C.ar    0  TYR0        0.1490
     15  OH        24.2370   14.7660   68.8980 O.3     0  TYR0       -0.3998
     16  P         25.1940   15.7870   68.2270 P.3     0  TYR0        0.5887
     17  O1P       25.4080   16.8970   69.1890 O.3     0  TYR0       -0.1039
     18  O2P       26.4760   15.1530   67.8590 O.3     0  TYR0       -0.1039
     19  O3P       24.5070   16.3760   67.0310 O.2     0  TYR0       -0.2114
     20  N         27.8170    6.8830   70.1660 N.am    1  VAL1       -0.1963
     21  CA        28.2240    5.5240   70.5980 C.3     1  VAL1        0.1727
     22  C         27.2290    4.9030   71.5850 C.2     1  VAL1        0.2616
     23  O         26.9840    3.7000   71.5610 O.2     1  VAL1       -0.2715
     24  CB        29.6160    5.5830   71.2510 C.3     1  VAL1        0.0290
     25  CG1       30.0080    4.2120   71.7890 C.3     1  VAL1        0.0023
     26  CG2       30.6430    6.0680   70.2270 C.3     1  VAL1        0.0023
     27  N         26.6380    5.7360   72.4320 N.am    2  ASN2       -0.1958
     28  CA        25.7170    5.2670   73.4600 C.3     2  ASN2        0.1819
     29  C         24.2240    5.4420   73.1810 C.2     2  ASN2        0.2622
     30  O         23.4270    5.4560   74.1160 O.2     2  ASN2       -0.2715
     31  CB        26.0610    5.9570   74.7750 C.3     2  ASN2        0.1195
     32  CG        25.7590    7.4420   74.7390 C.2     2  ASN2        0.2630
     33  OD1       25.8870    8.0810   73.6940 O.2     2  ASN2       -0.2716
     34  ND2       25.3650    8.0000   75.8760 N.am    2  ASN2       -0.0877
     35  N         23.8380    5.5800   71.9160 N.am    3  VAL3       -0.1941
     36  CA        22.4220    5.7370   71.5830 C.3     3  VAL3        0.1977
     37  C         21.9790    4.7900   70.4750 C.2     3  VAL3        0.3842
     38  O         22.5120    4.8930   69.3500 O.co2   3  VAL3       -0.2437
     39  CB        22.0880    7.1820   71.1540 C.3     3  VAL3        0.0311
     40  CG1       20.6190    7.2770   70.7650 C.3     3  VAL3        0.0023
     41  CG2       22.3940    8.1530   72.3000 C.3     3  VAL3        0.0023
     42  OXT       21.1010    3.9430   70.7560 O.co2   3  VAL3       -0.2437
@<TRIPOS>BOND
     1     3     1    1
     2    19    16    2
     3     1     2    2
     4     1     4   am
     5    18    16    1
     6     4     5    1
     7    16    15    1
     8    16    17    1
     9    12    14   ar
    10    12    10   ar
    11    15    14    1
    12    14    13   ar
    13    10     9   ar
    14     5     6    1
    15     5     8    1
    16    38    37   ar
    17     7     6    2
    18     6    20   am
    19    13    11   ar
    20     9    11   ar
    21     9     8    1
    22    20    21    1
    23    26    24    1
    24    37    42   ar
    25    37    36    1
    26    21    24    1
    27    21    22    1
    28    40    39    1
    29    39    36    1
    30    39    41    1
    31    24    25    1
    32    23    22    2
    33    36    35    1
    34    22    27   am
    35    35    29   am
    36    27    28    1
    37    29    28    1
    38    29    30    2
    39    28    31    1
    40    33    32    2
    41    32    31    1
    42    32    34   am
