@<TRIPOS>MOLECULE
1fys_2GP_A_1.pdb
 24 26 0 0 0
SMALL
GASTEIGER

@<TRIPOS>ATOM
      1  P         17.8100   12.2920   10.8430 P.3   105  2GP105      0.5327
      2  O1P       18.9340   13.1810   11.2450 O.3   105  2GP105     -0.1145
      3  O2P       16.6670   12.9340   10.1180 O.2   105  2GP105     -0.2224
      4  O3P       17.4430   11.3370   11.8990 O.3   105  2GP105     -0.1145
      5  O5'       22.4730   10.2340   11.0180 O.3   105  2GP105     -0.2176
      6  C5'       22.9820   10.5990    9.7400 C.3   105  2GP105      0.2142
      7  C4'       21.9120   10.7330    8.6430 C.3   105  2GP105      0.1827
      8  O4'       21.1980    9.4950    8.3410 O.3   105  2GP105     -0.3326
      9  C3'       20.8260   11.6830    9.0930 C.3   105  2GP105      0.2132
     10  O3'       20.4070   12.3780    7.8890 O.3   105  2GP105     -0.2176
     11  C2'       19.7440   10.7410    9.6750 C.3   105  2GP105      0.2054
     12  O2'       18.4240   11.3370    9.6740 O.3   105  2GP105     -0.2657
     13  C1'       19.7640    9.6140    8.6930 C.3   105  2GP105      0.2266
     14  N9        19.2920    8.2980    9.2510 N.pl3 105  2GP105     -0.2354
     15  C8        18.5590    7.3650    8.5530 C.3   105  2GP105      0.2246
     16  N7        18.4970    6.2050    9.1270 N.2   105  2GP105     -0.2322
     17  C5        19.2320    6.3690   10.2990 C.2   105  2GP105      0.2182
     18  C6        19.5430    5.4390   11.3090 C.1   105  2GP105      0.2372
     19  O6        19.2350    4.2610   11.3290 O.2   105  2GP105     -0.2069
     20  N1        20.3040    5.9510   12.3140 N.2   105  2GP105     -0.2485
     21  C2        20.7530    7.2440   12.3730 C.1   105  2GP105      0.2531
     22  N2        21.5340    7.5530   13.4220 N.pl3 105  2GP105     -0.0226
     23  N3        20.4610    8.1420   11.4080 N.2   105  2GP105     -0.3074
     24  C4        19.7070    7.6410   10.4050 C.2   105  2GP105      0.2300
@<TRIPOS>BOND
     1    10     9    1
     2     8     7    1
     3     8    13    1
     4    15    16    1
     5    15    14    1
     6     7     9    1
     7     7     6    1
     8    13    14    1
     9    13    11    1
    10     9    11    1
    11    16    17    2
    12    14    24    1
    13    12    11    1
    14    12     1    1
    15     6     5    1
    16     3     1    2
    17    17    24    1
    18    17    18    1
    19    24    23    2
    20     1     2    1
    21     1     4    1
    22    18    19    2
    23    18    20    2
    24    23    21    2
    25    20    21    2
    26    21    22    1
