@<TRIPOS>MOLECULE
1fyu_GLC_A_1.pdb
 12 12 0 0 0
SMALL
GASTEIGER

@<TRIPOS>ATOM
      1  C1        40.5870   51.1440    4.3560 C.3   401  GLC401      0.3024
      2  C2        39.3780   51.3290    5.2770 C.3   401  GLC401      0.2434
      3  C3        38.2260   51.9730    4.4990 C.3   401  GLC401      0.2199
      4  C4        38.6880   53.2730    3.8320 C.3   401  GLC401      0.2144
      5  C5        39.9790   53.0520    3.0210 C.3   401  GLC401      0.1836
      6  C6        40.5660   54.3670    2.5480 C.3   401  GLC401      0.2142
      7  O1        40.2340   50.3410    3.2840 O.3   401  GLC401     -0.1869
      8  O2        38.9700   50.0700    5.7930 O.3   401  GLC401     -0.2148
      9  O3        37.1580   52.2540    5.3880 O.3   401  GLC401     -0.2174
     10  O4        37.6490   53.7710    2.9630 O.3   401  GLC401     -0.2176
     11  O5        40.9980   52.4160    3.8350 O.3   401  GLC401     -0.3236
     12  O6        41.0070   54.2730    1.2060 O.3   401  GLC401     -0.2176
@<TRIPOS>BOND
     1    12     6    1
     2     6     5    1
     3    10     4    1
     4     5     4    1
     5     5    11    1
     6     7     1    1
     7     4     3    1
     8    11     1    1
     9     1     2    1
    10     3     2    1
    11     3     9    1
    12     2     8    1
