@<TRIPOS>MOLECULE
1fyu_GAL_A_1.pdb
 11 11 0 0 0
SMALL
GASTEIGER

@<TRIPOS>ATOM
      1  C1        36.9810   54.9060    3.3970 C.3   402  GAL402      0.1777
      2  C2        36.2120   55.5440    2.2310 C.3   402  GAL402      0.2141
      3  C3        35.3540   56.7230    2.7360 C.3   402  GAL402      0.2173
      4  C4        34.4680   56.2790    3.9070 C.3   402  GAL402      0.2142
      5  C5        35.3410   55.6360    4.9880 C.3   402  GAL402      0.1810
      6  C6        34.5360   55.1100    6.1560 C.3   402  GAL402      0.2141
      7  O2        37.1320   56.0010    1.2500 O.3   402  GAL402     -0.2176
      8  O3        34.5330   57.2040    1.6870 O.3   402  GAL402     -0.2175
      9  O4        33.5070   55.3380    3.4460 O.3   402  GAL402     -0.2176
     10  O5        36.0660   54.5130    4.4320 O.3   402  GAL402     -0.3481
     11  O6        35.3700   54.4460    7.0910 O.3   402  GAL402     -0.2176
@<TRIPOS>BOND
     1     7     2    1
     2     8     3    1
     3     2     3    1
     4     2     1    1
     5     3     4    1
     6     1    10    1
     7     9     4    1
     8     4     5    1
     9    10     5    1
    10     5     6    1
    11     6    11    1
