@<TRIPOS>MOLECULE
1fzb_III_G_1.pdb
 30 31 0 0 0
SMALL
GASTEIGER

@<TRIPOS>ATOM
      1  N         84.2380  -13.0800   95.7370 N.3     1  GLY1       -0.1210
      2  CA        84.9590  -11.8970   95.2240 C.3     1  GLY1        0.1940
      3  C         85.5390  -11.0670   96.3440 C.2     1  GLY1        0.2454
      4  O         84.8640  -10.1750   96.8520 O.2     1  GLY1       -0.2732
      5  N         86.7660  -11.3780   96.7960 N.am    2  PRO2       -0.2717
      6  CA        87.3940  -10.6200   97.8730 C.3     2  PRO2        0.1535
      7  C         88.4200   -9.6280   97.3580 C.2     2  PRO2        0.2598
      8  O         88.5480   -8.5490   97.9230 O.2     2  PRO2       -0.2715
      9  CB        88.0330  -11.7090   98.7200 C.3     2  PRO2        0.0310
     10  CG        88.5520  -12.6390   97.6830 C.3     2  PRO2        0.0237
     11  CD        87.4880  -12.6440   96.5690 C.3     2  PRO2        0.0939
     12  N         89.1340   -9.9700   96.2870 N.am    3  ARG3       -0.1964
     13  CA        90.1510   -9.0690   95.7300 C.3     3  ARG3        0.1714
     14  C         91.3270   -8.8710   96.7000 C.2     3  ARG3        0.2459
     15  O         91.1310   -8.6530   97.8880 O.2     3  ARG3       -0.2730
     16  CB        89.5210   -7.7010   95.4320 C.3     3  ARG3        0.0347
     17  CG        90.0060   -7.0120   94.1660 C.3     3  ARG3        0.0492
     18  CD        89.5740   -7.7500   92.8870 C.3     3  ARG3        0.2205
     19  NE        88.4810   -8.6950   93.1020 N.pl3   3  ARG3       -0.0865
     20  CZ        87.5200   -8.9460   92.2210 C.cat   3  ARG3        0.5346
     21  NH1       87.5050   -8.3170   91.0560 N.pl3   3  ARG3        0.1354
     22  NH2       86.5800   -9.8440   92.5010 N.pl3   3  ARG3        0.1354
     23  N         92.5680   -8.9970   96.2210 N.am    4  PRO4       -0.2699
     24  CA        93.6320   -8.7860   97.2030 C.3     4  PRO4        0.1791
     25  C         93.7180   -7.3060   97.5860 C.2     4  PRO4        0.3825
     26  O         93.3110   -6.9820   98.7170 O.co2   4  PRO4       -0.2438
     27  CB        94.8800   -9.2990   96.4780 C.3     4  PRO4        0.0332
     28  CG        94.5560   -9.1040   95.0340 C.3     4  PRO4        0.0238
     29  CD        93.1050   -9.5050   94.9480 C.3     4  PRO4        0.0940
     30  OXT       94.1180   -6.4760   96.7450 O.co2   4  PRO4       -0.2438
@<TRIPOS>BOND
     1    21    20    1
     2    20    22    1
     3    20    19    2
     4    18    19    1
     5    18    17    1
     6    17    16    1
     7    29    28    1
     8    29    23    1
     9    28    27    1
    10     2     1    1
    11     2     3    1
    12    16    13    1
    13    13    12    1
    14    13    14    1
    15    23    14   am
    16    23    24    1
    17    12     7   am
    18     3     5   am
    19     3     4    2
    20    27    24    1
    21    11     5    1
    22    11    10    1
    23    14    15    2
    24    30    25   ar
    25     5     6    1
    26    24    25    1
    27     7     6    1
    28     7     8    2
    29    25    26   ar
    30    10     9    1
    31     6     9    1
