@<TRIPOS>MOLECULE
1fzc_III_G_1.pdb
 29 30 0 0 0
SMALL
GASTEIGER

@<TRIPOS>ATOM
      1  N        -43.9990    8.2140   97.5940 N.3     1  GLY1       -0.1210
      2  CA       -44.8350    7.5010   96.6350 C.3     1  GLY1        0.1940
      3  C        -45.8510    6.5580   97.2570 C.2     1  GLY1        0.2454
      4  O        -45.7340    5.3390   97.1120 O.2     1  GLY1       -0.2732
      5  N        -46.8890    7.0360   97.9120 N.am    2  PRO2       -0.2717
      6  CA       -47.9310    6.2190   98.4770 C.3     2  PRO2        0.1535
      7  C        -48.7720    5.6910   97.3420 C.2     2  PRO2        0.2598
      8  O        -48.6900    6.2400   96.2380 O.2     2  PRO2       -0.2715
      9  CB       -48.8360    7.1870   99.2690 C.3     2  PRO2        0.0310
     10  CG       -48.4940    8.5350   98.7390 C.3     2  PRO2        0.0237
     11  CD       -47.1140    8.4910   98.1470 C.3     2  PRO2        0.0939
     12  N        -49.6200    4.7140   97.6070 N.am    3  ARG3       -0.1964
     13  CA       -50.5140    4.2380   96.5650 C.3     3  ARG3        0.1714
     14  C        -51.9490    4.3400   97.1180 C.2     3  ARG3        0.2458
     15  O        -52.5730    3.3510   97.5020 O.2     3  ARG3       -0.2730
     16  CB       -50.3010    2.8100   96.1250 C.3     3  ARG3        0.0347
     17  CG       -49.4490    2.3760   94.9710 C.3     3  ARG3        0.0492
     18  CD       -49.5910    3.3460   93.7650 C.3     3  ARG3        0.2205
     19  NE       -48.4920    4.2990   94.0060 N.pl3   3  ARG3       -0.0865
     20  CZ       -47.4710    4.5000   93.2000 C.cat   3  ARG3        0.5346
     21  NH1      -47.3270    3.9030   92.0480 N.pl3   3  ARG3        0.1354
     22  NH2      -46.6720    5.3930   93.7490 N.pl3   3  ARG3        0.1354
     23  N        -52.4400    5.5730   97.2220 N.am    4  PRO4       -0.2727
     24  CA       -53.8320    5.7890   97.6370 C.3     4  PRO4        0.1402
     25  C        -54.7400    5.0200   96.6830 C.2     4  PRO4        0.2269
     26  O        -55.8270    4.6180   97.0960 O.2     4  PRO4       -0.2865
     27  CB       -54.0070    7.3000   97.5330 C.3     4  PRO4        0.0296
     28  CG       -53.0470    7.6490   96.4250 C.3     4  PRO4        0.0237
     29  CD       -51.8140    6.8430   96.7820 C.3     4  PRO4        0.0939
@<TRIPOS>BOND
     1    21    20    1
     2    20    22    1
     3    20    19    2
     4    18    19    1
     5    18    17    1
     6    17    16    1
     7    16    13    1
     8     8     7    2
     9    28    29    1
    10    28    27    1
    11    13    14    1
    12    13    12    1
    13     2     3    1
    14     2     1    1
    15    25    26    2
    16    25    24    1
    17    29    23    1
    18     4     3    2
    19    14    23   am
    20    14    15    2
    21    23    24    1
    22     3     5   am
    23     7    12   am
    24     7     6    1
    25    27    24    1
    26     5    11    1
    27     5     6    1
    28    11    10    1
    29     6     9    1
    30    10     9    1
