@<TRIPOS>MOLECULE
1fzf_III_M_1.pdb
 31 32 0 0 0
SMALL
GASTEIGER

@<TRIPOS>ATOM
      1  N         62.6910   88.2630  195.5180 N.3     1  GLY1       -0.1210
      2  CA        64.1330   88.4000  195.9010 C.3     1  GLY1        0.1956
      3  C         64.8140   87.0740  196.2030 C.2     1  GLY1        0.2612
      4  O         64.8180   86.1600  195.3690 O.2     1  GLY1       -0.2717
      5  N         65.4030   86.9730  197.3950 N.am    2  HIS2       -0.1961
      6  CA        66.0960   85.7570  197.8260 C.3     2  HIS2        0.1784
      7  C         65.2680   84.9730  198.8420 C.2     2  HIS2        0.2620
      8  O         64.3260   85.5070  199.4330 O.2     2  HIS2       -0.2715
      9  CB        67.4620   86.1020  198.4400 C.3     2  HIS2        0.0745
     10  CG        67.3810   86.7580  199.7880 C.2     2  HIS2        0.0653
     11  ND1       66.6550   87.9080  200.0200 N.2     2  HIS2       -0.2310
     12  CD2       67.9450   86.4270  200.9740 C.3     2  HIS2        0.1683
     13  CE1       66.7760   88.2560  201.2880 C.2     2  HIS2        0.1939
     14  NE2       67.5530   87.3740  201.8890 N.2     2  HIS2       -0.2440
     15  N         65.6450   83.7140  199.0620 N.am    3  ARG3       -0.1964
     16  CA        64.9460   82.8520  200.0150 C.3     3  ARG3        0.1714
     17  C         65.9350   82.0740  200.9070 C.2     3  ARG3        0.2454
     18  O         66.5960   81.1270  200.4510 O.2     3  ARG3       -0.2730
     19  CB        64.0200   81.8780  199.2690 C.3     3  ARG3        0.0347
     20  CG        63.0780   82.5300  198.2520 C.3     3  ARG3        0.0492
     21  CD        62.0040   83.3930  198.9060 C.3     3  ARG3        0.2205
     22  NE        61.5990   84.4980  198.0390 N.pl3   3  ARG3       -0.0865
     23  CZ        60.5720   84.4660  197.1960 C.cat   3  ARG3        0.5346
     24  NH1       59.8050   83.3880  197.1140 N.pl3   3  ARG3        0.1354
     25  NH2       60.2970   85.5280  196.4480 N.pl3   3  ARG3        0.1354
     26  N         66.0640   82.4820  202.1870 N.am    4  PRO4       -0.2798
     27  CA        66.9700   81.8300  203.1430 C.3     4  PRO4        0.0755
     28  C         66.6310   80.3550  203.3760 C.3     4  PRO4        0.0215
     29  CB        66.7690   82.6560  204.4160 C.3     4  PRO4        0.0216
     30  CG        66.4210   84.0130  203.8930 C.3     4  PRO4        0.0232
     31  CD        65.4470   83.6770  202.7920 C.3     4  PRO4        0.0934
@<TRIPOS>BOND
     1     4     3    2
     2     1     2    1
     3     2     3    1
     4     3     5   am
     5    25    23    1
     6    24    23    1
     7    23    22    2
     8     5     6    1
     9     6     9    1
    10     6     7    1
    11    22    21    1
    12    20    21    1
    13    20    19    1
    14     9    10    1
    15     7    15   am
    16     7     8    2
    17    15    16    1
    18    19    16    1
    19    10    11    2
    20    10    12    1
    21    16    17    1
    22    11    13    1
    23    18    17    2
    24    17    26   am
    25    12    14    1
    26    13    14    2
    27    26    31    1
    28    26    27    1
    29    31    30    1
    30    27    28    1
    31    27    29    1
    32    30    29    1
