@<TRIPOS>MOLECULE
1fzg_III_M_1.pdb
 31 32 0 0 0
SMALL
GASTEIGER

@<TRIPOS>ATOM
      1  N         63.3970   89.6620  194.4150 N.3     1  GLY1       -0.1210
      2  CA        64.3040   89.4830  195.5940 C.3     1  GLY1        0.1956
      3  C         64.9310   88.0920  195.5360 C.2     1  GLY1        0.2612
      4  O         64.7710   87.2820  194.5620 O.2     1  GLY1       -0.2717
      5  N         65.6940   87.9100  196.6070 N.am    2  HIS2       -0.1961
      6  CA        66.3340   86.5980  196.7940 C.3     2  HIS2        0.1784
      7  C         65.3950   85.7860  197.6920 C.2     2  HIS2        0.2620
      8  O         64.3960   86.2910  198.1880 O.2     2  HIS2       -0.2715
      9  CB        67.6320   86.8690  197.5600 C.3     2  HIS2        0.0745
     10  CG        67.5300   87.6270  198.8570 C.2     2  HIS2        0.0653
     11  ND1       66.7770   88.7670  199.0060 N.2     2  HIS2       -0.2310
     12  CD2       68.1530   87.4340  200.0690 C.3     2  HIS2        0.1683
     13  CE1       66.9150   89.2360  200.2330 C.2     2  HIS2        0.1939
     14  NE2       67.7440   88.4600  200.8960 N.2     2  HIS2       -0.2440
     15  N         65.7850   84.5630  197.9350 N.am    3  ARG3       -0.1964
     16  CA        65.1960   83.7570  199.0230 C.3     3  ARG3        0.1714
     17  C         66.3420   83.2390  199.9070 C.2     3  ARG3        0.2454
     18  O         67.1570   82.4590  199.3600 O.2     3  ARG3       -0.2730
     19  CB        64.4320   82.5440  198.4690 C.3     3  ARG3        0.0347
     20  CG        63.1600   82.8170  197.7320 C.3     3  ARG3        0.0492
     21  CD        62.0520   83.5190  198.5490 C.3     3  ARG3        0.2205
     22  NE        61.4610   84.5240  197.6250 N.pl3   3  ARG3       -0.0865
     23  CZ        60.6840   84.1470  196.5960 C.cat   3  ARG3        0.5346
     24  NH1       60.5020   82.8060  196.6350 N.pl3   3  ARG3        0.1354
     25  NH2       60.1680   84.9640  195.6930 N.pl3   3  ARG3        0.1354
     26  N         66.3960   83.5910  201.1670 N.am    4  PRO4       -0.2798
     27  CA        67.3570   83.0090  202.1290 C.3     4  PRO4        0.0755
     28  C         67.2100   81.4980  202.3650 C.3     4  PRO4        0.0215
     29  CB        67.0220   83.7430  203.4260 C.3     4  PRO4        0.0216
     30  CG        65.5600   84.0420  203.3250 C.3     4  PRO4        0.0232
     31  CD        65.4240   84.4850  201.8470 C.3     4  PRO4        0.0934
@<TRIPOS>BOND
     1     1     2    1
     2     4     3    2
     3     3     2    1
     4     3     5   am
     5    25    23    1
     6    23    24    1
     7    23    22    2
     8     5     6    1
     9     6     9    1
    10     6     7    1
    11     9    10    1
    12    22    21    1
    13     7    15   am
    14     7     8    2
    15    20    19    1
    16    20    21    1
    17    15    16    1
    18    19    16    1
    19    10    11    2
    20    10    12    1
    21    11    13    1
    22    16    17    1
    23    18    17    2
    24    17    26   am
    25    12    14    1
    26    13    14    2
    27    26    31    1
    28    26    27    1
    29    31    30    1
    30    27    28    1
    31    27    29    1
    32    30    29    1
