@<TRIPOS>MOLECULE
1fzj_FUL_A_1.pdb
 10 10 0 0 0
SMALL
GASTEIGER

@<TRIPOS>ATOM
      1  C1        60.3500   55.2240   20.1760 C.3   602  FUL602      0.1776
      2  C2        59.0450   54.5510   19.7780 C.3   602  FUL602      0.2141
      3  O2        58.6720   53.6030   20.7630 O.3   602  FUL602     -0.2176
      4  C3        57.9050   55.5480   19.5700 C.3   602  FUL602      0.2172
      5  O3        56.7680   54.8620   19.0650 O.3   602  FUL602     -0.2175
      6  C4        58.3110   56.6500   18.5860 C.3   602  FUL602      0.2116
      7  O4        58.2060   56.1850   17.2480 O.3   602  FUL602     -0.2177
      8  C5        59.7310   57.1810   18.8530 C.3   602  FUL602      0.1483
      9  C6        60.7420   56.8900   17.7560 C.3   602  FUL602      0.0349
     10  O5        60.2560   56.6660   20.1060 O.3   602  FUL602     -0.3508
@<TRIPOS>BOND
     1     7     6    1
     2     9     8    1
     3     6     8    1
     4     6     4    1
     5     8    10    1
     6     5     4    1
     7     4     2    1
     8     2     1    1
     9     2     3    1
    10    10     1    1
