@<TRIPOS>MOLECULE
1fzk_FUL_A_1.pdb
 10 10 0 0 0
SMALL
GASTEIGER

@<TRIPOS>ATOM
      1  C1        60.8190   54.5190   20.4110 C.3   602  FUL602      0.1776
      2  C2        59.6090   53.9610   19.6350 C.3   602  FUL602      0.2141
      3  O2        59.1120   52.7960   20.2790 O.3   602  FUL602     -0.2176
      4  C3        58.4970   54.9950   19.5280 C.3   602  FUL602      0.2172
      5  O3        57.5070   54.5490   18.6170 O.3   602  FUL602     -0.2175
      6  C4        59.1050   56.2970   19.0440 C.3   602  FUL602      0.2116
      7  O4        59.8210   56.0750   17.8360 O.3   602  FUL602     -0.2177
      8  C5        60.0480   56.8570   20.1170 C.3   602  FUL602      0.1483
      9  C6        61.2290   57.6410   19.5780 C.3   602  FUL602      0.0349
     10  O5        60.5620   55.8160   21.0110 O.3   602  FUL602     -0.3508
@<TRIPOS>BOND
     1     7     6    1
     2     5     4    1
     3     6     4    1
     4     6     8    1
     5     4     2    1
     6     9     8    1
     7     2     3    1
     8     2     1    1
     9     8    10    1
    10     1    10    1
