@<TRIPOS>MOLECULE
1fzm_FUL_A_1.pdb
 10 10 0 0 0
SMALL
GASTEIGER

@<TRIPOS>ATOM
      1  C1        61.7710   55.8510   20.1470 C.3   602  FUL602      0.1776
      2  C2        60.3860   55.2130   20.0030 C.3   602  FUL602      0.2141
      3  O2        60.0830   54.4690   21.1720 O.3   602  FUL602     -0.2176
      4  C3        59.2900   56.2540   19.7660 C.3   602  FUL602      0.2172
      5  O3        58.0900   55.5910   19.3910 O.3   602  FUL602     -0.2175
      6  C4        59.6890   57.2330   18.6600 C.3   602  FUL602      0.2116
      7  O4        59.6390   56.5820   17.4000 O.3   602  FUL602     -0.2177
      8  C5        61.0910   57.8320   18.8930 C.3   602  FUL602      0.1483
      9  C6        62.0600   57.6510   17.7380 C.3   602  FUL602      0.0349
     10  O5        61.7140   57.2920   20.0920 O.3   602  FUL602     -0.3508
@<TRIPOS>BOND
     1     7     6    1
     2     9     8    1
     3     6     8    1
     4     6     4    1
     5     8    10    1
     6     5     4    1
     7     4     2    1
     8     2     1    1
     9     2     3    1
    10    10     1    1
