@<TRIPOS>MOLECULE
1fzo_FUL_A_1.pdb
 10 10 0 0 0
SMALL
GASTEIGER

@<TRIPOS>ATOM
      1  C1        61.0990   55.1570   19.9420 C.3   602  FUL602      0.1776
      2  C2        59.7310   54.6140   19.5320 C.3   602  FUL602      0.2141
      3  O2        59.1560   53.8970   20.6100 O.3   602  FUL602     -0.2176
      4  C3        58.7750   55.7250   19.0780 C.3   602  FUL602      0.2172
      5  O3        57.6930   55.1580   18.3520 O.3   602  FUL602     -0.2175
      6  C4        59.5110   56.7340   18.1920 C.3   602  FUL602      0.2116
      7  O4        59.9550   56.0990   17.0010 O.3   602  FUL602     -0.2177
      8  C5        60.7090   57.3510   18.9380 C.3   602  FUL602      0.1483
      9  C6        61.9660   57.4900   18.0980 C.3   602  FUL602      0.0349
     10  O5        61.0560   56.5860   20.1330 O.3   602  FUL602     -0.3508
@<TRIPOS>BOND
     1     7     6    1
     2     9     8    1
     3     6     8    1
     4     6     4    1
     5     5     4    1
     6     8    10    1
     7     4     2    1
     8     2     1    1
     9     2     3    1
    10     1    10    1
