@<TRIPOS>MOLECULE
1fzq_GDP_A_1.pdb
 28 30 0 0 0
SMALL
GASTEIGER

@<TRIPOS>ATOM
      1  PB        17.9210   10.4740   18.3760 P.3   301  GDP301      0.5373
      2  O1B       18.6420   11.2950   17.3510 O.2   301  GDP301     -0.2221
      3  O2B       18.8180   10.1350   19.5810 O.3   301  GDP301     -0.1143
      4  O3B       16.6650   10.9840   19.0750 O.3   301  GDP301     -0.1143
      5  O3A       17.6190    8.9990   17.8500 O.3   301  GDP301     -0.2261
      6  PA        17.9250    8.2340   16.5890 P.3   301  GDP301      0.2231
      7  O1A       17.3680    8.8930   15.3360 O.2   301  GDP301     -0.5169
      8  O2A       19.4410    8.1780   16.3700 O.3   301  GDP301     -0.4370
      9  O5'       17.2910    6.8880   16.8030 O.3   301  GDP301     -0.3111
     10  C5'       17.6560    6.0580   17.9000 C.3   301  GDP301      0.1813
     11  C4'       17.4270    4.5420   17.5430 C.3   301  GDP301      0.1799
     12  O4'       16.0510    4.3050   17.3330 O.3   301  GDP301     -0.3326
     13  C3'       18.1770    4.0960   16.2600 C.3   301  GDP301      0.2158
     14  O3'       18.6110    2.7510   16.5880 O.3   301  GDP301     -0.2175
     15  C2'       17.0730    4.1220   15.2110 C.3   301  GDP301      0.2310
     16  O2'       17.2330    3.2810   14.0550 O.3   301  GDP301     -0.2158
     17  C1'       15.8380    3.7480   16.0310 C.3   301  GDP301      0.2293
     18  N9        14.6160    4.3720   15.4960 N.pl3 301  GDP301     -0.2354
     19  C8        14.3320    5.7010   15.1900 C.3   301  GDP301      0.2246
     20  N7        13.0850    5.8600   14.7230 N.2   301  GDP301     -0.2322
     21  C5        12.4980    4.5420   14.7200 C.2   301  GDP301      0.2182
     22  C6        11.1540    3.9440   14.3360 C.1   301  GDP301      0.2372
     23  O6        10.2440    4.6550   13.9110 O.2   301  GDP301     -0.2069
     24  N1        10.8920    2.6020   14.4520 N.2   301  GDP301     -0.2485
     25  C2        11.8420    1.6750   14.9270 C.1   301  GDP301      0.2531
     26  N2        11.5660    0.3730   15.0290 N.pl3 301  GDP301     -0.0226
     27  N3        13.0880    2.2190   15.2850 N.2   301  GDP301     -0.3074
     28  C4        13.4210    3.6740   15.1770 C.2   301  GDP301      0.2300
@<TRIPOS>BOND
     1    23    22    2
     2    16    15    1
     3    22    24    2
     4    22    21    1
     5    24    25    2
     6    21    20    2
     7    21    28    1
     8    20    19    1
     9    25    26    1
    10    25    27    2
    11    28    27    2
    12    28    18    1
    13    19    18    1
    14    15    17    1
    15    15    13    1
    16     7     6    2
    17    18    17    1
    18    17    12    1
    19    13    14    1
    20    13    11    1
    21     8     6    1
    22     6     9    1
    23     6     5    1
    24     9    10    1
    25    12    11    1
    26     2     1    2
    27    11    10    1
    28     5     1    1
    29     1     4    1
    30     1     3    1
