@<TRIPOS>MOLECULE
1fzu_2GP_A_1.pdb
 24 26 0 0 0
SMALL
GASTEIGER

@<TRIPOS>ATOM
      1  P         17.8260   12.1600   10.8990 P.3   105  2GP105      0.5327
      2  O1P       18.9510   13.0670   11.2240 O.3   105  2GP105     -0.1145
      3  O2P       16.6570   12.8130   10.2490 O.2   105  2GP105     -0.2224
      4  O3P       17.4920   11.1850   11.9560 O.3   105  2GP105     -0.1145
      5  O5'       22.5430   10.1200   11.0860 O.3   105  2GP105     -0.2176
      6  C5'       23.0180   10.5150    9.7950 C.3   105  2GP105      0.2142
      7  C4'       21.9060   10.6860    8.7380 C.3   105  2GP105      0.1827
      8  O4'       21.1950    9.4540    8.4710 O.3   105  2GP105     -0.3326
      9  C3'       20.8150   11.6370    9.2270 C.3   105  2GP105      0.2132
     10  O3'       20.3650   12.3280    8.0370 O.3   105  2GP105     -0.2176
     11  C2'       19.7360   10.7050    9.8140 C.3   105  2GP105      0.2054
     12  O2'       18.4150   11.2520    9.7420 O.3   105  2GP105     -0.2657
     13  C1'       19.7760    9.5900    8.8190 C.3   105  2GP105      0.2266
     14  N9        19.2840    8.2750    9.3500 N.pl3 105  2GP105     -0.2354
     15  C8        18.4940    7.3610    8.6860 C.3   105  2GP105      0.2246
     16  N7        18.4250    6.2010    9.2670 N.2   105  2GP105     -0.2322
     17  C5        19.2120    6.3520   10.3920 C.2   105  2GP105      0.2182
     18  C6        19.5440    5.4210   11.3890 C.1   105  2GP105      0.2372
     19  O6        19.2300    4.2370   11.3840 O.2   105  2GP105     -0.2069
     20  N1        20.3670    5.9480   12.3640 N.2   105  2GP105     -0.2485
     21  C2        20.8340    7.2380   12.3760 C.1   105  2GP105      0.2531
     22  N2        21.5780    7.6020   13.4110 N.pl3 105  2GP105     -0.0226
     23  N3        20.5390    8.1180   11.4240 N.2   105  2GP105     -0.3074
     24  C4        19.7290    7.6110   10.4700 C.2   105  2GP105      0.2300
@<TRIPOS>BOND
     1    10     9    1
     2     8     7    1
     3     8    13    1
     4    15    16    1
     5    15    14    1
     6     7     9    1
     7     7     6    1
     8    13    14    1
     9    13    11    1
    10     9    11    1
    11    16    17    2
    12    14    24    1
    13    12    11    1
    14    12     1    1
    15     6     5    1
    16     3     1    2
    17    17    24    1
    18    17    18    1
    19    24    23    2
    20     1     2    1
    21     1     4    1
    22    19    18    2
    23    18    20    2
    24    23    21    2
    25    20    21    2
    26    21    22    1
