@<TRIPOS>MOLECULE
1fzz_681_A_1.pdb
 33 35 0 0 0
SMALL
GASTEIGER

@<TRIPOS>ATOM
      1  C1        -8.5240   23.6690   37.5860 C.3   395  681395      0.2486
      2  O1        -8.3290   24.8770   37.0030 O.3   395  681395     -0.2112
      3  C2        -7.6330   22.9520   36.5310 C.ar  395  681395      0.2579
      4  N1        -6.8450   21.9590   36.7270 N.ar  395  681395     -0.1090
      5  O2        -7.9340   23.0800   35.2030 O.2   395  681395     -0.4207
      6  N2        -6.5990   21.3720   35.4720 N.ar  395  681395     -0.1116
      7  C3        -7.2480   22.0530   34.6280 C.ar  395  681395      0.2253
      8  C4        -7.2530   21.9130   33.1420 C.3   395  681395      0.0704
      9  C5        -6.6350   23.1450   32.5180 C.3   395  681395      0.0093
     10  C6        -6.4450   20.6990   32.7560 C.3   395  681395      0.0093
     11  C7        -8.6720   21.7480   32.6570 C.3   395  681395      0.0093
     12  CVA      -10.0500   23.7360   37.4040 C.3   395  681395      0.1348
     13  CVB      -10.5820   25.1680   37.7800 C.3   395  681395      0.0231
     14  CV1      -10.4380   25.4070   39.2740 C.3   395  681395      0.0019
     15  CV2      -12.0420   25.2800   37.3910 C.3   395  681395      0.0019
     16  NV       -10.6430   22.7520   38.2840 N.am  395  681395     -0.2024
     17  COG      -10.7250   21.5110   37.8240 C.2   395  681395      0.2646
     18  OCG      -10.4120   21.2050   36.6730 O.2   395  681395     -0.2712
     19  CAG      -11.2730   20.4820   38.7930 C.3   395  681395      0.1971
     20  N2X      -12.2790   19.6180   38.1920 N.ar  395  681395     -0.2703
     21  C1X      -12.0240   18.2790   37.8270 C.ar  395  681395      0.1465
     22  N1X      -12.9810   17.4740   37.5150 N.ar  395  681395     -0.2251
     23  C2X      -14.2710   17.9550   37.5450 C.ar  395  681395      0.1234
     24  C3X      -14.5880   19.2540   37.8920 C.ar  395  681395      0.1641
     25  C4X      -13.5170   20.1520   38.2410 C.ar  395  681395      0.2807
     26  O1X      -13.6820   21.3440   38.4920 O.2   395  681395     -0.2654
     27  N3X      -15.8560   19.7640   38.0420 N.pl3 395  681395     -0.1214
     28  C5X      -10.6000   17.8050   37.7040 C.ar  395  681395      0.0342
     29  C6X      -10.1620   16.7030   38.4330 C.ar  395  681395      0.0030
     30  C7X       -8.8750   16.2050   38.2590 C.ar  395  681395      0.0001
     31  C8X       -8.0100   16.8140   37.3470 C.ar  395  681395      0.0000
     32  C9X       -8.4400   17.9190   36.6130 C.ar  395  681395      0.0001
     33  C0X       -9.7330   18.4090   36.7950 C.ar  395  681395      0.0030
@<TRIPOS>BOND
     1     9     8    1
     2    11     8    1
     3    10     8    1
     4     8     7    1
     5     7     5   ar
     6     7     6   ar
     7     5     3   ar
     8     6     4   ar
     9     3     4   ar
    10     3     1    1
    11    32    33   ar
    12    32    31   ar
    13    18    17    2
    14    33    28   ar
    15     2     1    1
    16    31    30   ar
    17    15    13    1
    18    12     1    1
    19    12    13    1
    20    12    16    1
    21    22    23   ar
    22    22    21   ar
    23    23    24   ar
    24    28    21    1
    25    28    29   ar
    26    13    14    1
    27    17    16   am
    28    17    19    1
    29    21    20   ar
    30    24    27    1
    31    24    25   ar
    32    20    25   ar
    33    20    19    1
    34    25    26    2
    35    30    29   ar
