@<TRIPOS>MOLECULE
1g02_2GP_A_1.pdb
 24 26 0 0 0
SMALL
GASTEIGER

@<TRIPOS>ATOM
      1  P         11.0250    2.3390   15.4010 P.3   106  2GP106      0.5327
      2  O1P       12.1700    2.5630   14.5060 O.2   106  2GP106     -0.2224
      3  O2P        9.8690    1.5740   14.8720 O.3   106  2GP106     -0.1145
      4  O3P       11.4450    1.9130   16.7420 O.3   106  2GP106     -0.1145
      5  O5'        6.2550    3.3090   17.4050 O.3   106  2GP106     -0.2176
      6  C5'        5.7770    4.1700   16.3680 C.3   106  2GP106      0.2142
      7  C4'        6.9540    4.9540   15.7180 C.3   106  2GP106      0.1827
      8  O4'        7.6430    5.7630   16.7080 O.3   106  2GP106     -0.3326
      9  C3'        7.9730    3.9820   15.1270 C.3   106  2GP106      0.2132
     10  O3'        8.2930    4.5600   13.8600 O.3   106  2GP106     -0.2176
     11  C2'        9.1040    3.9870   16.1930 C.3   106  2GP106      0.2054
     12  O2'       10.4000    3.8020   15.5860 O.3   106  2GP106     -0.2657
     13  C1'        9.0390    5.3740   16.7310 C.3   106  2GP106      0.2266
     14  N9         9.5260    5.4990   18.1360 N.pl3 106  2GP106     -0.2354
     15  C8        10.3010    6.5300   18.5840 C.3   106  2GP106      0.2246
     16  N7        10.4090    6.4720   19.8740 N.2   106  2GP106     -0.2322
     17  C5         9.6880    5.3910   20.3020 C.2   106  2GP106      0.2182
     18  C6         9.4220    4.9360   21.6000 C.1   106  2GP106      0.2372
     19  O6         9.8250    5.4570   22.6300 O.2   106  2GP106     -0.2069
     20  N1         8.6330    3.8100   21.6440 N.2   106  2GP106     -0.2485
     21  C2         8.1370    3.2150   20.5500 C.1   106  2GP106      0.2531
     22  N2         7.4120    2.0940   20.8310 N.pl3 106  2GP106     -0.0226
     23  N3         8.3450    3.6300   19.2930 N.2   106  2GP106     -0.3074
     24  C4         9.1370    4.7350   19.2450 C.2   106  2GP106      0.2300
@<TRIPOS>BOND
     1    10     9    1
     2     2     1    2
     3     3     1    1
     4     9     7    1
     5     9    11    1
     6     1    12    1
     7     1     4    1
     8    12    11    1
     9     7     6    1
    10     7     8    1
    11    11    13    1
    12     6     5    1
    13     8    13    1
    14    13    14    1
    15    14    15    1
    16    14    24    1
    17    15    16    1
    18    24    23    2
    19    24    17    1
    20    23    21    2
    21    16    17    2
    22    17    18    1
    23    21    22    1
    24    21    20    2
    25    18    20    2
    26    18    19    2
