@<TRIPOS>MOLECULE
1g05_BBH_B_1.pdb
 29 31 0 0 0
SMALL
GASTEIGER

@<TRIPOS>ATOM
      1  C1         3.1000   48.3590   54.7670 C.ar  901  BBH901      0.1225
      2  C2         3.6250   48.8490   55.9940 C.ar  901  BBH901      0.0230
      3  C3         3.0830   48.4380   57.2390 C.ar  901  BBH901      0.0383
      4  C4         2.0330   47.5170   57.2080 C.ar  901  BBH901      0.1388
      5  C5         1.5240   47.0430   55.9930 C.ar  901  BBH901      0.0383
      6  C6         2.0350   47.4540   54.7570 C.ar  901  BBH901      0.0230
      7  O7         1.5140   47.0890   58.2610 O.3   901  BBH901     -0.4714
      8  C8         2.0440   47.4360   59.5530 C.3   901  BBH901      0.2525
      9  S9         3.7060   48.7960   53.2200 S.O2  901  BBH901      0.0650
     10  O10        3.2850   47.7490   52.2610 O.2   901  BBH901     -0.1527
     11  O11        5.1370   48.9360   53.3960 O.2   901  BBH901     -0.1527
     12  N12        2.9710   50.1530   52.6980 N.3   901  BBH901     -0.1303
     13  C13        1.7680   49.9490   51.8600 C.3   901  BBH901      0.1353
     14  C14        1.7270   50.8640   50.6150 C.3   901  BBH901      0.1095
     15  C15        2.4360   52.2120   50.7840 C.2   901  BBH901      0.2287
     16  N16        3.5150   52.3660   51.7400 N.am  901  BBH901     -0.2599
     17  C17        3.5270   51.5110   52.9580 C.3   901  BBH901      0.1923
     18  O18        2.0950   53.2940   50.0590 O.2   901  BBH901     -0.2748
     19  C          0.5180   50.0920   52.7010 C.2   901  BBH901      0.1035
     20  NA        -0.3340   49.0630   52.7690 N.am  901  BBH901     -0.2015
     21  OA        -1.5390   49.2140   53.4630 O.3   901  BBH901     -0.4026
     22  OB         0.2620   51.2210   53.3510 O.2   901  BBH901     -0.5381
     23  C7         4.5440   53.4070   51.4590 C.3   901  BBH901      0.1215
     24  C9         7.6170   51.2560   50.7680 C.ar  901  BBH901     -0.0003
     25  C10        6.3560   51.8210   50.6750 C.ar  901  BBH901     -0.0026
     26  C11        5.9420   52.8030   51.5780 C.ar  901  BBH901     -0.0023
     27  C12        6.8110   53.2180   52.5950 C.ar  901  BBH901     -0.0026
     28  C16        8.0870   52.6480   52.7270 C.ar  901  BBH901     -0.0003
     29  C18        8.4780   51.6760   51.7940 C.ar  901  BBH901     -0.0000
@<TRIPOS>BOND
     1    18    15    2
     2    14    15    1
     3    14    13    1
     4    25    24   ar
     5    25    26   ar
     6    24    29   ar
     7    15    16   am
     8    23    26    1
     9    23    16    1
    10    26    27   ar
    11    16    17    1
    12    29    28   ar
    13    13    12    1
    14    13    19    1
    15    10     9    2
    16    27    28   ar
    17    12    17    1
    18    12     9    1
    19    19    20   am
    20    19    22    2
    21    20    21    1
    22     9    11    2
    23     9     1    1
    24     6     1   ar
    25     6     5   ar
    26     1     2   ar
    27     5     4   ar
    28     2     3   ar
    29     4     3   ar
    30     4     7    1
    31     7     8    1
