@<TRIPOS>MOLECULE
1g08_HEM_A_1.pdb
 43 50 0 0 0
SMALL
GASTEIGER

@<TRIPOS>ATOM
      1 FE         33.0560   26.1990   12.8320 Fe    142  HEM142      0.0000
      2  CHA       32.0650   22.9740   12.7440 C.2   142  HEM142      0.0000
      3  CHB       30.6690   27.0450   10.5360 C.2   142  HEM142      0.0000
      4  CHC       33.8580   29.5050   13.2000 C.2   142  HEM142      0.0000
      5  CHD       35.6900   25.3590   14.8910 C.2   142  HEM142      0.0000
      6  NA        31.6420   25.2000   11.8350 N.ar  142  HEM142      0.0000
      7  C1A       31.4020   23.8360   11.8900 C.ar  142  HEM142      0.0000
      8  C2A       30.3750   23.5060   10.9330 C.ar  142  HEM142      0.0000
      9  C3A       29.9840   24.6300   10.3290 C.ar  142  HEM142      0.0000
     10  C4A       30.7710   25.7080   10.8850 C.ar  142  HEM142      0.0000
     11  CMA       28.9250   24.8270    9.2180 C.3   142  HEM142      0.0000
     12  CAA       29.8600   22.0710   10.7240 C.3   142  HEM142      0.0000
     13  CBA       28.6050   21.6730   11.5070 C.3   142  HEM142      0.0000
     14  CGA       28.0760   20.3360   11.0270 C.2   142  HEM142      0.0000
     15  O1A       27.2890   20.3630   10.0530 O.co2 142  HEM142      0.0000
     16  O2A       28.5230   19.3340   11.6120 O.co2 142  HEM142      0.0000
     17  NB        32.3870   27.9240   12.0320 N.2   142  HEM142      0.0000
     18  C1B       31.3910   28.0680   11.0960 C.2   142  HEM142      0.0000
     19  C2B       31.2540   29.4760   10.7540 C.2   142  HEM142      0.0000
     20  C3B       32.1370   30.1550   11.4820 C.2   142  HEM142      0.0000
     21  C4B       32.8580   29.1940   12.3040 C.2   142  HEM142      0.0000
     22  CMB       30.2190   29.9640    9.7240 C.3   142  HEM142      0.0000
     23  CAB       32.4320   31.6700   11.5720 C.2   142  HEM142      0.0000
     24  CBB       32.0150   32.5440   10.6730 C.2   142  HEM142      0.0000
     25  NC        34.4690   27.2310   13.8600 N.ar  142  HEM142      0.0000
     26  C1C       34.6910   28.6000   13.8210 C.ar  142  HEM142      0.0000
     27  C2C       35.9310   28.9090   14.5000 C.ar  142  HEM142      0.0000
     28  C3C       36.4370   27.7520   14.9670 C.ar  142  HEM142      0.0000
     29  C4C       35.5210   26.6970   14.5840 C.ar  142  HEM142      0.0000
     30  CMC       36.5140   30.3390   14.6210 C.3   142  HEM142      0.0000
     31  CAC       37.7260   27.4720   15.7680 C.2   142  HEM142      0.0000
     32  CBC       38.8580   28.1210   15.5650 C.2   142  HEM142      0.0000
     33  ND        33.7320   24.4990   13.6750 N.2   142  HEM142      0.0000
     34  C1D       34.8410   24.3420   14.4920 C.2   142  HEM142      0.0000
     35  C2D       34.9790   22.9430   14.8460 C.2   142  HEM142      0.0000
     36  C3D       33.9810   22.2900   14.2560 C.2   142  HEM142      0.0000
     37  C4D       33.1960   23.2330   13.5030 C.2   142  HEM142      0.0000
     38  CMD       36.1160   22.4230   15.7420 C.3   142  HEM142      0.0000
     39  CAD       33.6620   20.7760   14.2770 C.3   142  HEM142      0.0000
     40  CBD       34.5530   19.9370   13.3460 C.3   142  HEM142      0.0000
     41  CGD       34.3300   18.4450   13.4910 C.2   142  HEM142      0.0000
     42  O1D       34.7370   17.9270   14.5610 O.co2 142  HEM142      0.0000
     43  O2D       33.7410   17.8700   12.5480 O.co2 142  HEM142      0.0000
@<TRIPOS>BOND
     1    11     9    1
     2    22    19    1
     3    15    14   ar
     4     9    10   ar
     5     9     8   ar
     6     3    10    2
     7     3    18    1
     8    24    23    2
     9    12     8    1
    10    12    13    1
    11    19    18    1
    12    19    20    2
    13    10     6   ar
    14     8     7   ar
    15    14    13    1
    16    14    16   ar
    17    18    17    2
    18    20    23    1
    19    20    21    1
    20     6     7   ar
    21     6     1    1
    22     7     2    2
    23    17    21    1
    24    17     1    1
    25    21     4    2
    26    43    41   ar
    27     2    37    1
    28     1    33    1
    29     1    25    1
    30     4    26    1
    31    40    41    1
    32    40    39    1
    33    41    42   ar
    34    37    33    2
    35    37    36    1
    36    33    34    1
    37    26    25   ar
    38    26    27   ar
    39    25    29   ar
    40    36    39    1
    41    36    35    2
    42    34    35    1
    43    34     5    2
    44    27    30    1
    45    27    28   ar
    46    29     5    1
    47    29    28   ar
    48    35    38    1
    49    28    31    1
    50    32    31    2
