@<TRIPOS>MOLECULE
1g09_HEM_A_1.pdb
 43 50 0 0 0
SMALL
GASTEIGER

@<TRIPOS>ATOM
      1 FE         10.2420   68.1410   -2.2850 Fe    142  HEM142      0.0000
      2  CHA       10.5110   69.3160   -5.4750 C.2   142  HEM142      0.0000
      3  CHB       12.4700   70.5340   -1.2080 C.2   142  HEM142      0.0000
      4  CHC        9.8710   67.0500    0.9060 C.2   142  HEM142      0.0000
      5  CHD        8.3960   65.4720   -3.4200 C.2   142  HEM142      0.0000
      6  NA        11.2720   69.6220   -3.1580 N.2   142  HEM142      0.0000
      7  C1A       11.2670   69.9400   -4.5030 C.2   142  HEM142      0.0000
      8  C2A       12.1710   71.0490   -4.7240 C.2   142  HEM142      0.0000
      9  C3A       12.7130   71.3830   -3.5510 C.2   142  HEM142      0.0000
     10  C4A       12.1590   70.4940   -2.5500 C.2   142  HEM142      0.0000
     11  CMA       13.7510   72.4730   -3.2150 C.3   142  HEM142      0.0000
     12  CAA       12.4070   71.6340   -6.1270 C.3   142  HEM142      0.0000
     13  CBA       11.6900   72.9080   -6.5250 C.3   142  HEM142      0.0000
     14  CGA       12.2780   73.5600   -7.7620 C.2   142  HEM142      0.0000
     15  O1A       13.2980   74.2690   -7.5560 O.co2 142  HEM142      0.0000
     16  O2A       11.7330   73.3000   -8.8600 O.co2 142  HEM142      0.0000
     17  NB        11.0320   68.6700   -0.5090 N.ar  142  HEM142      0.0000
     18  C1B       11.8880   69.7290   -0.2540 C.ar  142  HEM142      0.0000
     19  C2B       12.0850   69.8580    1.1810 C.ar  142  HEM142      0.0000
     20  C3B       11.3790   68.8930    1.7740 C.ar  142  HEM142      0.0000
     21  C4B       10.7060   68.1370    0.7320 C.ar  142  HEM142      0.0000
     22  CMB       12.9850   70.9360    1.8110 C.3   142  HEM142      0.0000
     23  CAB       11.2370   68.5810    3.2840 C.2   142  HEM142      0.0000
     24  CBB       12.3070   68.2850    4.0280 C.2   142  HEM142      0.0000
     25  NC         9.3020   66.5830   -1.4290 N.2   142  HEM142      0.0000
     26  C1C        9.2880   66.2770   -0.0760 C.2   142  HEM142      0.0000
     27  C2C        8.5770   65.0360    0.1210 C.2   142  HEM142      0.0000
     28  C3C        8.1810   64.5870   -1.0750 C.2   142  HEM142      0.0000
     29  C4C        8.6220   65.5600   -2.0550 C.2   142  HEM142      0.0000
     30  CMC        8.3870   64.4230    1.5230 C.3   142  HEM142      0.0000
     31  CAC        7.3710   63.3380   -1.4550 C.2   142  HEM142      0.0000
     32  CBC        7.6090   62.1250   -0.9820 C.2   142  HEM142      0.0000
     33  ND         9.5820   67.5250   -4.0810 N.ar  142  HEM142      0.0000
     34  C1D        8.8390   66.3830   -4.3540 C.ar  142  HEM142      0.0000
     35  C2D        8.5910   66.3040   -5.7790 C.ar  142  HEM142      0.0000
     36  C3D        9.1600   67.3790   -6.3360 C.ar  142  HEM142      0.0000
     37  C4D        9.8040   68.1480   -5.3010 C.ar  142  HEM142      0.0000
     38  CMD        7.7840   65.1670   -6.4430 C.3   142  HEM142      0.0000
     39  CAD        9.2240   67.7610   -7.8370 C.3   142  HEM142      0.0000
     40  CBD       10.2470   66.9070   -8.6160 C.3   142  HEM142      0.0000
     41  CGD       10.2900   67.2040  -10.0940 C.2   142  HEM142      0.0000
     42  O1D        9.4150   66.6230  -10.7930 O.co2 142  HEM142      0.0000
     43  O2D       11.1870   67.9930  -10.4870 O.co2 142  HEM142      0.0000
@<TRIPOS>BOND
     1    42    41   ar
     2    43    41   ar
     3    41    40    1
     4    16    14   ar
     5    40    39    1
     6    39    36    1
     7    14    15   ar
     8    14    13    1
     9    13    12    1
    10    38    35    1
    11    36    35   ar
    12    36    37   ar
    13    12     8    1
    14    35    34   ar
    15     2    37    2
    16     2     7    1
    17    37    33   ar
    18     8     7    1
    19     8     9    2
    20     7     6    2
    21    34    33   ar
    22    34     5    2
    23    33     1    1
    24     9    11    1
    25     9    10    1
    26     5    29    1
    27     6    10    1
    28     6     1    1
    29    10     3    2
    30     1    25    1
    31     1    17    1
    32    29    25    2
    33    29    28    1
    34    31    28    1
    35    31    32    2
    36    25    26    1
    37     3    18    1
    38    28    27    2
    39    17    18   ar
    40    17    21   ar
    41    18    19   ar
    42    26    27    1
    43    26     4    2
    44    27    30    1
    45    21     4    1
    46    21    20   ar
    47    19    20   ar
    48    19    22    1
    49    20    23    1
    50    23    24    2
