@<TRIPOS>MOLECULE
1g0a_HEM_A_1.pdb
 43 50 0 0 0
SMALL
GASTEIGER

@<TRIPOS>ATOM
      1 FE         25.4900   53.8820   14.8560 Fe    142  HEM142      0.0000
      2  CHA       28.0990   56.0920   14.5290 C.2   142  HEM142      0.0000
      3  CHB       27.3650   51.9600   16.9100 C.2   142  HEM142      0.0000
      4  CHC       22.8080   51.8080   15.3470 C.2   142  HEM142      0.0000
      5  CHD       23.7310   55.5790   12.4620 C.2   142  HEM142      0.0000
      6  NA        27.3550   53.9930   15.5760 N.2   142  HEM142      0.0000
      7  C1A       28.3010   54.9670   15.2960 C.2   142  HEM142      0.0000
      8  C2A       29.5320   54.6090   15.9520 C.2   142  HEM142      0.0000
      9  C3A       29.3470   53.4770   16.6150 C.2   142  HEM142      0.0000
     10  C4A       27.9800   53.0750   16.3900 C.2   142  HEM142      0.0000
     11  CMA       30.3570   52.6660   17.4720 C.3   142  HEM142      0.0000
     12  CAA       30.8210   55.4620   15.8490 C.3   142  HEM142      0.0000
     13  CBA       31.3030   56.0270   17.2040 C.3   142  HEM142      0.0000
     14  CGA       32.7140   56.5710   17.0580 C.2   142  HEM142      0.0000
     15  O1A       33.6270   55.9290   17.6290 O.co2 142  HEM142      0.0000
     16  O2A       32.7760   57.5780   16.3010 O.co2 142  HEM142      0.0000
     17  NB        25.1520   52.2030   15.9050 N.ar  142  HEM142      0.0000
     18  C1B       26.0540   51.5770   16.7500 C.ar  142  HEM142      0.0000
     19  C2B       25.4190   50.4550   17.4130 C.ar  142  HEM142      0.0000
     20  C3B       24.1520   50.4030   16.9720 C.ar  142  HEM142      0.0000
     21  C4B       23.9670   51.5050   16.0400 C.ar  142  HEM142      0.0000
     22  CMB       26.1660   49.5590   18.4200 C.3   142  HEM142      0.0000
     23  CAB       23.0400   49.4140   17.3490 C.2   142  HEM142      0.0000
     24  CBB       23.2700   48.3010   18.0520 C.2   142  HEM142      0.0000
     25  NC        23.6160   53.7680   14.1000 N.2   142  HEM142      0.0000
     26  C1C       22.6690   52.7840   14.3800 C.2   142  HEM142      0.0000
     27  C2C       21.5370   52.9340   13.4860 C.2   142  HEM142      0.0000
     28  C3C       21.8040   53.9610   12.6740 C.2   142  HEM142      0.0000
     29  C4C       23.1080   54.4970   13.0470 C.2   142  HEM142      0.0000
     30  CMC       20.3140   52.0000   13.5010 C.3   142  HEM142      0.0000
     31  CAC       20.9480   54.5510   11.5340 C.2   142  HEM142      0.0000
     32  CBC       20.5090   53.7620   10.5520 C.2   142  HEM142      0.0000
     33  ND        25.8320   55.5010   13.7230 N.ar  142  HEM142      0.0000
     34  C1D       24.9870   56.0570   12.7820 C.ar  142  HEM142      0.0000
     35  C2D       25.6360   57.2070   12.1810 C.ar  142  HEM142      0.0000
     36  C3D       26.8170   57.3450   12.7660 C.ar  142  HEM142      0.0000
     37  C4D       26.9820   56.2820   13.7340 C.ar  142  HEM142      0.0000
     38  CMD       25.0240   58.0760   11.0730 C.3   142  HEM142      0.0000
     39  CAD       27.9270   58.3900   12.4530 C.3   142  HEM142      0.0000
     40  CBD       28.8600   57.8890   11.3300 C.3   142  HEM142      0.0000
     41  CGD       30.0530   58.7690   11.0730 C.2   142  HEM142      0.0000
     42  O1D       29.7580   59.9180   10.6460 O.co2 142  HEM142      0.0000
     43  O2D       31.1900   58.2800   11.3090 O.co2 142  HEM142      0.0000
@<TRIPOS>BOND
     1    32    31    2
     2    42    41   ar
     3    41    43   ar
     4    41    40    1
     5    38    35    1
     6    40    39    1
     7    31    28    1
     8    35    36   ar
     9    35    34   ar
    10    39    36    1
    11     5    34    2
    12     5    29    1
    13    28    29    1
    14    28    27    2
    15    36    37   ar
    16    34    33   ar
    17    29    25    2
    18    27    30    1
    19    27    26    1
    20    33    37   ar
    21    33     1    1
    22    37     2    2
    23    25    26    1
    24    25     1    1
    25    26     4    2
    26     2     7    1
    27     1     6    1
    28     1    17    1
    29     7     6    2
    30     7     8    1
    31     4    21    1
    32     6    10    1
    33    12     8    1
    34    12    13    1
    35    17    21   ar
    36    17    18   ar
    37     8     9    2
    38    21    20   ar
    39    16    14   ar
    40    10     9    1
    41    10     3    2
    42     9    11    1
    43    18     3    1
    44    18    19   ar
    45    20    23    1
    46    20    19   ar
    47    14    13    1
    48    14    15   ar
    49    23    24    2
    50    19    22    1
