@<TRIPOS>MOLECULE
1g0b_HEM_A_1.pdb
 43 50 0 0 0
SMALL
GASTEIGER

@<TRIPOS>ATOM
      1  CHA       39.6500   -9.9280    5.4870 C.2   142  HEM142      0.0000
      2  CHB       37.1430  -11.4650    9.3580 C.2   142  HEM142      0.0000
      3  CHC       38.8640   -7.7190   11.8930 C.2   142  HEM142      0.0000
      4  CHD       40.8010   -5.8750    7.8720 C.2   142  HEM142      0.0000
      5  C1A       38.8100  -10.6540    6.3120 C.2   142  HEM142      0.0000
      6  C2A       38.1020  -11.8600    5.9530 C.2   142  HEM142      0.0000
      7  C3A       37.4230  -12.2730    7.0200 C.2   142  HEM142      0.0000
      8  C4A       37.6850  -11.3420    8.0940 C.2   142  HEM142      0.0000
      9  CMA       36.5000  -13.4960    7.2130 C.3   142  HEM142      0.0000
     10  CAA       38.1550  -12.4850    4.5520 C.3   142  HEM142      0.0000
     11  CBA       39.4770  -12.8680    3.9220 C.3   142  HEM142      0.0000
     12  CGA       39.3100  -13.4150    2.5060 C.2   142  HEM142      0.0000
     13  O1A       39.0080  -14.6290    2.4360 O.co2 142  HEM142      0.0000
     14  O2A       39.4550  -12.5610    1.5940 O.co2 142  HEM142      0.0000
     15  C1B       37.4490  -10.6020   10.3850 C.ar  142  HEM142      0.0000
     16  C2B       37.0140  -10.7740   11.7680 C.ar  142  HEM142      0.0000
     17  C3B       37.5000   -9.7660   12.4740 C.ar  142  HEM142      0.0000
     18  C4B       38.2290   -8.9030   11.5610 C.ar  142  HEM142      0.0000
     19  CMB       36.1740  -12.0020   12.1950 C.3   142  HEM142      0.0000
     20  CAB       37.3580   -9.4410   13.9680 C.2   142  HEM142      0.0000
     21  CBB       36.1890   -9.5900   14.5860 C.2   142  HEM142      0.0000
     22  C1C       39.4820   -6.8460   11.0170 C.2   142  HEM142      0.0000
     23  C2C       39.9290   -5.5160   11.3320 C.2   142  HEM142      0.0000
     24  C3C       40.4600   -5.0020   10.2150 C.2   142  HEM142      0.0000
     25  C4C       40.3430   -5.9910    9.1690 C.2   142  HEM142      0.0000
     26  CMC       39.7990   -4.8680   12.7320 C.3   142  HEM142      0.0000
     27  CAC       41.1000   -3.6160   10.0030 C.2   142  HEM142      0.0000
     28  CBC       40.5770   -2.5160   10.5310 C.2   142  HEM142      0.0000
     29  C1D       40.6910   -6.8130    6.8670 C.ar  142  HEM142      0.0000
     30  C2D       41.1530   -6.6720    5.4950 C.ar  142  HEM142      0.0000
     31  C3D       40.8500   -7.7990    4.8540 C.ar  142  HEM142      0.0000
     32  C4D       40.1660   -8.6760    5.7800 C.ar  142  HEM142      0.0000
     33  CMD       41.8850   -5.4320    4.9400 C.3   142  HEM142      0.0000
     34  CAD       41.0910   -8.1440    3.3590 C.3   142  HEM142      0.0000
     35  CBD       39.9300   -7.6830    2.4580 C.3   142  HEM142      0.0000
     36  CGD       40.0970   -7.8680    0.9790 C.2   142  HEM142      0.0000
     37  O1D       39.0700   -8.1250    0.2930 O.co2 142  HEM142      0.0000
     38  O2D       41.2560   -7.7150    0.5280 O.co2 142  HEM142      0.0000
     39  NA        38.5230  -10.3510    7.6330 N.2   142  HEM142      0.0000
     40  NB        38.1890   -9.4310   10.2820 N.ar  142  HEM142      0.0000
     41  NC        39.7400   -7.1200    9.6810 N.2   142  HEM142      0.0000
     42  ND        40.0720   -8.0440    7.0140 N.ar  142  HEM142      0.0000
     43 FE         39.1110   -8.7190    8.6440 Fe    142  HEM142      0.0000
@<TRIPOS>BOND
     1    37    36   ar
     2    38    36   ar
     3    36    35    1
     4    14    12   ar
     5    13    12   ar
     6    35    34    1
     7    12    11    1
     8    34    31    1
     9    11    10    1
    10    10     6    1
    11    31    30   ar
    12    31    32   ar
    13    33    30    1
    14     1    32    2
    15     1     5    1
    16    30    29   ar
    17    32    42   ar
    18     6     5    1
    19     6     7    2
    20     5    39    2
    21    29    42   ar
    22    29     4    2
    23    42    43    1
    24     7     9    1
    25     7     8    1
    26    39     8    1
    27    39    43    1
    28     4    25    1
    29     8     2    2
    30    43    41    1
    31    43    40    1
    32    25    41    2
    33    25    24    1
    34     2    15    1
    35    41    22    1
    36    27    24    1
    37    27    28    2
    38    24    23    2
    39    40    15   ar
    40    40    18   ar
    41    15    16   ar
    42    22    23    1
    43    22     3    2
    44    23    26    1
    45    18     3    1
    46    18    17   ar
    47    16    19    1
    48    16    17   ar
    49    17    20    1
    50    20    21    2
