@<TRIPOS>MOLECULE
1g0c_CBI_A_1.pdb
 23 24 0 0 0
SMALL
GASTEIGER

@<TRIPOS>ATOM
      1  C1         4.4380   42.0430   35.6210 C.3   585  CBI585      0.2695
      2  C2         3.1910   41.1670   35.8060 C.3   585  CBI585      0.2406
      3  C3         3.6160   39.7580   36.1900 C.3   585  CBI585      0.2198
      4  C4         4.5700   39.2070   35.1380 C.3   585  CBI585      0.2144
      5  C5         5.7530   40.1620   34.9860 C.3   585  CBI585      0.1835
      6  C6         6.7750   39.7270   33.9520 C.3   585  CBI585      0.2142
      7  O2         2.3760   41.7170   36.8390 O.3   585  CBI585     -0.2149
      8  O3         2.4630   38.9430   36.2830 O.3   585  CBI585     -0.2174
      9  O4         5.0340   37.9340   35.5580 O.3   585  CBI585     -0.2176
     10  O5         5.2990   41.4780   34.6270 O.3   585  CBI585     -0.3256
     11  O6         6.2550   39.7930   32.6310 O.3   585  CBI585     -0.2176
     12  C1'        5.8740   47.1110   36.0540 C.3   585  CBI585      0.3023
     13  C2'        6.1360   46.4370   34.6870 C.3   585  CBI585      0.2433
     14  C3'        5.1750   45.2760   34.3390 C.3   585  CBI585      0.2168
     15  C4'        5.0160   44.3470   35.5190 C.3   585  CBI585      0.1804
     16  C5'        4.5300   45.2130   36.6650 C.3   585  CBI585      0.1804
     17  C6'        4.0860   44.4400   37.8950 C.3   585  CBI585      0.2141
     18  O1'        4.6840   47.8160   35.9030 O.3   585  CBI585     -0.1869
     19  O2'        6.0450   47.4170   33.6700 O.3   585  CBI585     -0.2148
     20  O3'        5.6760   44.5390   33.2330 O.3   585  CBI585     -0.2175
     21  O4'        4.0640   43.3110   35.2160 O.3   585  CBI585     -0.3257
     22  O5'        5.5770   46.1200   37.0480 O.3   585  CBI585     -0.3237
     23  O6'        5.1470   44.2840   38.8370 O.3   585  CBI585     -0.2176
@<TRIPOS>BOND
     1    11     6    1
     2    20    14    1
     3    19    13    1
     4     6     5    1
     5    14    13    1
     6    14    15    1
     7    10     5    1
     8    10     1    1
     9    13    12    1
    10     5     4    1
    11     4     9    1
    12     4     3    1
    13    21    15    1
    14    21     1    1
    15    15    16    1
    16     1     2    1
    17     2     3    1
    18     2     7    1
    19    18    12    1
    20    12    22    1
    21     3     8    1
    22    16    22    1
    23    16    17    1
    24    17    23    1
