@<TRIPOS>MOLECULE
1g0h_IPD_A_1.pdb
 16 16 0 0 0
SMALL
GASTEIGER

@<TRIPOS>ATOM
      1  C1        20.6070   20.3400   43.7770 C.3   292  IPD292      0.1919
      2  C2        19.9030   21.5670   43.0610 C.3   292  IPD292      0.2148
      3  C3        20.6760   22.8680   43.4430 C.3   292  IPD292      0.2174
      4  C4        22.1500   22.8050   43.0650 C.3   292  IPD292      0.2175
      5  C5        22.8540   21.5630   43.6580 C.3   292  IPD292      0.2174
      6  C6        22.1060   20.2640   43.3020 C.3   292  IPD292      0.2148
      7  P1        20.0280   17.7500   44.2930 P.3   292  IPD292      0.5327
      8  O1        19.9010   19.0720   43.4180 O.3   292  IPD292     -0.2673
      9  O2        19.8060   21.4360   41.6200 O.3   292  IPD292     -0.2176
     10  O3        20.0590   23.9830   42.8130 O.3   292  IPD292     -0.2175
     11  O4        22.8150   23.9990   43.4960 O.3   292  IPD292     -0.2175
     12  O5        24.1980   21.4980   43.1590 O.3   292  IPD292     -0.2175
     13  O6        22.7650   19.1070   43.8740 O.3   292  IPD292     -0.2176
     14  O7        19.2940   16.5860   43.7040 O.2   292  IPD292     -0.2224
     15  O8        21.5150   17.3650   44.4360 O.3   292  IPD292     -0.1145
     16  O9        19.4900   18.1260   45.6420 O.3   292  IPD292     -0.1145
@<TRIPOS>BOND
     1     9     2    1
     2    10     3    1
     3     2     3    1
     4     2     1    1
     5     4     3    1
     6     4    11    1
     7     4     5    1
     8    12     5    1
     9     6     5    1
    10     6     1    1
    11     6    13    1
    12     8     1    1
    13     8     7    1
    14    14     7    2
    15     7    15    1
    16     7    16    1
