@<TRIPOS>MOLECULE
1g0i_INS_A_1.pdb
 12 12 0 0 0
SMALL
GASTEIGER

@<TRIPOS>ATOM
      1  C1        11.3470   40.5420   49.7550 C.3   594  INS594      0.2175
      2  C2         9.7870   40.7420   49.7670 C.3   594  INS594      0.2175
      3  C3         9.3920   42.2300   49.9100 C.3   594  INS594      0.2175
      4  C4        10.1640   43.1780   48.9950 C.3   594  INS594      0.2175
      5  C5        11.6880   42.9930   49.1860 C.3   594  INS594      0.2175
      6  C6        12.0670   41.5480   48.7850 C.3   594  INS594      0.2175
      7  O1        11.6810   39.1290   49.3930 O.3   594  INS594     -0.2175
      8  O2         9.0480   40.0630   48.7250 O.3   594  INS594     -0.2175
      9  O3         7.9990   42.4110   49.6870 O.3   594  INS594     -0.2175
     10  O4         9.7570   44.5210   49.2640 O.3   594  INS594     -0.2175
     11  O5        12.4340   43.9410   48.4250 O.3   594  INS594     -0.2175
     12  O6        13.5040   41.3790   48.7900 O.3   594  INS594     -0.2175
@<TRIPOS>BOND
     1    11     5    1
     2     8     2    1
     3     6    12    1
     4     6     5    1
     5     6     1    1
     6     4     5    1
     7     4    10    1
     8     4     3    1
     9     7     1    1
    10     9     3    1
    11     1     2    1
    12     2     3    1
