@<TRIPOS>MOLECULE
1g0n_NDP_A_1.pdb
 48 52 0 0 0
SMALL
GASTEIGER

@<TRIPOS>ATOM
      1  PA        89.8490   74.3530   -6.6400 P.3   400  NDP400      0.2189
      2  O1A       90.8090   75.4880   -6.6530 O.3   400  NDP400     -0.4371
      3  O2A       89.5190   73.6210   -7.8750 O.2   400  NDP400     -0.5170
      4  O5B       88.4920   74.8050   -5.8620 O.3   400  NDP400     -0.3112
      5  C5B       87.9170   73.9170   -4.8990 C.3   400  NDP400      0.1813
      6  C4B       86.6520   74.4010   -4.1680 C.3   400  NDP400      0.1820
      7  O4B       86.9860   75.3030   -3.0880 O.3   400  NDP400     -0.3136
      8  C3B       85.6610   75.1180   -5.0630 C.3   400  NDP400      0.2157
      9  O3B       84.3730   74.5150   -5.0650 O.3   400  NDP400     -0.2175
     10  C2B       85.4700   76.4480   -4.3640 C.3   400  NDP400      0.2314
     11  O2B       84.1330   76.9910   -4.4220 O.3   400  NDP400     -0.2630
     12  C1B       85.7840   76.0510   -2.9570 C.3   400  NDP400      0.3158
     13  N9A       85.7910   77.2760   -2.0890 N.pl3 400  NDP400     -0.1439
     14  C8A       86.7130   78.2590   -2.1110 C.3   400  NDP400      0.3377
     15  N7A       86.4180   79.1810   -1.1900 N.2   400  NDP400     -0.2095
     16  C5A       85.3080   78.7590   -0.6010 C.2   400  NDP400      0.2526
     17  C6A       84.6120   79.4060    0.4450 C.2   400  NDP400      0.4393
     18  N6A       84.9960   80.5590    0.9960 N.pl3 400  NDP400      0.2180
     19  N1A       83.4990   78.7760    0.8860 N.2   400  NDP400      0.0021
     20  C2A       83.0790   77.6140    0.3570 C.3   400  NDP400      0.5254
     21  N3A       83.7500   77.0050   -0.6410 N.2   400  NDP400     -0.0055
     22  C4A       84.8780   77.5620   -1.1470 C.2   400  NDP400      0.3518
     23  O3        90.4300   73.2940   -5.5990 O.3   400  NDP400     -0.2703
     24  PN        90.7270   71.7390   -5.5490 P.3   400  NDP400      0.2189
     25  O1N       89.4980   71.0160   -5.9880 O.3   400  NDP400     -0.4371
     26  O2N       91.9990   71.5140   -6.2470 O.2   400  NDP400     -0.5170
     27  O5D       90.9750   71.4820   -3.9930 O.3   400  NDP400     -0.3112
     28  C5D       89.9110   71.3340   -3.0740 C.3   400  NDP400      0.1813
     29  C4D       90.4910   71.0330   -1.7140 C.3   400  NDP400      0.1799
     30  O4D       91.5710   70.0500   -1.8090 O.3   400  NDP400     -0.3327
     31  C3D       91.1230   72.2480   -1.0890 C.3   400  NDP400      0.2158
     32  O3D       90.8910   72.2800    0.3320 O.3   400  NDP400     -0.2175
     33  C2D       92.6050   72.1290   -1.4520 C.3   400  NDP400      0.2309
     34  O2D       93.4970   72.9530   -0.6800 O.3   400  NDP400     -0.2158
     35  C1D       92.7830   70.6290   -1.2640 C.3   400  NDP400      0.2263
     36  N1N       93.9670   70.0960   -1.9880 N.pl3 400  NDP400     -0.2787
     37  C2N       94.1330   70.2120   -3.3940 C.3   400  NDP400      0.1244
     38  C3N       95.2820   69.6930   -4.0220 C.2   400  NDP400      0.0544
     39  C7N       95.5550   69.7900   -5.5330 C.2   400  NDP400      0.2818
     40  O7N       96.6640   69.4890   -5.9550 O.2   400  NDP400     -0.2670
     41  N7N       94.5880   70.2320   -6.3480 N.am  400  NDP400     -0.0839
     42  C4N       96.2510   69.0620   -3.2370 C.2   400  NDP400      0.0033
     43  C5N       96.0930   68.9430   -1.8470 C.2   400  NDP400      0.0157
     44  C6N       94.9480   69.4630   -1.2110 C.2   400  NDP400      0.0633
     45  P2B       83.6400   77.9370   -5.6210 P.3   400  NDP400      0.5328
     46  O1X       83.0540   77.1160   -6.6920 O.2   400  NDP400     -0.2224
     47  O2X       84.7690   78.6830   -6.2160 O.3   400  NDP400     -0.1145
     48  O3X       82.6660   78.8800   -5.0660 O.3   400  NDP400     -0.1145
@<TRIPOS>BOND
     1     3     1    2
     2    46    45    2
     3     2     1    1
     4     1     4    1
     5     1    23    1
     6    41    39   am
     7    26    24    2
     8    47    45    1
     9    25    24    1
    10    40    39    2
    11     4     5    1
    12    45    48    1
    13    45    11    1
    14    23    24    1
    15    24    27    1
    16    39    38    1
    17     9     8    1
    18     8    10    1
    19     8     6    1
    20     5     6    1
    21    11    10    1
    22    10    12    1
    23     6     7    1
    24    38    37    1
    25    38    42    2
    26    27    28    1
    27    37    36    1
    28    42    43    1
    29     7    12    1
    30    28    29    1
    31    12    13    1
    32    14    13    1
    33    14    15    1
    34    13    22    1
    35    36    35    1
    36    36    44    1
    37    43    44    2
    38    30    29    1
    39    30    35    1
    40    29    31    1
    41    33    35    1
    42    33    31    1
    43    33    34    1
    44    15    16    2
    45    22    21    2
    46    22    16    1
    47    31    32    1
    48    21    20    1
    49    16    17    1
    50    20    19    1
    51    17    19    2
    52    17    18    1
