@<TRIPOS>MOLECULE
1g0n_PHH_A_1.pdb
 14 15 0 0 0
SMALL
GASTEIGER

@<TRIPOS>ATOM
      1  C1        98.7240   71.7550   -5.9360 C.ar  402  PHH402      0.0688
      2  C2        98.5010   71.6280   -4.5850 C.ar  402  PHH402      0.0398
      3  C3        97.4480   72.2420   -3.7100 C.3   402  PHH402      0.2365
      4  O4        97.6080   71.8170   -2.4480 O.3   402  PHH402     -0.4404
      5  C5        98.7710   70.9060   -2.4390 C.2   402  PHH402      0.3422
      6  C6        99.3060   70.8210   -3.8220 C.ar  402  PHH402      0.0874
      7  C7       100.3750   70.1350   -4.3610 C.ar  402  PHH402      0.0751
      8 CL7       101.3580   69.1430   -3.3460 Cl    402  PHH402     -0.0811
      9  C8       100.6330   70.2520   -5.7110 C.ar  402  PHH402      0.0797
     10 CL8       102.0030   69.3730   -6.3580 Cl    402  PHH402     -0.0805
     11  C9        99.8100   71.0540   -6.5170 C.ar  402  PHH402      0.0794
     12 CL9       100.1090   71.2010   -8.2380 Cl    402  PHH402     -0.0805
     13 CL10       97.6590   72.7690   -6.8610 Cl    402  PHH402     -0.0815
     14  O11       99.2560   70.2640   -1.3940 O.2   402  PHH402     -0.2449
@<TRIPOS>BOND
     1    12    11    1
     2    13     1    1
     3    11     1   ar
     4    11     9   ar
     5    10     9    1
     6     1     2   ar
     7     9     7   ar
     8     2     6   ar
     9     2     3    1
    10     7     6   ar
    11     7     8    1
    12     6     5    1
    13     3     4    1
    14     4     5    1
    15     5    14    2
