@<TRIPOS>MOLECULE
1g0o_PYQ_A_1.pdb
 13 15 0 0 0
SMALL
GASTEIGER

@<TRIPOS>ATOM
      1  C1         2.5580   89.5890   58.6660 C.ar  1404  PYQ1404     0.0014
      2  C2         3.8900   89.2980   58.3190 C.ar  1404  PYQ1404     0.0164
      3  C3         4.8900   89.6790   59.2350 C.ar  1404  PYQ1404     0.0668
      4  C5         4.6200   90.3130   60.4370 C.ar  1404  PYQ1404     0.0177
      5  C6         5.9430   90.5650   61.1480 C.ar  1404  PYQ1404     0.0205
      6  C7         6.9600   89.9650   60.1320 C.ar  1404  PYQ1404     0.0830
      7  N8         6.2080   89.4790   59.0620 N.ar  1404  PYQ1404    -0.2731
      8  C9         6.6520   88.8780   57.9620 C.ar  1404  PYQ1404     0.2648
      9  O10        7.9080   88.6990   57.8220 O.2   1404  PYQ1404    -0.2666
     10  C11        5.7280   88.4490   56.9740 C.ar  1404  PYQ1404     0.0611
     11  C12        4.3360   88.6600   57.1470 C.ar  1404  PYQ1404     0.0063
     12  C13        3.2970   90.6030   60.7910 C.ar  1404  PYQ1404     0.0015
     13  C14        2.2730   90.2360   59.8920 C.ar  1404  PYQ1404     0.0001
@<TRIPOS>BOND
     1    10    11   ar
     2    10     8   ar
     3    11     2   ar
     4     9     8    2
     5     8     7   ar
     6     2     1   ar
     7     2     3   ar
     8     1    13   ar
     9     7     3   ar
    10     7     6   ar
    11     3     4   ar
    12    13    12   ar
    13     6     5   ar
    14     4    12   ar
    15     4     5   ar
