@<TRIPOS>MOLECULE
1g0o_NDP_A_1.pdb
 48 52 0 0 0
SMALL
GASTEIGER

@<TRIPOS>ATOM
      1  PA        11.4150   88.9960   67.3280 P.3   1400  NDP1400     0.2189
      2  O1A       10.3880   88.4940   68.2780 O.3   1400  NDP1400    -0.4371
      3  O2A       11.5250   90.4230   66.9400 O.2   1400  NDP1400    -0.5170
      4  O5B       12.8680   88.4870   67.8550 O.3   1400  NDP1400    -0.3112
      5  C5B       13.7290   87.8660   66.8830 C.3   1400  NDP1400     0.1813
      6  C4B       15.0900   87.3800   67.3600 C.3   1400  NDP1400     0.1820
      7  O4B       16.1160   88.0200   66.5650 O.3   1400  NDP1400    -0.3136
      8  C3B       15.3430   87.6990   68.8180 C.3   1400  NDP1400     0.2157
      9  O3B       15.7820   86.5460   69.5470 O.3   1400  NDP1400    -0.2175
     10  C2B       16.5510   88.6010   68.7820 C.3   1400  NDP1400     0.2314
     11  O2B       17.3590   88.3520   69.9800 O.3   1400  NDP1400    -0.2630
     12  C1B       17.1890   88.1710   67.4710 C.3   1400  NDP1400     0.3158
     13  N9A       18.2530   89.1080   67.0930 N.pl3 1400  NDP1400    -0.1439
     14  C8A       18.0330   90.3560   66.6530 C.3   1400  NDP1400     0.3377
     15  N7A       19.1770   90.9490   66.3740 N.2   1400  NDP1400    -0.2095
     16  C5A       20.1030   90.0460   66.6470 C.2   1400  NDP1400     0.2526
     17  C6A       21.4920   90.2180   66.5040 C.2   1400  NDP1400     0.4393
     18  N6A       22.0500   91.3650   66.0580 N.pl3 1400  NDP1400     0.2180
     19  N1A       22.2580   89.1380   66.8460 N.2   1400  NDP1400     0.0021
     20  C2A       21.7080   87.9830   67.2910 C.3   1400  NDP1400     0.5254
     21  N3A       20.3600   87.8390   67.4230 N.2   1400  NDP1400    -0.0055
     22  C4A       19.5430   88.8630   67.1060 C.2   1400  NDP1400     0.3518
     23  O3        11.3120   88.1190   66.0040 O.3   1400  NDP1400    -0.2703
     24  PN        10.4810   86.8770   65.4940 P.3   1400  NDP1400     0.2189
     25  O1N       10.6890   85.8160   66.4930 O.3   1400  NDP1400    -0.4371
     26  O2N        9.1170   87.2920   65.1080 O.2   1400  NDP1400    -0.5170
     27  O5D       11.2590   86.4990   64.1400 O.3   1400  NDP1400    -0.3112
     28  C5D       12.3780   85.6020   64.1060 C.3   1400  NDP1400     0.1813
     29  C4D       12.8350   85.4140   62.6580 C.3   1400  NDP1400     0.1799
     30  O4D       11.7180   85.0030   61.8100 O.3   1400  NDP1400    -0.3327
     31  C3D       13.3270   86.7070   62.0500 C.3   1400  NDP1400     0.2158
     32  O3D       14.4590   86.4650   61.2070 O.3   1400  NDP1400    -0.2175
     33  C2D       12.1340   87.2630   61.2820 C.3   1400  NDP1400     0.2309
     34  O2D       12.4640   88.1830   60.2460 O.3   1400  NDP1400    -0.2158
     35  C1D       11.5320   85.9770   60.7660 C.3   1400  NDP1400     0.2263
     36  N1N       10.0740   86.0790   60.4550 N.pl3 1400  NDP1400    -0.2787
     37  C2N        9.1110   86.4880   61.4080 C.3   1400  NDP1400     0.1244
     38  C3N        7.7570   86.5330   61.0480 C.2   1400  NDP1400     0.0544
     39  C7N        6.6340   86.9650   62.0230 C.2   1400  NDP1400     0.2818
     40  O7N        5.5240   87.2150   61.5760 O.2   1400  NDP1400    -0.2670
     41  N7N        6.9220   87.0500   63.3370 N.am  1400  NDP1400    -0.0839
     42  C4N        7.3760   86.1640   59.7320 C.2   1400  NDP1400     0.0033
     43  C5N        8.3260   85.7550   58.7810 C.2   1400  NDP1400     0.0157
     44  C6N        9.6770   85.7100   59.1380 C.2   1400  NDP1400     0.0633
     45  P2B       17.6720   89.4610   71.0800 P.3   1400  NDP1400     0.5328
     46  O1X       16.5530   89.5290   72.0240 O.3   1400  NDP1400    -0.1145
     47  O2X       17.9950   90.7690   70.4890 O.2   1400  NDP1400    -0.2224
     48  O3X       18.8060   88.9560   71.8660 O.3   1400  NDP1400    -0.1145
@<TRIPOS>BOND
     1    43    44    2
     2    43    42    1
     3    44    36    1
     4    42    38    2
     5    34    33    1
     6    36    35    1
     7    36    37    1
     8    35    33    1
     9    35    30    1
    10    38    37    1
    11    38    39    1
    12    32    31    1
    13    33    31    1
    14    40    39    2
    15    30    29    1
    16    39    41   am
    17    31    29    1
    18    29    28    1
    19    28    27    1
    20    27    24    1
    21    26    24    2
    22    24    23    1
    23    24    25    1
    24    23     1    1
    25    18    17    1
    26    15    16    2
    27    15    14    1
    28    17    16    1
    29    17    19    2
    30     7     6    1
    31     7    12    1
    32    16    22    1
    33    14    13    1
    34    19    20    1
    35     5     6    1
    36     5     4    1
    37     3     1    2
    38    13    22    1
    39    13    12    1
    40    22    21    2
    41    20    21    1
    42     1     4    1
    43     1     2    1
    44     6     8    1
    45    12    10    1
    46    10     8    1
    47    10    11    1
    48     8     9    1
    49    11    45    1
    50    47    45    2
    51    45    48    1
    52    45    46    1
