@<TRIPOS>MOLECULE
1g0r_G1P_A_1.pdb
 16 16 0 0 0
SMALL
GASTEIGER

@<TRIPOS>ATOM
      1  C1        68.9460   66.8260   70.1970 C.3   2500  G1P2500     0.2781
      2  C2        69.3010   68.1920   70.7300 C.3   2500  G1P2500     0.2410
      3  C3        70.8050   68.4500   70.6410 C.3   2500  G1P2500     0.2198
      4  C4        71.4750   67.3060   71.3590 C.3   2500  G1P2500     0.2144
      5  C5        71.1650   65.9360   70.7260 C.3   2500  G1P2500     0.1835
      6  C6        71.6610   64.7250   71.4950 C.3   2500  G1P2500     0.2142
      7  O1        69.0850   66.9430   68.7640 O.3   2500  G1P2500    -0.2416
      8  O2        68.5920   69.2080   69.9910 O.3   2500  G1P2500    -0.2149
      9  O3        71.1010   69.7150   71.3230 O.3   2500  G1P2500    -0.2174
     10  O4        72.8370   67.7270   71.2550 O.3   2500  G1P2500    -0.2176
     11  O5        69.8260   65.6890   70.4460 O.3   2500  G1P2500    -0.3253
     12  O6        71.2730   63.5020   70.7820 O.3   2500  G1P2500    -0.2176
     13  P         68.2320   65.9220   67.7980 P.3   2500  G1P2500     0.5346
     14  O1P       68.6810   64.4260   67.9950 O.3   2500  G1P2500    -0.1145
     15  O2P       66.5380   66.1050   67.9400 O.3   2500  G1P2500    -0.1145
     16  O3P       68.5570   66.3570   66.2190 O.2   2500  G1P2500    -0.2223
@<TRIPOS>BOND
     1    16    13    2
     2    13    15    1
     3    13    14    1
     4    13     7    1
     5     7     1    1
     6     8     2    1
     7     1    11    1
     8     1     2    1
     9    11     5    1
    10     3     2    1
    11     3     9    1
    12     3     4    1
    13     5     4    1
    14     5     6    1
    15    12     6    1
    16    10     4    1
