@<TRIPOS>MOLECULE
1g0r_THM_A_1.pdb
 17 18 0 0 0
SMALL
GASTEIGER

@<TRIPOS>ATOM
      1  O5'       65.4730   63.8190   68.6490 O.3   2530  THM2530    -0.2176
      2  C5'       66.0110   63.4900   69.8980 C.3   2530  THM2530     0.2141
      3  C4'       65.0770   62.4940   70.6850 C.3   2530  THM2530     0.1802
      4  O4'       63.8890   62.9610   71.3120 O.3   2530  THM2530    -0.3338
      5  C3'       64.5990   61.1020   70.2430 C.3   2530  THM2530     0.1858
      6  O3'       64.5260   60.0240   71.3000 O.3   2530  THM2530    -0.2203
      7  C2'       63.3140   61.6550   69.5710 C.3   2530  THM2530     0.0874
      8  C1'       62.7310   62.4510   70.7070 C.3   2530  THM2530     0.2090
      9  N1        61.9650   63.6420   70.3850 N.am  2530  THM2530    -0.1794
     10  C2        60.7330   63.7850   70.8560 C.1   2530  THM2530     0.2844
     11  O2        60.2810   62.8390   71.5570 O.2   2530  THM2530    -0.1918
     12  N3        60.0020   64.8700   70.6640 N.2   2530  THM2530    -0.2455
     13  C4        60.4950   65.8330   69.9340 C.1   2530  THM2530     0.2134
     14  O4        59.7950   66.9260   69.7490 O.2   2530  THM2530    -0.2088
     15  C5        61.7570   65.6900   69.3740 C.2   2530  THM2530     0.0891
     16  C5M       62.3510   66.7930   68.5290 C.3   2530  THM2530     0.0462
     17  C6        62.5130   64.5610   69.6430 C.2   2530  THM2530     0.0877
@<TRIPOS>BOND
     1    16    15    1
     2     1     2    1
     3    15    17    2
     4    15    13    1
     5     7     5    1
     6     7     8    1
     7    17     9    1
     8    14    13    2
     9     2     3    1
    10    13    12    2
    11     5     3    1
    12     5     6    1
    13     9     8    1
    14     9    10   am
    15    12    10    2
    16     3     4    1
    17     8     4    1
    18    10    11    2
