@<TRIPOS>MOLECULE
1g12_MAN_A_1.pdb
 11 11 0 0 0
SMALL
GASTEIGER

@<TRIPOS>ATOM
      1  C1        29.9360    0.5540   31.0140 C.3   900  MAN900      0.1777
      2  C2        31.1790    0.7770   30.2440 C.3   900  MAN900      0.2141
      3  C3        32.2400   -0.3750   30.4930 C.3   900  MAN900      0.2173
      4  C4        32.3680   -0.7870   31.9980 C.3   900  MAN900      0.2142
      5  C5        31.0990   -0.6190   32.8090 C.3   900  MAN900      0.1810
      6  C6        31.2770   -0.4300   34.3080 C.3   900  MAN900      0.2141
      7  O2        31.7360    2.0520   30.6210 O.3   900  MAN900     -0.2176
      8  O3        33.5390    0.0090   30.0190 O.3   900  MAN900     -0.2175
      9  O4        32.7480   -2.1610   32.1080 O.3   900  MAN900     -0.2176
     10  O5        30.2570    0.5350   32.4320 O.3   900  MAN900     -0.3481
     11  O6        30.7930   -1.5030   35.1200 O.3   900  MAN900     -0.2176
@<TRIPOS>BOND
     1     8     3    1
     2     2     3    1
     3     2     7    1
     4     2     1    1
     5     3     4    1
     6     1    10    1
     7     4     9    1
     8     4     5    1
     9    10     5    1
    10     5     6    1
    11     6    11    1
