@<TRIPOS>MOLECULE
1g16_GDP_A_1.pdb
 28 30 0 0 0
SMALL
GASTEIGER

@<TRIPOS>ATOM
      1  PB        26.9040  -11.6250  -27.0670 P.3   201  GDP201      0.5373
      2  O1B       27.5130  -10.2630  -27.0350 O.3   201  GDP201     -0.1143
      3  O2B       27.4800  -12.6030  -27.9750 O.2   201  GDP201     -0.2221
      4  O3B       26.8290  -12.2290  -25.5730 O.3   201  GDP201     -0.1143
      5  O3A       25.3890  -11.4460  -27.4020 O.3   201  GDP201     -0.2261
      6  PA        24.3660  -12.1940  -28.5030 P.3   201  GDP201      0.2231
      7  O1A       24.7540  -11.9160  -29.9200 O.2   201  GDP201     -0.5169
      8  O2A       24.4280  -13.6230  -28.0590 O.3   201  GDP201     -0.4370
      9  O5'       23.0410  -11.4300  -28.1770 O.3   201  GDP201     -0.3111
     10  C5'       22.4270  -11.4260  -26.8370 C.3   201  GDP201      0.1813
     11  C4'       20.9820  -11.1660  -26.8070 C.3   201  GDP201      0.1799
     12  O4'       20.7260   -9.8400  -27.4520 O.3   201  GDP201     -0.3326
     13  C3'       20.1290  -12.1360  -27.7090 C.3   201  GDP201      0.2158
     14  O3'       18.8490  -12.3410  -26.9970 O.3   201  GDP201     -0.2175
     15  C2'       19.8700  -11.4130  -29.0560 C.3   201  GDP201      0.2310
     16  O2'       18.7170  -11.7550  -29.8320 O.3   201  GDP201     -0.2158
     17  C1'       19.8300   -9.9130  -28.6390 C.3   201  GDP201      0.2293
     18  N9        20.3330   -8.9580  -29.6670 N.pl3 201  GDP201     -0.2354
     19  C8        21.6780   -9.1760  -30.2860 C.3   201  GDP201      0.2246
     20  N7        21.5840   -8.0400  -31.1080 N.2   201  GDP201     -0.2322
     21  C5        20.5020   -7.2580  -31.0740 C.2   201  GDP201      0.2182
     22  C6        19.8630   -6.1070  -31.5870 C.1   201  GDP201      0.2372
     23  O6        20.5330   -5.4180  -32.5170 O.2   201  GDP201     -0.2069
     24  N1        18.6410   -5.6670  -31.2030 N.2   201  GDP201     -0.2485
     25  C2        17.9090   -6.4470  -30.1680 C.1   201  GDP201      0.2531
     26  N2        16.7490   -5.8580  -29.9390 N.pl3 201  GDP201     -0.0226
     27  N3        18.4260   -7.4830  -29.6770 N.2   201  GDP201     -0.3074
     28  C4        19.6430   -7.8860  -30.0850 C.2   201  GDP201      0.2300
@<TRIPOS>BOND
     1    23    22    2
     2    22    24    2
     3    22    21    1
     4    24    25    2
     5    20    21    2
     6    20    19    1
     7    21    28    1
     8    19    18    1
     9    25    26    1
    10    25    27    2
    11    28    27    2
    12    28    18    1
    13     7     6    2
    14    16    15    1
    15    18    17    1
    16    15    17    1
    17    15    13    1
    18    17    12    1
    19     6     9    1
    20     6     8    1
    21     6     5    1
    22     9    10    1
    23     3     1    2
    24    13    14    1
    25    13    11    1
    26    12    11    1
    27     5     1    1
    28     1     2    1
    29     1     4    1
    30    10    11    1
