@<TRIPOS>MOLECULE
1g17_GNP_A_1.pdb
 32 34 0 0 0
SMALL
GASTEIGER

@<TRIPOS>ATOM
      1  PG        15.7610   24.9520  -14.6350 P.3   201  GNP201      0.4884
      2  O1G       15.4680   25.4150  -15.9850 O.2   201  GNP201     -0.2331
      3  O2G       15.6240   26.0350  -13.6840 O.3   201  GNP201     -0.1240
      4  O3G       17.3110   24.5990  -14.5820 O.3   201  GNP201     -0.1240
      5  N3B       14.8630   23.6720  -14.2340 N.3   201  GNP201     -0.0163
      6  PB        14.9030   22.8910  -12.7930 P.3   201  GNP201      0.4669
      7  O1B       15.9870   21.8750  -12.6980 O.2   201  GNP201     -0.2351
      8  O2B       14.9280   23.8160  -11.6310 O.3   201  GNP201     -0.1253
      9  O3A       13.5080   22.1150  -12.7560 O.3   201  GNP201     -0.2360
     10  PA        12.1510   22.5370  -11.9080 P.3   201  GNP201      0.2220
     11  O1A       12.3320   22.3780  -10.4330 O.3   201  GNP201     -0.4370
     12  O2A       11.6780   23.8540  -12.4420 O.2   201  GNP201     -0.5170
     13  O5'       11.2390   21.3830  -12.4210 O.3   201  GNP201     -0.3111
     14  C5'       10.8070   21.3670  -13.7830 C.3   201  GNP201      0.1813
     15  C4'        9.6200   20.4430  -13.9550 C.3   201  GNP201      0.1799
     16  O4'        9.8620   19.1630  -13.3150 O.3   201  GNP201     -0.3326
     17  C3'        8.3140   21.0240  -13.3290 C.3   201  GNP201      0.2158
     18  O3'        7.1640   20.7660  -14.1930 O.3   201  GNP201     -0.2175
     19  C2'        8.2490   20.2520  -12.0040 C.3   201  GNP201      0.2310
     20  O2'        6.9200   20.1240  -11.4630 O.3   201  GNP201     -0.2158
     21  C1'        8.8170   18.8870  -12.3750 C.3   201  GNP201      0.2293
     22  N9         9.3990   18.1300  -11.2290 N.pl3 201  GNP201     -0.2354
     23  C8        10.4180   18.5000  -10.3870 C.3   201  GNP201      0.2246
     24  N7        10.7090   17.6340   -9.4900 N.2   201  GNP201     -0.2322
     25  C5         9.8410   16.5940   -9.7170 C.2   201  GNP201      0.2182
     26  C6         9.6910   15.3480   -9.0320 C.1   201  GNP201      0.2372
     27  O6        10.3240   14.9450   -8.0750 O.2   201  GNP201     -0.2069
     28  N1         8.6720   14.5480   -9.5840 N.2   201  GNP201     -0.2485
     29  C2         7.8800   14.8970  -10.6720 C.1   201  GNP201      0.2531
     30  N2         6.9570   14.0070  -11.0640 N.pl3 201  GNP201     -0.0226
     31  N3         8.0310   16.0860  -11.3130 N.2   201  GNP201     -0.3074
     32  C4         9.0210   16.8750  -10.7850 C.2   201  GNP201      0.2300
@<TRIPOS>BOND
     1     2     1    2
     2     1     4    1
     3     1     5    1
     4     1     3    1
     5     5     6    1
     6    18    17    1
     7    15    14    1
     8    15    17    1
     9    15    16    1
    10    14    13    1
    11    17    19    1
    12    16    21    1
    13     6     9    1
    14     6     7    2
    15     6     8    1
    16     9    10    1
    17    12    10    2
    18    13    10    1
    19    21    19    1
    20    21    22    1
    21    19    20    1
    22    10    11    1
    23    31    32    2
    24    31    29    2
    25    22    32    1
    26    22    23    1
    27    30    29    1
    28    32    25    1
    29    29    28    2
    30    23    24    1
    31    25    24    2
    32    25    26    1
    33    28    26    2
    34    26    27    2
