@<TRIPOS>MOLECULE
1g18_ADP_A_1.pdb
 27 29 0 0 0
SMALL
GASTEIGER

@<TRIPOS>ATOM
      1  PB        26.5680    7.4520    7.5710 P.3   502  ADP502      0.5373
      2  O1B       26.8820    7.9160    6.2090 O.2   502  ADP502     -0.2221
      3  O2B       27.5760    6.5120    8.2580 O.3   502  ADP502     -0.1143
      4  O3B       25.2140    6.8150    7.6420 O.3   502  ADP502     -0.1143
      5  PA        27.3030    9.3840    9.5480 P.3   502  ADP502      0.2231
      6  O1A       28.4270    9.8200    8.6620 O.2   502  ADP502     -0.5169
      7  O2A       26.4070   10.4020   10.1510 O.3   502  ADP502     -0.4370
      8  O3A       26.3650    8.6380    8.5030 O.3   502  ADP502     -0.2261
      9  O5'       27.6140    8.1170   10.4040 O.3   502  ADP502     -0.3111
     10  C5'       26.6820    7.6210   11.3800 C.3   502  ADP502      0.1813
     11  C4'       27.4140    7.3270   12.6410 C.3   502  ADP502      0.1821
     12  O4'       28.5530    8.2920   12.6320 O.3   502  ADP502     -0.3135
     13  C3'       26.6930    7.6470   13.9370 C.3   502  ADP502      0.2184
     14  O3'       26.0550    6.4460   14.4490 O.3   502  ADP502     -0.2174
     15  C2'       27.8730    8.0130   14.9040 C.3   502  ADP502      0.2570
     16  O2'       28.5880    6.8110   15.3330 O.3   502  ADP502     -0.2130
     17  C1'       28.8180    8.7490   13.9330 C.3   502  ADP502      0.3186
     18  N9        28.6070   10.2560   13.9390 N.pl3 502  ADP502     -0.1439
     19  C8        28.1820   11.0010   12.9300 C.3   502  ADP502      0.3377
     20  N7        28.0900   12.2380   13.2470 N.2   502  ADP502     -0.2095
     21  C5        28.4900   12.3020   14.5810 C.2   502  ADP502      0.2526
     22  C6        28.6200   13.3600   15.5360 C.2   502  ADP502      0.4393
     23  N6        28.3300   14.6730   15.2550 N.pl3 502  ADP502      0.2180
     24  N1        29.0480   13.0350   16.7660 N.2   502  ADP502      0.0021
     25  C2        29.3250   11.7810   17.0380 C.3   502  ADP502      0.5254
     26  N3        29.2350   10.7360   16.2240 N.2   502  ADP502     -0.0055
     27  C4        28.8090   11.0660   15.0020 C.2   502  ADP502      0.3518
@<TRIPOS>BOND
     1     2     1    2
     2     1     4    1
     3     1     3    1
     4     1     8    1
     5     8     5    1
     6     6     5    2
     7     5     7    1
     8     5     9    1
     9     9    10    1
    10    10    11    1
    11    12    11    1
    12    12    17    1
    13    11    13    1
    14    19    20    1
    15    19    18    1
    16    20    21    2
    17    17    18    1
    18    17    15    1
    19    13    14    1
    20    13    15    1
    21    18    27    1
    22    21    27    1
    23    21    22    1
    24    15    16    1
    25    27    26    2
    26    23    22    1
    27    22    24    2
    28    26    25    1
    29    24    25    1
