@<TRIPOS>MOLECULE
1g1a_NAD_A_1.pdb
 44 48 0 0 0
SMALL
GASTEIGER

@<TRIPOS>ATOM
      1  PA        21.1830  -16.4920    7.9220 P.3   400  NAD400      0.2189
      2  O1A       21.9950  -17.6620    7.4510 O.3   400  NAD400     -0.4371
      3  O2A       21.5160  -15.3210    7.0780 O.2   400  NAD400     -0.5170
      4  O5B       19.6470  -16.8940    7.8120 O.3   400  NAD400     -0.3112
      5  C5B       18.5710  -15.9870    8.1260 C.3   400  NAD400      0.1813
      6  C4B       17.2940  -16.7850    7.9300 C.3   400  NAD400      0.1821
      7  O4B       16.1000  -15.9790    8.2740 O.3   400  NAD400     -0.3135
      8  C3B       17.0870  -17.2730    6.4940 C.3   400  NAD400      0.2184
      9  O3B       16.7170  -18.6840    6.4860 O.3   400  NAD400     -0.2174
     10  C2B       16.0310  -16.2680    5.9790 C.3   400  NAD400      0.2570
     11  O2B       15.1860  -16.8170    4.9450 O.3   400  NAD400     -0.2130
     12  C1B       15.2050  -15.9500    7.2180 C.3   400  NAD400      0.3186
     13  N9A       14.6170  -14.6260    7.2040 N.pl3 400  NAD400     -0.1439
     14  C8A       15.1460  -13.4070    6.8400 C.3   400  NAD400      0.3377
     15  N7A       14.2690  -12.3800    6.9650 N.2   400  NAD400     -0.2095
     16  C5A       13.1210  -12.9940    7.4370 C.2   400  NAD400      0.2526
     17  C6A       11.8540  -12.4770    7.7640 C.2   400  NAD400      0.4393
     18  N6A       11.5580  -11.1740    7.6390 N.pl3 400  NAD400      0.2180
     19  N1A       10.9030  -13.3670    8.2250 N.2   400  NAD400      0.0021
     20  C2A       11.2280  -14.7070    8.3350 C.3   400  NAD400      0.5254
     21  N3A       12.3730  -15.2850    8.0470 N.2   400  NAD400     -0.0055
     22  C4A       13.3050  -14.3650    7.5950 C.2   400  NAD400      0.3518
     23  O3        21.4830  -16.1750    9.4090 O.3   400  NAD400     -0.2703
     24  PN        22.5250  -16.8070   10.4670 P.3   400  NAD400      0.2189
     25  O1N       22.3200  -18.2930   10.5790 O.3   400  NAD400     -0.4371
     26  O2N       23.9040  -16.5130   10.0380 O.2   400  NAD400     -0.5170
     27  O5D       22.2240  -16.1450   11.8690 O.3   400  NAD400     -0.3112
     28  C5D       20.9800  -16.4100   12.5540 C.3   400  NAD400      0.1813
     29  C4D       20.9390  -15.5350   13.7920 C.3   400  NAD400      0.1799
     30  O4D       22.2260  -15.6120   14.4740 O.3   400  NAD400     -0.3327
     31  C3D       20.7260  -14.0480   13.5110 C.3   400  NAD400      0.2158
     32  O3D       19.7240  -13.4080   14.2960 O.3   400  NAD400     -0.2175
     33  C2D       22.1360  -13.4780   13.6520 C.3   400  NAD400      0.2309
     34  O2D       22.0820  -12.1120   14.0700 O.3   400  NAD400     -0.2158
     35  C1D       22.7180  -14.3370   14.6800 C.3   400  NAD400      0.2263
     36  N1N       24.1990  -14.3650   14.7060 N.pl3 400  NAD400     -0.2787
     37  C2N       24.7200  -14.9480   13.5200 C.3   400  NAD400      0.1244
     38  C3N       26.1730  -15.1060   13.5110 C.2   400  NAD400      0.0544
     39  C7N       27.0450  -15.7120   12.3950 C.2   400  NAD400      0.2818
     40  O7N       28.2790  -15.7130   12.6620 O.2   400  NAD400     -0.2670
     41  N7N       26.5170  -16.1780   11.2550 N.am  400  NAD400     -0.0839
     42  C4N       27.0790  -14.6730   14.6390 C.2   400  NAD400      0.0033
     43  C5N       26.2640  -14.0300   15.8010 C.2   400  NAD400      0.0157
     44  C6N       24.9310  -13.8760   15.8580 C.2   400  NAD400      0.0633
@<TRIPOS>BOND
     1    11    10    1
     2    10     8    1
     3    10    12    1
     4     9     8    1
     5     8     6    1
     6    14    15    1
     7    14    13    1
     8    15    16    2
     9     3     1    2
    10    13    12    1
    11    13    22    1
    12    12     7    1
    13    16    22    1
    14    16    17    1
    15     2     1    1
    16    22    21    2
    17    18    17    1
    18    17    19    2
    19     4     1    1
    20     4     5    1
    21     1    23    1
    22     6     5    1
    23     6     7    1
    24    21    20    1
    25    19    20    1
    26    23    24    1
    27    26    24    2
    28    24    25    1
    29    24    27    1
    30    41    39   am
    31    27    28    1
    32    39    40    2
    33    39    38    1
    34    28    29    1
    35    31    33    1
    36    31    29    1
    37    31    32    1
    38    38    37    1
    39    38    42    2
    40    37    36    1
    41    33    34    1
    42    33    35    1
    43    29    30    1
    44    30    35    1
    45    42    43    1
    46    35    36    1
    47    36    44    1
    48    43    44    2
