@<TRIPOS>MOLECULE
1g1d_FSB_A_1.pdb
 21 22 0 0 0
SMALL
GASTEIGER

@<TRIPOS>ATOM
      1  C01       -3.7770    3.4750   14.6520 C.ar  555  FSB555      0.0059
      2  C02       -4.1640    2.3370   15.3930 C.ar  555  FSB555      0.0202
      3  C03       -5.5100    2.3030   15.9000 C.ar  555  FSB555      0.1251
      4  C04       -6.3580    3.3960   15.6260 C.ar  555  FSB555      0.0202
      5  C05       -5.9290    4.4990   14.8870 C.ar  555  FSB555      0.0059
      6  C06       -4.6510    4.5480   14.4000 C.ar  555  FSB555      0.0551
      7  C07       -4.1740    5.7490   13.6070 C.2   555  FSB555      0.2651
      8  O08       -4.9430    6.6650   13.4080 O.2   555  FSB555     -0.2684
      9  N09       -2.8750    5.8030   13.1240 N.am  555  FSB555     -0.1967
     10  C10       -2.2400    6.8750   12.3690 C.3   555  FSB555      0.1440
     11  S11       -6.0010    0.8300   16.8530 S.O2  555  FSB555      0.0935
     12  NP2       -5.5180   -0.5040   16.1790 N.3   555  FSB555      0.0392
     13  O13       -7.4810    1.0890   16.8920 O.2   555  FSB555     -0.1503
     14  O14       -5.4670    1.1300   18.1860 O.2   555  FSB555     -0.1503
     15  C15       -1.6360    7.9150   13.1600 C.ar  555  FSB555      0.0269
     16  C16       -1.9500    7.9620   14.5610 C.ar  555  FSB555     -0.0003
     17  C17       -1.4150    8.9460   15.4290 C.ar  555  FSB555     -0.0001
     18  C18       -0.5420    9.9090   14.8880 C.ar  555  FSB555      0.0023
     19  C19       -0.1920    9.9030   13.4860 C.ar  555  FSB555      0.0294
     20  C20       -0.7490    8.8880   12.6030 C.ar  555  FSB555      0.1378
     21  F21       -0.4360    8.8680   11.3000 F     555  FSB555     -0.2044
@<TRIPOS>BOND
     1    21    20    1
     2    10     9    1
     3    10    15    1
     4    20    15   ar
     5    20    19   ar
     6     9     7   am
     7    15    16   ar
     8     8     7    2
     9    19    18   ar
    10     7     6    1
    11     6     1   ar
    12     6     5   ar
    13    16    17   ar
    14     1     2   ar
    15     5     4   ar
    16    18    17   ar
    17     2     3   ar
    18     4     3   ar
    19     3    11    1
    20    12    11    1
    21    11    13    2
    22    11    14    2
