@<TRIPOS>MOLECULE
1g1g_III_B_1.pdb
 45 46 0 0 0
SMALL
GASTEIGER

@<TRIPOS>ATOM
      1  CA         6.6330    4.9580  -15.9250 C.3   1160  THR1160     0.0964
      2  C          5.4540    4.9510  -14.9540 C.2   1160  THR1160     0.2423
      3  O          4.4660    5.6600  -15.1650 O.2   1160  THR1160    -0.2733
      4  N          5.5860    4.1690  -13.8800 N.am  1161  ASP1161    -0.1972
      5  CA         4.5480    4.0210  -12.8540 C.3   1161  ASP1161     0.1839
      6  C          4.7160    5.0000  -11.6750 C.2   1161  ASP1161     0.2622
      7  O          5.7480    5.6710  -11.5570 O.2   1161  ASP1161    -0.2715
      8  CB         4.5390    2.5680  -12.3510 C.3   1161  ASP1161     0.1450
      9  CG         3.1550    2.0960  -11.9230 C.2   1161  ASP1161     0.3671
     10  OD1        2.9970    1.7230  -10.7380 O.co2 1161  ASP1161    -0.2456
     11  OD2        2.2330    2.0900  -12.7710 O.co2 1161  ASP1161    -0.2456
     12  N          3.6730    5.0950  -10.8420 N.am  1162  TYR1162    -0.1960
     13  CA         3.6400    5.9650   -9.6590 C.3   1162  TYR1162     0.1771
     14  C          3.3780    5.1510   -8.3890 C.2   1162  TYR1162     0.2620
     15  O          2.5990    4.1930   -8.4150 O.2   1162  TYR1162    -0.2715
     16  CB         2.5520    7.0460   -9.8060 C.3   1162  TYR1162     0.0574
     17  CG         2.8000    8.0550  -10.9150 C.ar  1162  TYR1162    -0.0198
     18  CD1        2.2950    7.8380  -12.2190 C.ar  1162  TYR1162    -0.0009
     19  CD2        3.5710    9.2150  -10.6810 C.ar  1162  TYR1162    -0.0009
     20  CE1        2.5620    8.7550  -13.2780 C.ar  1162  TYR1162     0.0417
     21  CE2        3.8450   10.1430  -11.7300 C.ar  1162  TYR1162     0.0417
     22  CZ         3.3380    9.9000  -13.0240 C.ar  1162  TYR1162     0.1957
     23  OH         3.6180   10.7740  -14.0510 O.3   1162  TYR1162    -0.2866
     24  N          4.0390    5.5290   -7.2900 N.am  1163  TYR1163    -0.1960
     25  CA         3.8990    4.8570   -5.9850 C.3   1163  TYR1163     0.1771
     26  C          2.6520    5.3390   -5.2420 C.2   1163  TYR1163     0.2619
     27  O          1.8800    4.5220   -4.7350 O.2   1163  TYR1163    -0.2715
     28  CB         5.1680    5.1110   -5.1420 C.3   1163  TYR1163     0.0574
     29  CG         5.3370    4.2460   -3.8670 C.ar  1163  TYR1163    -0.0198
     30  CD1        5.2530    2.8160   -3.8900 C.ar  1163  TYR1163    -0.0011
     31  CD2        5.5960    4.8900   -2.6270 C.ar  1163  TYR1163    -0.0011
     32  CE1        5.4380    2.0830   -2.6770 C.ar  1163  TYR1163     0.0371
     33  CE2        5.7800    4.1740   -1.4140 C.ar  1163  TYR1163     0.0371
     34  CZ         5.7000    2.7780   -1.4600 C.ar  1163  TYR1163     0.1490
     35  OH         5.9100    2.0910   -0.1910 O.3   1163  TYR1163    -0.3998
     36  P          7.3800    1.5040    0.3520 P.3   1163  TYR1163     0.5887
     37  O1P        7.2060    0.9910    1.7240 O.3   1163  TYR1163    -0.1039
     38  O2P        8.3980    2.5680    0.3680 O.3   1163  TYR1163    -0.1039
     39  O3P        7.8360    0.3750   -0.4960 O.2   1163  TYR1163    -0.2114
     40  N          2.4690    6.6600   -5.1930 N.am  1164  ARG1164    -0.1977
     41  CA         1.3250    7.2770   -4.5180 C.3   1164  ARG1164     0.1596
     42  C          0.3750    7.9060   -5.5430 C.2   1164  ARG1164     0.2287
     43  O         -0.1160    7.1490   -6.4110 O.2   1164  ARG1164    -0.2864
     44  CB         1.8130    8.3380   -3.5230 C.3   1164  ARG1164     0.0297
     45  CG         0.8270    8.6640   -2.4070 C.3   1164  ARG1164     0.0023
@<TRIPOS>BOND
     1     1     2    1
     2     3     2    2
     3     2     4   am
     4    23    22    1
     5     4     5    1
     6    20    22   ar
     7    20    18   ar
     8    22    21   ar
     9     5     8    1
    10     5     6    1
    11    11     9   ar
    12     8     9    1
    13    18    17   ar
    14     9    10   ar
    15    21    19   ar
    16     6     7    2
    17     6    12   am
    18    17    19   ar
    19    17    16    1
    20    12    13    1
    21    16    13    1
    22    13    14    1
    23    15    14    2
    24    14    24   am
    25    24    25    1
    26    43    42    2
    27    25    26    1
    28    25    28    1
    29    42    41    1
    30    26    40   am
    31    26    27    2
    32    40    41    1
    33    28    29    1
    34    41    44    1
    35    30    29   ar
    36    30    32   ar
    37    29    31   ar
    38    44    45    1
    39    32    34   ar
    40    31    33   ar
    41    34    33   ar
    42    34    35    1
    43    39    36    2
    44    35    36    1
    45    36    38    1
    46    36    37    1
