@<TRIPOS>MOLECULE
1g1l_DAU_A_1.pdb
 36 38 0 0 0
SMALL
GASTEIGER

@<TRIPOS>ATOM
      1  O6        72.2960   63.6100   71.3000 O.3   3500  DAU3500    -0.2176
      2  C6        72.8440   64.8740   71.7200 C.3   3500  DAU3500     0.2142
      3  C5        72.2940   66.0290   70.9140 C.3   3500  DAU3500     0.1835
      4  O5        70.9040   65.9010   71.0450 O.3   3500  DAU3500    -0.3254
      5  C4        72.8620   67.3740   71.4720 C.3   3500  DAU3500     0.2144
      6  O4        74.2830   67.4130   71.3870 O.3   3500  DAU3500    -0.2176
      7  C3        72.1190   68.5810   70.8740 C.3   3500  DAU3500     0.2198
      8  O3        72.4990   69.7950   71.5730 O.3   3500  DAU3500    -0.2174
      9  C2        70.5890   68.3930   71.0150 C.3   3500  DAU3500     0.2409
     10  O2        69.8310   69.4630   70.4160 O.3   3500  DAU3500    -0.2149
     11  C1        70.1480   66.9950   70.5420 C.3   3500  DAU3500     0.2742
     12  O1        70.3630   66.9910   69.1500 O.3   3500  DAU3500    -0.2857
     13  P2        69.4180   66.1640   68.1330 P.3   3500  DAU3500     0.2208
     14  O3P       67.9070   66.6480   68.4340 O.3   3500  DAU3500    -0.4371
     15  O4P       69.9930   66.2990   66.7450 O.2   3500  DAU3500    -0.5170
     16  OPP       69.1370   64.7490   68.7070 O.3   3500  DAU3500    -0.2703
     17  P         67.8520   64.0070   68.0980 P.3   3500  DAU3500     0.2189
     18  O1P       67.0080   64.9080   67.0670 O.2   3500  DAU3500    -0.5170
     19  O2P       68.6880   62.7060   67.8260 O.3   3500  DAU3500    -0.4371
     20  O5'       66.8440   63.8540   69.3270 O.3   3500  DAU3500    -0.3112
     21  C5'       67.3910   63.4580   70.5520 C.3   3500  DAU3500     0.1812
     22  C4'       66.3780   62.5970   71.2940 C.3   3500  DAU3500     0.1773
     23  O4'       65.1850   63.3530   71.5160 O.3   3500  DAU3500    -0.3339
     24  C3'       65.9760   61.4140   70.4480 C.3   3500  DAU3500     0.1857
     25  O3'       65.8230   60.2870   71.3050 O.3   3500  DAU3500    -0.2203
     26  C2'       64.6770   61.9290   69.8670 C.3   3500  DAU3500     0.0874
     27  C1'       64.0180   62.7160   70.9940 C.3   3500  DAU3500     0.2090
     28  N11       63.1480   63.8680   70.6490 N.am  3500  DAU3500    -0.1794
     29  C61       63.7320   64.8500   69.9450 C.2   3500  DAU3500     0.0877
     30  C51       62.9800   65.9860   69.6700 C.2   3500  DAU3500     0.0891
     31  C5A       63.4970   67.1260   68.8600 C.3   3500  DAU3500     0.0462
     32  C21       61.9180   64.0150   71.1320 C.1   3500  DAU3500     0.2844
     33  O21       61.4310   63.0530   71.8680 O.2   3500  DAU3500    -0.1918
     34  N31       61.1750   65.1110   70.9160 N.2   3500  DAU3500    -0.2455
     35  C41       61.6910   66.0910   70.2010 C.1   3500  DAU3500     0.2134
     36  O41       61.0210   67.1840   70.0000 O.2   3500  DAU3500    -0.2088
@<TRIPOS>BOND
     1    15    13    2
     2    18    17    2
     3    19    17    1
     4    17    16    1
     5    17    20    1
     6    13    14    1
     7    13    16    1
     8    13    12    1
     9    31    30    1
    10    12    11    1
    11    20    21    1
    12    30    29    2
    13    30    35    1
    14    26    24    1
    15    26    27    1
    16    29    28    1
    17    36    35    2
    18    35    34    2
    19    10     9    1
    20    24    22    1
    21    24    25    1
    22    11     9    1
    23    11     4    1
    24    21    22    1
    25    28    27    1
    26    28    32   am
    27     7     9    1
    28     7     5    1
    29     7     8    1
    30     3     4    1
    31     3     5    1
    32     3     2    1
    33    34    32    2
    34    27    23    1
    35    32    33    2
    36    22    23    1
    37     1     2    1
    38     6     5    1
