@<TRIPOS>MOLECULE
1g20_CLF_B_1.pdb
 15 32 0 0 0
SMALL
GASTEIGER

@<TRIPOS>ATOM
      1 FE1        92.6100   26.1890   51.9750 Fe    1498  CLF1498     0.0000
      2 FE2        91.1750   28.1440   52.9480 Fe    1498  CLF1498     0.0000
      3 FE3        90.2000   25.5640   53.2270 Fe    1498  CLF1498     0.0000
      4 FE4        90.2260   26.7290   50.7910 Fe    1498  CLF1498     0.0000
      5  S1        92.0540   28.0980   50.8060 S.3   1498  CLF1498     0.0000
      6  S2A       92.0660   26.4390   54.1490 S.3   1498  CLF1498     0.0000
      7  S4A       91.0420   24.6220   51.2720 S.3   1498  CLF1498     0.0000
      8  S3A       89.0090   27.4260   52.5950 S.3   1498  CLF1498     0.0000
      9 FE5        91.2870   26.7380   47.5060 Fe    1498  CLF1498     0.0000
     10 FE6        93.5070   29.5840   47.7970 Fe    1498  CLF1498     0.0000
     11 FE7        93.9860   26.9540   46.8100 Fe    1498  CLF1498     0.0000
     12 FE8        93.7740   27.1470   49.5050 Fe    1498  CLF1498     0.0000
     13  S2B       92.2520   28.3880   46.2660 S.3   1498  CLF1498     0.0000
     14  S3B       95.3140   28.2000   48.1970 S.3   1498  CLF1498     0.0000
     15  S4B       93.0410   25.3840   48.2350 S.3   1498  CLF1498     0.0000
@<TRIPOS>BOND
     1    13    11    1
     2    13     9    1
     3    13    10    1
     4    11     9    1
     5    11    10    1
     6    11    14    1
     7    11    15    1
     8    11    12    1
     9     9    15    1
    10    10    14    1
    11    10    12    1
    12    14    12    1
    13    15    12    1
    14    12     5    1
    15     4     5    1
    16     4     7    1
    17     4     1    1
    18     4     8    1
    19     4     2    1
    20     4     3    1
    21     5     1    1
    22     5     2    1
    23     7     1    1
    24     7     3    1
    25     1     2    1
    26     1     3    1
    27     1     6    1
    28     8     2    1
    29     8     3    1
    30     2     3    1
    31     2     6    1
    32     3     6    1
