@<TRIPOS>MOLECULE
1g20_CFM_A_1.pdb
 17 34 0 0 0
SMALL
GASTEIGER

@<TRIPOS>ATOM
      1 FE1        80.5360   12.7760   61.1490 Fe    1496  CFM1496     0.0000
      2 FE2        82.5370   13.9290   59.7790 Fe    1496  CFM1496     0.0000
      3 FE3        81.1750   11.9810   58.6960 Fe    1496  CFM1496     0.0000
      4 FE4        82.8640   11.5140   60.7300 Fe    1496  CFM1496     0.0000
      5 FE5        84.7600   11.2790   58.9290 Fe    1496  CFM1496     0.0000
      6 FE6        84.3190   13.6200   58.1420 Fe    1496  CFM1496     0.0000
      7 FE7        82.9340   11.6920   56.9640 Fe    1496  CFM1496     0.0000
      8 MO1        85.6930   12.0530   56.3300 Mo    1496  CFM1496     0.0000
      9  S1A       82.6380   13.3660   61.9870 S.3   1496  CFM1496     0.0000
     10  S4A       80.7260   10.6520   60.4450 S.3   1496  CFM1496     0.0000
     11  S3A       84.6560   10.1860   60.9430 S.3   1496  CFM1496     0.0000
     12  S2A       80.2640   14.0230   59.2600 S.3   1496  CFM1496     0.0000
     13  S1B       86.3940   12.7360   58.4830 S.3   1496  CFM1496     0.0000
     14  S2B       83.8740   15.6490   59.0660 S.3   1496  CFM1496     0.0000
     15  S3B       83.8900   13.4820   55.8540 S.3   1496  CFM1496     0.0000
     16  S4B       84.5640   10.1430   56.9820 S.3   1496  CFM1496     0.0000
     17  S5        80.7490   11.1820   56.5680 S.3   1496  CFM1496     0.0000
@<TRIPOS>BOND
     1    15     8    1
     2    15     7    1
     3    15     6    1
     4     8    16    1
     5     8    13    1
     6    17     7    1
     7    17     3    1
     8     7    16    1
     9     7     6    1
    10     7     3    1
    11     7     5    1
    12    16     5    1
    13     6    13    1
    14     6     5    1
    15     6    14    1
    16     6     2    1
    17    13     5    1
    18     3    12    1
    19     3     2    1
    20     3    10    1
    21     3     1    1
    22     5     4    1
    23     5    11    1
    24    14     2    1
    25    12     2    1
    26    12     1    1
    27     2     4    1
    28     2     9    1
    29    10     4    1
    30    10     1    1
    31     4    11    1
    32     4     1    1
    33     4     9    1
    34     1     9    1
