@<TRIPOS>MOLECULE
1g21_ATP_E_1.pdb
 31 33 0 0 0
SMALL
GASTEIGER

@<TRIPOS>ATOM
      1  PG        57.7060   92.7130   35.7190 P.3   5292  ATP5292     0.5373
      2  O1G       58.4680   91.5050   35.3890 O.3   5292  ATP5292    -0.1143
      3  O2G       57.1980   92.7300   37.0960 O.3   5292  ATP5292    -0.1143
      4  O3G       56.7760   93.1690   34.6240 O.2   5292  ATP5292    -0.2221
      5  PB        60.3600   93.8350   35.3260 P.3   5292  ATP5292     0.2277
      6  O1B       60.3510   94.1510   33.8620 O.2   5292  ATP5292    -0.5168
      7  O2B       61.0400   92.6270   35.7840 O.3   5292  ATP5292    -0.4368
      8  O3B       58.8100   93.8370   35.8240 O.3   5292  ATP5292    -0.2258
      9  PA        61.2970   96.5460   35.6330 P.3   5292  ATP5292     0.2189
     10  O1A       61.5060   96.6820   34.1720 O.2   5292  ATP5292    -0.5170
     11  O2A       60.3990   97.5190   36.3260 O.3   5292  ATP5292    -0.4371
     12  O3A       60.8430   95.0870   36.0470 O.3   5292  ATP5292    -0.2700
     13  O5'       62.7130   96.5920   36.2730 O.3   5292  ATP5292    -0.3112
     14  C5'       63.0530   95.9290   37.5030 C.3   5292  ATP5292     0.1813
     15  C4'       64.1680   96.6410   38.2280 C.3   5292  ATP5292     0.1821
     16  O4'       65.4130   96.2430   37.6000 O.3   5292  ATP5292    -0.3135
     17  C3'       64.1160   98.1570   38.1670 C.3   5292  ATP5292     0.2184
     18  O3'       64.4570   98.6200   39.4890 O.3   5292  ATP5292    -0.2174
     19  C2'       65.1400   98.4280   37.1140 C.3   5292  ATP5292     0.2570
     20  O2'       65.6840   99.7260   37.1930 O.3   5292  ATP5292    -0.2130
     21  C1'       66.2210   97.3960   37.3690 C.3   5292  ATP5292     0.3186
     22  N9        67.1150   97.1780   36.1930 N.pl3 5292  ATP5292    -0.1439
     23  C8        67.0830   96.1820   35.2620 C.3   5292  ATP5292     0.3377
     24  N7        67.9960   96.2650   34.3370 N.2   5292  ATP5292    -0.2095
     25  C5        68.6560   97.4170   34.6650 C.2   5292  ATP5292     0.2526
     26  C6        69.7670   98.0610   34.0720 C.2   5292  ATP5292     0.4393
     27  N6        70.3120   97.5710   32.9720 N.pl3 5292  ATP5292     0.2180
     28  N1        70.2210   99.2130   34.6430 N.2   5292  ATP5292     0.0021
     29  C2        69.6360   99.6850   35.7550 C.3   5292  ATP5292     0.5254
     30  N3        68.5930   99.1610   36.4210 N.2   5292  ATP5292    -0.0055
     31  C4        68.1420   97.9990   35.7980 C.2   5292  ATP5292     0.3518
@<TRIPOS>BOND
     1    27    26    1
     2     6     5    2
     3    26    28    2
     4    26    25    1
     5    10     9    2
     6    24    25    2
     7    24    23    1
     8     4     1    2
     9    28    29    1
    10    25    31    1
    11    23    22    1
    12     5     7    1
    13     5     8    1
    14     5    12    1
    15     2     1    1
    16     9    12    1
    17     9    13    1
    18     9    11    1
    19     1     8    1
    20     1     3    1
    21    29    30    1
    22    31    22    1
    23    31    30    2
    24    22    21    1
    25    13    14    1
    26    19    20    1
    27    19    21    1
    28    19    17    1
    29    21    16    1
    30    14    15    1
    31    16    15    1
    32    17    15    1
    33    17    18    1
