@<TRIPOS>MOLECULE
1g21_CLF_A_1.pdb
 15 32 0 0 0
SMALL
GASTEIGER

@<TRIPOS>ATOM
      1 FE1        26.2540   79.9030   32.5180 Fe    1498  CLF1498     0.0000
      2 FE2        28.1620   81.1040   31.3220 Fe    1498  CLF1498     0.0000
      3 FE3        25.6020   81.2990   30.4030 Fe    1498  CLF1498     0.0000
      4 FE4        26.8420   78.9390   30.2630 Fe    1498  CLF1498     0.0000
      5  S1        28.2820   78.9320   32.0620 S.3   1498  CLF1498     0.0000
      6  S2A       26.4420   82.1230   32.2750 S.3   1498  CLF1498     0.0000
      7  S4A       24.7300   79.2630   30.9890 S.3   1498  CLF1498     0.0000
      8  S3A       27.4600   80.8210   29.1530 S.3   1498  CLF1498     0.0000
      9 FE5        26.9000   75.5200   31.4490 Fe    1498  CLF1498     0.0000
     10 FE6        29.3030   75.4860   33.6610 Fe    1498  CLF1498     0.0000
     11 FE7        26.7740   74.4090   33.9110 Fe    1498  CLF1498     0.0000
     12 FE8        27.1200   77.0780   33.9780 Fe    1498  CLF1498     0.0000
     13  S2B       28.2950   73.9360   32.3250 S.3   1498  CLF1498     0.0000
     14  S3B       27.8900   75.5760   35.4730 S.3   1498  CLF1498     0.0000
     15  S4B       25.3510   76.0230   33.0140 S.3   1498  CLF1498     0.0000
@<TRIPOS>BOND
     1     8     4    1
     2     8     3    1
     3     8     2    1
     4     4     3    1
     5     4     7    1
     6     4     2    1
     7     4     5    1
     8     4     1    1
     9     3     7    1
    10     3     2    1
    11     3     6    1
    12     3     1    1
    13     7     1    1
    14     2     5    1
    15     2     6    1
    16     2     1    1
    17     9    13    1
    18     9    15    1
    19     9    11    1
    20     9    12    1
    21     5     1    1
    22     6     1    1
    23    13    10    1
    24    13    11    1
    25    15    11    1
    26    15    12    1
    27    10    11    1
    28    10    12    1
    29    10    14    1
    30    11    12    1
    31    11    14    1
    32    12    14    1
