@<TRIPOS>MOLECULE
1g21_CFM_A_1.pdb
 17 33 0 0 0
SMALL
GASTEIGER

@<TRIPOS>ATOM
      1 FE1        13.2830   90.4880   21.1200 Fe    1496  CFM1496     0.0000
      2 FE2        14.1640   88.6930   23.1010 Fe    1496  CFM1496     0.0000
      3 FE3        12.4290   87.8740   21.6710 Fe    1496  CFM1496     0.0000
      4 FE4        11.6880   89.8600   23.1720 Fe    1496  CFM1496     0.0000
      5 FE5        11.5170   87.7050   24.8500 Fe    1496  CFM1496     0.0000
      6 FE6        13.7270   86.8530   24.7720 Fe    1496  CFM1496     0.0000
      7 FE7        12.0480   85.6380   23.0970 Fe    1496  CFM1496     0.0000
      8 MO1        12.0780   85.0970   25.9980 Mo    1496  CFM1496     0.0000
      9  S1A       13.6920   90.9890   23.3320 S.3   1496  CFM1496     0.0000
     10  S4A       11.1370   89.7220   21.0020 S.3   1496  CFM1496     0.0000
     11  S3A       10.2970   89.6880   24.9570 S.3   1496  CFM1496     0.0000
     12  S2A       14.4900   88.4990   20.8750 S.3   1496  CFM1496     0.0000
     13  S1B       12.5430   87.1730   26.6940 S.3   1496  CFM1496     0.0000
     14  S2B       15.7760   87.8640   24.5540 S.3   1496  CFM1496     0.0000
     15  S3B       13.6680   84.5900   24.2820 S.3   1496  CFM1496     0.0000
     16  S4B       10.3070   85.7000   24.6090 S.3   1496  CFM1496     0.0000
     17  S5        11.7140   85.8410   20.7910 S.3   1496  CFM1496     0.0000
@<TRIPOS>BOND
     1    17     3    1
     2    17     7    1
     3    12     1    1
     4    12     3    1
     5    12     2    1
     6    10     1    1
     7    10     3    1
     8    10     4    1
     9     1     4    1
    10     1     9    1
    11     3     7    1
    12     3     2    1
    13     3     4    1
    14     7    15    1
    15     7    16    1
    16     7     6    1
    17     7     5    1
    18     2     9    1
    19     2    14    1
    20     2     6    1
    21     4     9    1
    22     4     5    1
    23     4    11    1
    24    15     6    1
    25    15     8    1
    26    14     6    1
    27    16     5    1
    28    16     8    1
    29     6     5    1
    30     6    13    1
    31     5    11    1
    32     5    13    1
    33     8    13    1
