@<TRIPOS>MOLECULE
1g23_G1P_A_1.pdb
 16 16 0 0 0
SMALL
GASTEIGER

@<TRIPOS>ATOM
      1  C1        70.6940   67.6500   69.7720 C.3   500  G1P500      0.2781
      2  C2        71.0590   69.0200   70.2950 C.3   500  G1P500      0.2410
      3  C3        72.5410   69.1950   70.0590 C.3   500  G1P500      0.2198
      4  C4        73.2280   68.0290   70.7550 C.3   500  G1P500      0.2144
      5  C5        72.9210   66.7070   70.1360 C.3   500  G1P500      0.1835
      6  C6        73.4800   65.5460   70.9840 C.3   500  G1P500      0.2142
      7  O1        71.0290   67.6130   68.3800 O.3   500  G1P500     -0.2416
      8  O2        70.3420   70.0750   69.6220 O.3   500  G1P500     -0.2149
      9  O3        72.8750   70.4850   70.6480 O.3   500  G1P500     -0.2174
     10  O4        74.6450   68.1600   70.5950 O.3   500  G1P500     -0.2176
     11  O5        71.5260   66.5270   69.9960 O.3   500  G1P500     -0.3253
     12  O6        73.0880   64.2390   70.4570 O.3   500  G1P500     -0.2176
     13  P         69.8950   66.8150   67.5310 P.3   500  G1P500      0.5346
     14  O1P       69.6890   65.2580   68.0110 O.3   500  G1P500     -0.1145
     15  O2P       68.3410   67.4580   67.7050 O.3   500  G1P500     -0.1145
     16  O3P       70.3560   67.0910   65.9210 O.2   500  G1P500     -0.2223
@<TRIPOS>BOND
     1    16    13    2
     2    13    15    1
     3    13    14    1
     4    13     7    1
     5     7     1    1
     6     8     2    1
     7     1    11    1
     8     1     2    1
     9    11     5    1
    10     3     2    1
    11     3     9    1
    12     3     4    1
    13     5     4    1
    14     5     6    1
    15    12     6    1
    16    10     4    1
