@<TRIPOS>MOLECULE
1g27_BB1_A_1.pdb
 23 22 0 0 0
SMALL
GASTEIGER

@<TRIPOS>ATOM
      1  C2        42.9860    4.0800   14.1010 C.3   1001  BB11001     0.1071
      2  C3        44.0920    5.1250   14.0770 C.3   1001  BB11001     0.0985
      3  C4        44.0940    5.8880   12.7890 C.2   1001  BB11001     0.2430
      4  O3        44.0530    5.2760   11.7210 O.2   1001  BB11001    -0.2733
      5  N2        44.2840    7.2150   12.8890 N.am  1001  BB11001    -0.1978
      6  C5        44.4560    8.0710   11.7520 C.3   1001  BB11001     0.1711
      7  C7        45.5030    4.5930   14.4520 C.3   1001  BB11001     0.0109
      8  C8        46.5220    5.7790   14.6060 C.3   1001  BB11001     0.0005
      9  C9        47.9740    5.2550   14.5220 C.3   1001  BB11001     0.0000
     10  C10       48.9550    6.2160   15.1830 C.3   1001  BB11001     0.0000
     11  N1        42.7730    3.5910   15.4500 N.am  1001  BB11001    -0.2791
     12  C1        43.4050    2.5010   15.8730 C.2   1001  BB11001     0.1130
     13  O1        43.3330    2.1390   17.0500 O.2   1001  BB11001    -0.5358
     14  O2        42.1440    4.2460   16.4290 O.3   1001  BB11001    -0.4195
     15  C6        45.6780    8.9080   12.0840 C.2   1001  BB11001     0.2456
     16  N3        46.7860    9.0540   11.3330 N.am  1001  BB11001    -0.2746
     17  C16       47.8470    9.9050   11.8650 C.3   1001  BB11001     0.1150
     18  C15       46.9300    8.4250   10.0290 C.3   1001  BB11001     0.1150
     19  O4        45.6300    9.4560   13.1870 O.2   1001  BB11001    -0.2730
     20  C11       43.2340    8.8990   11.3480 C.3   1001  BB11001     0.0269
     21  C12       43.5900    9.7580   10.1250 C.3   1001  BB11001     0.0022
     22  C13       42.7770    9.8300   12.4930 C.3   1001  BB11001     0.0022
     23  C14       42.0820    7.9600   10.9920 C.3   1001  BB11001     0.0022
@<TRIPOS>BOND
     1    18    16    1
     2    21    20    1
     3    23    20    1
     4    16    17    1
     5    16    15   am
     6    20     6    1
     7    20    22    1
     8     4     3    2
     9     6    15    1
    10     6     5    1
    11    15    19    2
    12     3     5   am
    13     3     2    1
    14     2     1    1
    15     2     7    1
    16     1    11    1
    17     7     8    1
    18     9     8    1
    19     9    10    1
    20    11    12   am
    21    11    14    1
    22    12    13    2
