@<TRIPOS>MOLECULE
1g28_FMN_A_1.pdb
 31 33 0 0 0
SMALL
GASTEIGER

@<TRIPOS>ATOM
      1  N1        -5.8250   54.2220   -1.4540 N.2   1033  FMN1033    -0.2890
      2  C2        -5.5550   54.9510   -2.5860 C.1   1033  FMN1033     0.3669
      3  O2        -6.3480   55.6680   -3.1240 O.2   1033  FMN1033    -0.1744
      4  N3        -4.2490   54.8650   -3.1780 N.2   1033  FMN1033    -0.2300
      5  C4        -3.2260   54.1090   -2.7050 C.1   1033  FMN1033     0.2513
      6  O4        -2.1300   54.0940   -3.2780 O.2   1033  FMN1033    -0.2057
      7  C4A       -3.5060   53.3320   -1.4960 C.2   1033  FMN1033     0.2700
      8  N5        -2.5620   52.5610   -0.9620 N.2   1033  FMN1033    -0.3878
      9  C5A       -2.8490   51.8340    0.1660 C.2   1033  FMN1033     0.1320
     10  C6        -1.8240   50.9750    0.7510 C.2   1033  FMN1033     0.0250
     11  C7        -2.0260   50.2140    1.8600 C.2   1033  FMN1033    -0.0238
     12  C7M       -0.9350   49.3170    2.4560 C.3   1033  FMN1033     0.0308
     13  C8        -3.3390   50.2440    2.5190 C.2   1033  FMN1033    -0.0280
     14  C8M       -3.6220   49.4250    3.7430 C.3   1033  FMN1033     0.0304
     15  C9        -4.3270   51.0550    1.9780 C.2   1033  FMN1033    -0.0041
     16  C9A       -4.1440   51.8520    0.8320 C.3   1033  FMN1033     0.1497
     17  N10       -5.1400   52.6950    0.2410 N.pl3 1033  FMN1033    -0.2691
     18  C10       -4.8820   53.4470   -0.9120 C.2   1033  FMN1033     0.2416
     19  C1'       -6.5030   52.7680    0.8440 C.3   1033  FMN1033     0.1294
     20  C2'       -6.7220   53.9160    1.8210 C.3   1033  FMN1033     0.2044
     21  O2'       -5.6690   54.0740    2.7580 O.3   1033  FMN1033    -0.2185
     22  C3'       -8.0220   53.6910    2.6150 C.3   1033  FMN1033     0.2164
     23  O3'       -8.0290   52.3190    3.1040 O.3   1033  FMN1033    -0.2175
     24  C4'       -9.2750   53.9280    1.7960 C.3   1033  FMN1033     0.2147
     25  O4'       -9.2790   55.2990    1.3280 O.3   1033  FMN1033    -0.2176
     26  C5'      -10.6010   53.6900    2.5270 C.3   1033  FMN1033     0.1892
     27  O5'      -10.4980   54.0390    3.9310 O.3   1033  FMN1033    -0.2674
     28  P        -10.9790   55.4300    4.5440 P.3   1033  FMN1033     0.5327
     29  O1P      -10.3450   56.5510    3.7320 O.2   1033  FMN1033    -0.2224
     30  O2P      -10.6140   55.4660    6.0040 O.3   1033  FMN1033    -0.1145
     31  O3P      -12.5400   55.3990    4.3040 O.3   1033  FMN1033    -0.1145
@<TRIPOS>BOND
     1     6     5    2
     2     4     5    2
     3     4     2    2
     4     3     2    2
     5     5     7    1
     6     2     1    2
     7     7     8    2
     8     7    18    1
     9     1    18    2
    10     8     9    2
    11    18    17    1
    12     9    10    1
    13     9    16    1
    14    17    16    1
    15    17    19    1
    16    10    11    2
    17    16    15    1
    18    19    20    1
    19    25    24    1
    20    24    26    1
    21    24    22    1
    22    20    22    1
    23    20    21    1
    24    11    12    1
    25    11    13    1
    26    15    13    2
    27    13    14    1
    28    26    27    1
    29    22    23    1
    30    29    28    2
    31    27    28    1
    32    31    28    1
    33    28    30    1
