@<TRIPOS>MOLECULE
1g2a_BB2_A_1.pdb
 27 27 0 0 0
SMALL
GASTEIGER

@<TRIPOS>ATOM
      1  C5        42.4640    3.5630   14.5930 C.3   1001  BB21001     0.0995
      2  C3        42.2320    3.0330   16.0140 C.2   1001  BB21001     0.2842
      3  O4        41.2580    3.5170   16.6180 O.2   1001  BB21001    -0.2698
      4  N1        42.8500    1.9350   16.4260 N.am  1001  BB21001     0.0385
      5  O2        42.7700    1.4900   17.5700 O.2   1001  BB21001    -0.1531
      6  C6        43.3060    4.8970   14.6740 C.3   1001  BB21001     0.0874
      7  C12       43.4070    5.6930   13.3660 C.2   1001  BB21001     0.2418
      8  O13       43.2940    5.1690   12.2660 O.2   1001  BB21001    -0.2733
      9  C7        44.7560    4.3510   14.9070 C.3   1001  BB21001     0.0096
     10  C8        45.7250    5.5210   15.1510 C.3   1001  BB21001     0.0005
     11  C9        47.1440    5.0270   15.4050 C.3   1001  BB21001     0.0000
     12  C10       48.0630    6.1120   15.9640 C.3   1001  BB21001     0.0000
     13  C11       48.2490    7.2670   15.0410 C.3   1001  BB21001     0.0000
     14  N14       43.3670    7.0010   13.5050 N.am  1001  BB21001    -0.1978
     15  C15       43.6770    7.9330   12.4360 C.3   1001  BB21001     0.1712
     16  C16       42.4910    8.8180   12.0470 C.3   1001  BB21001     0.0289
     17  C18       41.8520    9.4370   13.2720 C.3   1001  BB21001     0.0023
     18  C17       41.4970    7.9190   11.3110 C.3   1001  BB21001     0.0023
     19  C19       44.8490    8.7940   12.9120 C.2   1001  BB21001     0.2458
     20  O20       44.9400    9.1160   14.0910 O.2   1001  BB21001    -0.2730
     21  N21       45.7120    9.1780   11.9970 N.am  1001  BB21001    -0.2727
     22  C22       46.8910    9.9700   12.3090 C.3   1001  BB21001     0.1402
     23  C23       45.6620    8.7700   10.5660 C.3   1001  BB21001     0.0939
     24  C24       46.8650    9.4690    9.9800 C.3   1001  BB21001     0.0237
     25  C25       47.8080    9.6480   11.1280 C.3   1001  BB21001     0.0296
     26  C26       46.6350   11.4650   12.4260 C.2   1001  BB21001     0.2269
     27  O27       47.5670   12.1760   12.9050 O.2   1001  BB21001    -0.2865
@<TRIPOS>BOND
     1    24    23    1
     2    24    25    1
     3    23    21    1
     4    25    22    1
     5    18    16    1
     6    21    22    1
     7    21    19   am
     8    16    15    1
     9    16    17    1
    10     8     7    2
    11    22    26    1
    12    26    27    2
    13    15    19    1
    14    15    14    1
    15    19    20    2
    16     7    14   am
    17     7     6    1
    18     1     6    1
    19     1     2    1
    20     6     9    1
    21     9    10    1
    22    13    12    1
    23    10    11    1
    24    11    12    1
    25     2     4    1
    26     2     3    2
    27     4     5    2
