@<TRIPOS>MOLECULE
1g2k_NM1_B_1.pdb
 45 49 0 0 0
SMALL
GASTEIGER

@<TRIPOS>ATOM
      1  N01       11.3490   23.7090    5.9420 N.3   501  NM1501     -0.1360
      2  S02       11.8060   22.2030    6.4460 S.O2  501  NM1501      0.1029
      3  N03       13.4310   22.2920    6.2150 N.3   501  NM1501     -0.1360
      4  C04       13.8510   22.2230    4.7960 C.3   501  NM1501      0.1573
      5  C05       14.0220   23.6050    4.1440 C.3   501  NM1501      0.2035
      6  C06       13.0480   24.6790    4.6150 C.3   501  NM1501      0.2035
      7  C07       11.5560   24.3030    4.6100 C.3   501  NM1501      0.1573
      8  C08       10.1700   24.1890    6.5190 C.3   501  NM1501      0.1233
      9  C09        9.8920   25.4570    7.2180 C.ar  501  NM1501     -0.0043
     10  C10        8.8250   26.2930    6.8150 C.ar  501  NM1501      0.0017
     11  C11        8.6000   27.5210    7.4900 C.ar  501  NM1501      0.0548
     12  C12        9.4560   27.9140    8.5820 C.ar  501  NM1501      0.0045
     13  C13       10.5270   27.0760    8.9870 C.ar  501  NM1501     -0.0001
     14  C14       10.7450   25.8490    8.3020 C.ar  501  NM1501     -0.0029
     15  O15       11.2360   21.1560    5.5990 O.2   501  NM1501     -0.1408
     16  O16       14.8540   20.3500    3.5600 O.3   501  NM1501     -0.4739
     17  C17       15.8640   19.4590    3.2220 C.ar  501  NM1501      0.1386
     18  C18       16.8400   19.0170    4.1900 C.ar  501  NM1501      0.0369
     19  C19       17.8750   18.0980    3.8300 C.ar  501  NM1501      0.0031
     20  C20       17.9430   17.6050    2.4890 C.ar  501  NM1501      0.0002
     21  C21       16.9850   18.0300    1.5170 C.ar  501  NM1501      0.0031
     22  C22       15.9540   18.9530    1.8850 C.ar  501  NM1501      0.0369
     23  C23       14.2710   22.8980    7.3060 C.3   501  NM1501      0.1233
     24  C24       15.2130   22.0330    8.1100 C.ar  501  NM1501     -0.0044
     25  C25       14.6980   21.1220    9.0830 C.ar  501  NM1501     -0.0029
     26  C26       15.5880   20.2940    9.8420 C.ar  501  NM1501     -0.0003
     27  C27       17.0050   20.3790    9.6260 C.ar  501  NM1501     -0.0000
     28  C28       17.5310   21.2940    8.6530 C.ar  501  NM1501     -0.0003
     29  C29       16.6340   22.1150    7.9010 C.ar  501  NM1501     -0.0029
     30  O30       15.3200   24.1020    4.3950 O.3   501  NM1501     -0.2187
     31  O31       13.2740   25.8320    3.8140 O.3   501  NM1501     -0.2187
     32  C32       10.9130   23.4660    3.4700 C.3   501  NM1501      0.2256
     33  O33        9.4720   23.5050    3.6580 O.3   501  NM1501     -0.4739
     34  C34        8.6610   24.4010    3.0030 C.ar  501  NM1501      0.1386
     35  C35        9.1160   25.7120    2.6050 C.ar  501  NM1501      0.0369
     36  C36        8.2440   26.6180    1.9330 C.ar  501  NM1501      0.0031
     37  C37        6.9000   26.2300    1.6530 C.ar  501  NM1501      0.0002
     38  C38        6.4320   24.9430    2.0370 C.ar  501  NM1501      0.0031
     39  C39        7.3130   24.0330    2.7070 C.ar  501  NM1501      0.0369
     40  O40       11.5840   22.1020    7.8880 O.2   501  NM1501     -0.1408
     41  C41       15.0820   21.3320    4.6000 C.3   501  NM1501      0.2256
     42  C51        7.4870   28.4170    7.0500 C.2   501  NM1501      0.2648
     43  O52        7.6600   29.6620    7.0840 O.2   501  NM1501     -0.2684
     44  N53        6.2900   27.8680    6.6330 N.am  501  NM1501     -0.1998
     45  C54        5.2360   28.7840    6.2470 C.3   501  NM1501      0.1388
@<TRIPOS>BOND
     1    21    22   ar
     2    21    20   ar
     3    37    36   ar
     4    37    38   ar
     5    22    17   ar
     6    36    35   ar
     7    38    39   ar
     8    20    19   ar
     9    35    34   ar
    10    39    34   ar
    11    34    33    1
    12    17    16    1
    13    17    18   ar
    14    32    33    1
    15    32     7    1
    16    16    41    1
    17    31     6    1
    18    19    18   ar
    19     5    30    1
    20     5     6    1
    21     5     4    1
    22    41     4    1
    23     7     6    1
    24     7     1    1
    25     4     3    1
    26    15     2    2
    27     1     2    1
    28     1     8    1
    29     3     2    1
    30     3    23    1
    31    45    44    1
    32     2    40    2
    33     8     9    1
    34    44    42   am
    35    10     9   ar
    36    10    11   ar
    37    42    43    2
    38    42    11    1
    39     9    14   ar
    40    23    24    1
    41    11    12   ar
    42    29    24   ar
    43    29    28   ar
    44    24    25   ar
    45    14    13   ar
    46    12    13   ar
    47    28    27   ar
    48    25    26   ar
    49    27    26   ar
