@<TRIPOS>MOLECULE
1g2l_T87_A_1.pdb
 39 43 0 0 0
SMALL
GASTEIGER

@<TRIPOS>ATOM
      1  N1         9.8050    6.1680   27.8830 N.pl3   1  T871        0.2047
      2  N2        11.8030    6.9570   27.5440 N.pl3   1  T871        0.2047
      3  C1        10.5600    6.9200   27.0920 C.2     1  T871        0.4766
      4  C2        10.0700    7.6550   25.9890 C.ar    1  T871        0.0976
      5  C3         8.6340    7.6730   25.6770 C.ar    1  T871        0.0093
      6  C4         8.1090    8.4200   24.5770 C.ar    1  T871        0.0164
      7  C5         8.9980    9.1980   23.7180 C.ar    1  T871        0.0659
      8  C6        10.4200    9.2060   23.9840 C.ar    1  T871        0.0164
      9  C7        10.9520    8.4510   25.0980 C.ar    1  T871        0.0093
     10  N          8.5040    9.9850   22.5870 N.pl3   1  T871       -0.2285
     11  C          7.2940    9.7650   21.7210 C.3     1  T871        0.1867
     12  N3         6.5370    7.3620   21.6010 N.2     1  T871       -0.3921
     13  C8         7.2580    8.3960   20.9890 C.2     1  T871        0.1855
     14  N9         7.9360    8.1760   19.7600 N.pl3   1  T871       -0.2611
     15  C3A        7.5930    6.8280   19.5870 C.2     1  T871        0.0793
     16  C7A        6.7510    6.3530   20.7000 C.2     1  T871        0.1278
     17  C10        7.9540    5.9060   18.5060 C.2     1  T871        0.0165
     18  C11        7.4880    4.5630   18.5500 C.2     1  T871       -0.0064
     19  C12        6.6460    4.0400   19.6450 C.2     1  T871       -0.0323
     20  C13        6.2730    4.9700   20.7330 C.3     1  T871        0.0826
     21  C14        8.7750    9.0870   18.9000 C.3     1  T871        0.1195
     22  C9         5.1230    1.9340   20.5190 C.3     1  T871        0.0102
     23  C15        6.5230    1.7830   21.0980 C.3     1  T871        0.0102
     24  C16        6.3350    2.4540   19.7270 C.3     1  T871        0.0555
     25  C17        6.2810    1.8540   18.2440 C.2     1  T871        0.1172
     26  N4         5.2320    2.0200   17.4660 N.2     1  T871       -0.0850
     27  N5         7.3590    0.4090   16.3680 N.ar    1  T871       -0.2425
     28  C18        7.5180    1.1090   17.6200 C.ar    1  T871        0.0982
     29  C19        8.8280    1.1140   18.2460 C.ar    1  T871        0.0205
     30  C20        9.9220    0.4210   17.6060 C.ar    1  T871        0.0032
     31  C21        9.7490   -0.2790   16.3560 C.ar    1  T871        0.0207
     32  C22        8.4590   -0.2850   15.7310 C.ar    1  T871        0.0989
     33  OH         4.0020    2.7470   17.8900 O.2     1  T871       -0.3652
     34  C23        3.3470    3.3120   16.7420 C.3     1  T871        0.3465
     35  C24        3.9830    4.6760   16.3910 C.2     1  T871        0.3650
     36  O2         4.4680    4.8320   15.2560 O.2     1  T871       -0.2458
     37  O3         3.9950    5.6840   17.3550 O.3     1  T871       -0.4459
     38  C25        4.3250    8.0300   17.9380 C.3     1  T871        0.0513
     39  C26        4.6150    6.9140   16.9160 C.3     1  T871        0.2087
@<TRIPOS>BOND
     1    36    35    2
     2    32    31   ar
     3    32    27   ar
     4    31    30   ar
     5    27    28   ar
     6    35    34    1
     7    35    37    1
     8    34    33    1
     9    39    37    1
    10    39    38    1
    11    26    33    1
    12    26    25    2
    13    30    29   ar
    14    28    25    1
    15    28    29   ar
    16    25    24    1
    17    17    18    1
    18    17    15    2
    19    18    19    2
    20    21    14    1
    21    15    14    1
    22    15    16    1
    23    19    24    1
    24    19    20    1
    25    24    22    1
    26    24    23    1
    27    14    13    1
    28    22    23    1
    29    16    20    1
    30    16    12    2
    31    13    12    2
    32    13    11    1
    33    11    10    1
    34    10     7    1
    35     7     8   ar
    36     7     6   ar
    37     8     9   ar
    38     6     5   ar
    39     9     4   ar
    40     5     4   ar
    41     4     3    1
    42     3     2    2
    43     3     1    1
