@<TRIPOS>MOLECULE
1g2m_R11_A_1.pdb
 32 36 0 0 0
SMALL
GASTEIGER

@<TRIPOS>ATOM
      1  N1         9.7000    6.7980   28.7680 N.pl3   1  R111        0.2047
      2  N2        11.8080    7.0250   28.3250 N.pl3   1  R111        0.2047
      3  C1        10.5820    7.3010   27.9350 C.2     1  R111        0.4766
      4  C2        10.2510    7.9840   26.7620 C.ar    1  R111        0.0976
      5  C3         8.9640    7.8230   26.1490 C.ar    1  R111        0.0093
      6  C4         8.6240    8.5050   24.9700 C.ar    1  R111        0.0164
      7  C5         9.5480    9.3740   24.3500 C.ar    1  R111        0.0659
      8  C6        10.8240    9.5610   24.9190 C.ar    1  R111        0.0164
      9  C7        11.1760    8.8780   26.1080 C.ar    1  R111        0.0093
     10  N          9.2190   10.0800   23.1410 N.pl3   1  R111       -0.2285
     11  C          8.0960    9.8080   22.2170 C.3     1  R111        0.1867
     12  N3         7.3150    7.4090   22.0080 N.2     1  R111       -0.3921
     13  C8         8.1120    8.4430   21.5040 C.2     1  R111        0.1855
     14  N9         8.9090    8.2310   20.3660 N.pl3   1  R111       -0.2611
     15  C3A        8.5710    6.9070   20.1230 C.2     1  R111        0.0793
     16  C7A        7.6240    6.4220   21.1010 C.2     1  R111        0.1279
     17  C10        9.0340    6.0380   19.0830 C.2     1  R111        0.0166
     18  C11        8.5510    4.7250   19.0270 C.2     1  R111       -0.0051
     19  C12        7.6170    4.2350   19.9840 C.2     1  R111       -0.0171
     20  C13        7.1450    5.0770   21.0300 C.3     1  R111        0.0840
     21  C14        9.8340    9.1410   19.6340 C.3     1  R111        0.1195
     22  C9         7.1210    2.7820   19.8620 C.3     1  R111        0.1204
     23  N4         7.4160    2.1430   18.5280 N.pl3   1  R111       -0.2602
     24  C15        6.6350    1.9760   17.3600 C.2     1  R111        0.1641
     25  N16        7.1380    1.3400   16.2260 N.2     1  R111       -0.3939
     26  C17        8.4020    1.0540   16.7010 C.2     1  R111        0.1281
     27  C18        8.5730    1.5220   18.0610 C.2     1  R111        0.0795
     28  C19        9.4750    0.3870   16.0260 C.3     1  R111        0.0863
     29  C20       10.6980    0.2000   16.7060 C.2     1  R111       -0.0186
     30  C21       10.8730    0.6560   18.0350 C.2     1  R111       -0.0028
     31  C22        9.8320    1.3180   18.7230 C.2     1  R111        0.0168
     32  C23        5.2040    2.4890   17.2880 C.3     1  R111        0.0840
@<TRIPOS>BOND
     1    28    26    1
     2    28    29    1
     3    25    26    2
     4    25    24    2
     5    26    27    1
     6    29    30    2
     7    32    24    1
     8    24    23    1
     9    30    31    1
    10    27    23    1
    11    27    31    2
    12    23    22    1
    13    18    17    1
    14    18    19    2
    15    17    15    2
    16    21    14    1
    17    22    19    1
    18    19    20    1
    19    15    14    1
    20    15    16    1
    21    14    13    1
    22    20    16    1
    23    16    12    2
    24    13    12    2
    25    13    11    1
    26    11    10    1
    27    10     7    1
    28     7     8   ar
    29     7     6   ar
    30     8     9   ar
    31     6     5   ar
    32     9     4   ar
    33     5     4   ar
    34     4     3    1
    35     3     2    2
    36     3     1    1
