@<TRIPOS>MOLECULE
1g2n_EPH_A_1.pdb
 49 48 0 0 0
SMALL
GASTEIGER

@<TRIPOS>ATOM
      1  C1        23.8410   12.8900   85.1820 C.3   4000  EPH4000     0.2543
      2  C2        23.0730   13.7790   86.0510 C.3   4000  EPH4000     0.2420
      3  C4        24.8860   13.0830   83.1320 C.2   4000  EPH4000     0.3171
      4  O2        24.2170   13.6930   84.0850 O.3   4000  EPH4000    -0.4444
      5  O4        25.1610   11.9290   83.1640 O.2   4000  EPH4000    -0.2501
      6  C18       25.2520   14.0410   81.9680 C.3   4000  EPH4000     0.1096
      7  C19       24.6990   13.5590   80.6200 C.3   4000  EPH4000     0.0116
      8  C20       23.1820   13.5600   80.5590 C.3   4000  EPH4000     0.0006
      9  C21       22.6400   12.7430   79.4010 C.3   4000  EPH4000     0.0000
     10  C22       21.1190   12.8830   79.2930 C.3   4000  EPH4000     0.0000
     11  C23       20.5460   13.0600   77.8750 C.3   4000  EPH4000     0.0000
     12  C24       21.0520   14.3030   77.1280 C.3   4000  EPH4000     0.0000
     13  C25       20.0470   15.4500   77.0060 C.3   4000  EPH4000     0.0000
     14  C26       20.6720   16.7730   77.4580 C.3   4000  EPH4000     0.0000
     15  C27       19.8210   18.0410   77.2860 C.3   4000  EPH4000     0.0000
     16  C28       19.0150   18.1720   75.9820 C.3   4000  EPH4000     0.0000
     17  C29       19.8510   18.2990   74.7210 C.3   4000  EPH4000     0.0000
     18  C30       19.8190   17.0240   73.8780 C.3   4000  EPH4000     0.0000
     19  C31       19.4350   17.2610   72.4160 C.3   4000  EPH4000     0.0000
     20  C32       17.9310   17.4610   72.2130 C.3   4000  EPH4000     0.0000
     21  C33       17.0820   16.2030   72.3630 C.3   4000  EPH4000     0.0000
     22  C34       15.5980   16.5130   72.5320 C.3   4000  EPH4000     0.0000
     23  C37       22.8430   13.1340   87.3730 C.3   4000  EPH4000     0.1964
     24  O5        22.3140   14.1310   88.2250 O.3   4000  EPH4000    -0.3100
     25  C3        21.5120   15.3110   85.2490 C.2   4000  EPH4000     0.3171
     26  O1        21.8340   14.0430   85.4210 O.3   4000  EPH4000    -0.4457
     27  O3        22.2320   16.2240   85.5400 O.2   4000  EPH4000    -0.2501
     28  C5        20.1450   15.5160   84.6210 C.3   4000  EPH4000     0.1096
     29  C6        20.3810   15.7470   83.1310 C.3   4000  EPH4000     0.0116
     30  C7        19.0500   15.9540   82.4310 C.3   4000  EPH4000     0.0006
     31  C8        19.0430   15.7290   80.9340 C.3   4000  EPH4000     0.0000
     32  C9        17.6350   16.0460   80.4090 C.3   4000  EPH4000     0.0000
     33  C10       17.0660   15.1860   79.2820 C.3   4000  EPH4000     0.0000
     34  C11       16.4520   16.0900   78.2190 C.3   4000  EPH4000     0.0000
     35  C12       15.1490   15.6340   77.5180 C.3   4000  EPH4000     0.0000
     36  C13       15.2020   14.2860   76.8570 C.3   4000  EPH4000     0.0000
     37  C14       14.8600   14.4260   75.3880 C.3   4000  EPH4000     0.0000
     38  C15       14.9790   13.0850   74.6710 C.3   4000  EPH4000     0.0000
     39  C16       16.4330   12.7210   74.3480 C.3   4000  EPH4000     0.0000
     40  C17       16.7660   11.3380   74.8800 C.3   4000  EPH4000     0.0000
     41  C35       18.0190   11.3730   75.7190 C.3   4000  EPH4000     0.0000
     42  C36       18.2650   10.0130   76.3250 C.3   4000  EPH4000     0.0000
     43  P1        21.8190   13.7180   89.6560 P.3   4000  EPH4000     0.2141
     44  O6        21.5440   14.9200   90.5650 O.3   4000  EPH4000    -0.4373
     45  O7        20.5140   12.9240   89.2730 O.2   4000  EPH4000    -0.5172
     46  O8        22.8420   12.7260   90.2060 O.3   4000  EPH4000    -0.3125
     47  C38       22.7540   11.3630   89.7770 C.3   4000  EPH4000     0.1696
     48  C39       24.1070   10.7060   89.5900 C.3   4000  EPH4000     0.1417
     49  N1        23.7530    9.2960   89.7330 N.3   4000  EPH4000    -0.1286
@<TRIPOS>BOND
     1    20    21    1
     2    20    19    1
     3    21    22    1
     4    19    18    1
     5    18    17    1
     6    39    38    1
     7    39    40    1
     8    38    37    1
     9    17    16    1
    10    40    41    1
    11    37    36    1
    12    41    42    1
    13    16    15    1
    14    36    35    1
    15    13    12    1
    16    13    14    1
    17    12    11    1
    18    15    14    1
    19    35    34    1
    20    11    10    1
    21    34    33    1
    22    33    32    1
    23    10     9    1
    24     9     8    1
    25    32    31    1
    26     8     7    1
    27     7     6    1
    28    31    30    1
    29     6     3    1
    30    30    29    1
    31    29    28    1
    32     3     5    2
    33     3     4    1
    34     4     1    1
    35    28    25    1
    36     1     2    1
    37    25    26    1
    38    25    27    2
    39    26     2    1
    40     2    23    1
    41    23    24    1
    42    24    43    1
    43    45    43    2
    44    48    49    1
    45    48    47    1
    46    43    46    1
    47    43    44    1
    48    47    46    1
