@<TRIPOS>MOLECULE
1g2o_IMH_A_1.pdb
 19 21 0 0 0
SMALL
GASTEIGER

@<TRIPOS>ATOM
      1  O5'       55.2480   13.9450   43.5030 O.3   351  IMH351     -0.2188
      2  C5'       55.0140   15.2780   43.9290 C.3   351  IMH351      0.2020
      3  C4'       56.3320   15.9040   44.2220 C.3   351  IMH351      0.1389
      4  N4'       57.1430   15.8500   43.0570 N.3   351  IMH351     -0.2083
      5  C3'       56.1460   17.3380   44.6070 C.3   351  IMH351      0.2023
      6  O3'       57.0730   17.6270   45.6570 O.3   351  IMH351     -0.2188
      7  C2'       56.4520   18.0500   43.3310 C.3   351  IMH351      0.2036
      8  O2'       57.2500   19.1990   43.5950 O.3   351  IMH351     -0.2185
      9  C1'       57.2120   17.0970   42.3780 C.3   351  IMH351      0.1309
     10  C9        56.4490   16.8610   41.0640 C.2   351  IMH351      0.0348
     11  C8        56.6880   15.8060   40.1790 C.2   351  IMH351      0.0984
     12  N7        55.9180   15.7880   39.1160 N.2   351  IMH351     -0.2310
     13  C5        55.0820   16.8970   39.2600 C.2   351  IMH351      0.1804
     14  C6        54.0310   17.3800   38.3940 C.1   351  IMH351      0.1716
     15  O6        53.6630   16.8910   37.3270 O.2   351  IMH351     -0.2206
     16  N1        53.4000   18.5420   38.8760 N.2   351  IMH351     -0.1739
     17  C2        53.7340   19.1900   40.0770 C.3   351  IMH351      0.2626
     18  N3        54.7270   18.7390   40.9030 N.2   351  IMH351     -0.2415
     19  C4        55.3770   17.5810   40.4460 C.2   351  IMH351      0.1059
@<TRIPOS>BOND
     1    15    14    2
     2    14    16    2
     3    14    13    1
     4    16    17    1
     5    12    13    2
     6    12    11    1
     7    13    19    1
     8    17    18    1
     9    11    10    2
    10    19    18    2
    11    19    10    1
    12    10     9    1
    13     9     4    1
    14     9     7    1
    15     4     3    1
    16     7     8    1
    17     7     5    1
    18     1     2    1
    19     2     3    1
    20     3     5    1
    21     5     6    1
