@<TRIPOS>MOLECULE
1g2v_TTP_A_1.pdb
 29 30 0 0 0
SMALL
GASTEIGER

@<TRIPOS>ATOM
      1  PA        25.0580   -0.7320   83.0680 P.3   3500  TTP3500     0.2189
      2  O1A       26.5250   -0.5570   83.1270 O.3   3500  TTP3500    -0.4371
      3  O2A       24.4340   -1.2880   81.8610 O.2   3500  TTP3500    -0.5170
      4  O3A       24.2080    0.5920   83.4030 O.3   3500  TTP3500    -0.2700
      5  PB        23.8690    1.0080   84.8780 P.3   3500  TTP3500     0.2277
      6  O1B       22.7200    0.2070   85.2950 O.2   3500  TTP3500    -0.5168
      7  O2B       25.1540    1.0650   85.5830 O.3   3500  TTP3500    -0.4368
      8  O3B       23.2660    2.5090   84.8940 O.3   3500  TTP3500    -0.2258
      9  PG        23.6090    3.5880   83.7570 P.3   3500  TTP3500     0.5373
     10  O1G       22.8340    3.3900   82.5460 O.2   3500  TTP3500    -0.2221
     11  O2G       23.2380    4.9240   84.2680 O.3   3500  TTP3500    -0.1143
     12  O3G       24.9950    3.4390   83.3680 O.3   3500  TTP3500    -0.1143
     13  O5'       24.7380   -1.7970   84.1600 O.3   3500  TTP3500    -0.3112
     14  C5'       24.7480   -3.0750   83.5590 C.3   3500  TTP3500     0.1812
     15  C4'       23.9240   -3.9750   84.2530 C.3   3500  TTP3500     0.1773
     16  O4'       24.5320   -4.3910   85.4590 O.3   3500  TTP3500    -0.3339
     17  C3'       22.7570   -3.3940   84.7060 C.3   3500  TTP3500     0.1857
     18  O3'       21.7570   -4.3820   84.5000 O.3   3500  TTP3500    -0.2203
     19  C2'       22.9710   -3.0310   86.0460 C.3   3500  TTP3500     0.0874
     20  C1'       23.7760   -4.0150   86.5820 C.3   3500  TTP3500     0.2090
     21  N1        24.6050   -3.5660   87.5600 N.am  3500  TTP3500    -0.1794
     22  C2        24.5420   -3.9830   88.8390 C.1   3500  TTP3500     0.2844
     23  O2        23.5980   -4.7070   89.0950 O.2   3500  TTP3500    -0.1918
     24  N3        25.4520   -3.5690   89.7440 N.2   3500  TTP3500    -0.2455
     25  C4        26.4620   -2.7870   89.3320 C.1   3500  TTP3500     0.2134
     26  O4        27.3310   -2.3430   90.0970 O.2   3500  TTP3500    -0.2088
     27  C5        26.5130   -2.4200   88.0050 C.2   3500  TTP3500     0.0891
     28  C5M       27.6290   -1.4980   87.5440 C.3   3500  TTP3500     0.0462
     29  C6        25.5670   -2.8540   87.0980 C.2   3500  TTP3500     0.0877
@<TRIPOS>BOND
     1     3     1    2
     2    10     9    2
     3     1     2    1
     4     1     4    1
     5     1    13    1
     6    12     9    1
     7     4     5    1
     8    14    13    1
     9    14    15    1
    10     9    11    1
    11     9     8    1
    12    15    17    1
    13    15    16    1
    14    18    17    1
    15    17    19    1
    16     5     8    1
    17     5     6    2
    18     5     7    1
    19    16    20    1
    20    19    20    1
    21    20    21    1
    22    29    21    1
    23    29    27    2
    24    28    27    1
    25    21    22   am
    26    27    25    1
    27    22    23    2
    28    22    24    2
    29    25    24    2
    30    25    26    2
