@<TRIPOS>MOLECULE
1g2w_PLP_A_1.pdb
 15 15 0 0 0
SMALL
GASTEIGER

@<TRIPOS>ATOM
      1  N1        43.4690   18.2220   11.6620 N.ar  285  PLP285     -0.2452
      2  C2        43.0580   18.1790   12.9590 C.ar  285  PLP285      0.0978
      3  C2A       41.8090   17.3650   13.2770 C.3   285  PLP285      0.0555
      4  C3        43.8460   18.9130   13.9050 C.ar  285  PLP285      0.2049
      5  O3        43.4030   18.8520   15.1750 O.3   285  PLP285     -0.2857
      6  C4        45.0000   19.6480   13.4970 C.ar  285  PLP285      0.0182
      7  C4A       45.7920   20.4080   14.4660 C.3   285  PLP285      0.0342
      8  C5        45.3170   19.5920   12.0770 C.ar  285  PLP285      0.0261
      9  C6        44.5530   18.8860   11.1940 C.ar  285  PLP285      0.0965
     10  C5A       46.5300   20.3030   11.4390 C.3   285  PLP285      0.1815
     11  O4P       46.6040   21.6740   11.6560 O.3   285  PLP285     -0.2653
     12  P         48.0390   22.3080   11.6140 P.3   285  PLP285      0.5329
     13  O1P       48.9330   21.5090   12.4660 O.3   285  PLP285     -0.1145
     14  O2P       47.9340   23.7490   12.1420 O.3   285  PLP285     -0.1145
     15  O3P       48.4730   22.3210   10.1950 O.2   285  PLP285     -0.2224
@<TRIPOS>BOND
     1    15    12    2
     2     9     1   ar
     3     9     8   ar
     4    10    11    1
     5    10     8    1
     6    12    11    1
     7    12    14    1
     8    12    13    1
     9     1     2   ar
    10     8     6   ar
    11     2     3    1
    12     2     4   ar
    13     6     4   ar
    14     6     7    1
    15     4     5    1
