@<TRIPOS>MOLECULE
1g30_T87_B_1.pdb
 39 43 0 0 0
SMALL
GASTEIGER

@<TRIPOS>ATOM
      1  N1        10.2730  -12.6880   23.9230 N.pl3   1  T871        0.2047
      2  N2        10.8730  -10.6680   24.4990 N.pl3   1  T871        0.2047
      3  C1        11.0970  -11.6780   23.6710 C.2     1  T871        0.4766
      4  C2        12.0790  -11.6850   22.6660 C.ar    1  T871        0.0976
      5  C3        12.0990  -12.6910   21.6450 C.ar    1  T871        0.0093
      6  C4        13.0860  -12.7030   20.6420 C.ar    1  T871        0.0164
      7  C5        14.0860  -11.7100   20.6240 C.ar    1  T871        0.0659
      8  C6        14.0990  -10.7020   21.6110 C.ar    1  T871        0.0164
      9  C7        13.1130  -10.6920   22.6100 C.ar    1  T871        0.0093
     10  N         15.1220  -11.6910   19.6280 N.pl3   1  T871       -0.2285
     11  C         16.5750  -11.4160   19.8050 C.3     1  T871        0.1867
     12  N3        16.7180  -13.2600   21.5130 N.2     1  T871       -0.3921
     13  C8        17.4080  -12.3860   20.6790 C.2     1  T871        0.1855
     14  N9        18.8210  -12.4030   20.6440 N.pl3   1  T871       -0.2611
     15  C3A       19.0210  -13.4180   21.5730 C.2     1  T871        0.0793
     16  C7A       17.7690  -13.9140   22.0830 C.2     1  T871        0.1278
     17  C10       20.2520  -13.9740   22.0450 C.2     1  T871        0.0165
     18  C11       20.2060  -15.0050   23.0010 C.2     1  T871       -0.0064
     19  C12       18.9710  -15.5090   23.5300 C.2     1  T871       -0.0323
     20  C13       17.7400  -14.9590   23.0520 C.3     1  T871        0.0826
     21  C14       19.8120  -11.6010   19.8600 C.3     1  T871        0.1195
     22  C9        18.0980  -17.6840   24.9640 C.3     1  T871        0.0102
     23  C15       17.7220  -16.3400   25.6270 C.3     1  T871        0.0102
     24  C16       18.9830  -16.4650   24.8040 C.3     1  T871        0.0555
     25  C17       20.4640  -16.6310   25.2470 C.2     1  T871        0.1172
     26  N4        21.1550  -17.6570   24.8780 N.2     1  T871       -0.0850
     27  N5        22.4130  -15.7230   26.6390 N.ar    1  T871       -0.2425
     28  C18       21.1190  -15.5360   26.1000 C.ar    1  T871        0.0982
     29  C19       20.4370  -14.3180   26.3370 C.ar    1  T871        0.0205
     30  C20       21.0510  -13.3150   27.1050 C.ar    1  T871        0.0032
     31  C21       22.3350  -13.4960   27.6460 C.ar    1  T871        0.0207
     32  C22       23.0250  -14.7120   27.4120 C.ar    1  T871        0.0989
     33  OH        20.5310  -18.6970   24.0270 O.2     1  T871       -0.3652
     34  C23       21.1310  -19.9690   24.2640 C.3     1  T871        0.3465
     35  C24       20.4590  -21.0230   23.3480 C.2     1  T871        0.3650
     36  O2        20.6110  -22.2250   23.6010 O.2     1  T871       -0.2458
     37  O3        19.7090  -20.6100   22.2700 O.3     1  T871       -0.4459
     38  C25       18.1330  -21.2130   20.5100 C.3     1  T871        0.0513
     39  C26       19.1640  -21.7220   21.5370 C.3     1  T871        0.2087
@<TRIPOS>BOND
     1    10    11    1
     2    10     7    1
     3    11    13    1
     4    21    14    1
     5    38    39    1
     6     7     6   ar
     7     7     8   ar
     8     6     5   ar
     9    14    13    1
    10    14    15    1
    11    13    12    2
    12    12    16    2
    13    39    37    1
    14    15    17    2
    15    15    16    1
    16     8     9   ar
    17     5     4   ar
    18    17    18    1
    19    16    20    1
    20    37    35    1
    21     9     4   ar
    22     4     3    1
    23    18    19    2
    24    20    19    1
    25    35    36    2
    26    35    34    1
    27    19    24    1
    28     3     1    2
    29     3     2    1
    30    33    34    1
    31    33    26    1
    32    24    22    1
    33    24    25    1
    34    24    23    1
    35    26    25    2
    36    22    23    1
    37    25    28    1
    38    28    29   ar
    39    28    27   ar
    40    29    30   ar
    41    27    32   ar
    42    30    31   ar
    43    32    31   ar
