@<TRIPOS>MOLECULE
1g32_R11_B_1.pdb
 32 36 0 0 0
SMALL
GASTEIGER

@<TRIPOS>ATOM
      1  N1        10.1660  -12.6970   23.8340 N.pl3   1  R111        0.2047
      2  N2        10.8230  -10.7090   24.4120 N.pl3   1  R111        0.2047
      3  C1        11.0710  -11.7560   23.6370 C.2     1  R111        0.4766
      4  C2        12.0760  -11.8060   22.6420 C.ar    1  R111        0.0976
      5  C3        12.2170  -12.9390   21.7620 C.ar    1  R111        0.0093
      6  C4        13.2200  -12.9870   20.7710 C.ar    1  R111        0.0164
      7  C5        14.1190  -11.9080   20.6180 C.ar    1  R111        0.0659
      8  C6        14.0130  -10.7820   21.4600 C.ar    1  R111        0.0164
      9  C7        13.0130  -10.7280   22.4530 C.ar    1  R111        0.0093
     10  N         15.1590  -11.9140   19.6150 N.pl3   1  R111       -0.2285
     11  C         16.6070  -11.5930   19.7590 C.3     1  R111        0.1867
     12  N3        16.7710  -13.3400   21.5380 N.2     1  R111       -0.3921
     13  C8        17.4550  -12.5180   20.6530 C.2     1  R111        0.1855
     14  N9        18.8740  -12.5480   20.5970 N.pl3   1  R111       -0.2611
     15  C3A       19.0790  -13.5130   21.5770 C.2     1  R111        0.0793
     16  C7A       17.8250  -13.9740   22.1300 C.2     1  R111        0.1279
     17  C10       20.3100  -14.0490   22.0620 C.2     1  R111        0.0166
     18  C11       20.2710  -15.0180   23.0730 C.2     1  R111       -0.0051
     19  C12       19.0360  -15.4790   23.6240 C.2     1  R111       -0.0171
     20  C13       17.8040  -14.9660   23.1580 C.3     1  R111        0.0840
     21  C14       19.8590  -11.7950   19.7590 C.3     1  R111        0.1195
     22  C9        19.0640  -16.5290   24.7460 C.3     1  R111        0.1204
     23  N4        20.3380  -16.4640   25.5410 N.pl3   1  R111       -0.2602
     24  C15       21.3530  -17.4090   25.8040 C.2     1  R111        0.1641
     25  N16       22.4750  -17.0940   26.5840 N.2     1  R111       -0.3939
     26  C17       22.1430  -15.7810   26.8580 C.2     1  R111        0.1281
     27  C18       20.8880  -15.4060   26.2450 C.2     1  R111        0.0795
     28  C19       22.8680  -14.8260   27.6370 C.3     1  R111        0.0863
     29  C20       22.3250  -13.5250   27.7860 C.2     1  R111       -0.0186
     30  C21       21.1070  -13.1530   27.1880 C.2     1  R111       -0.0028
     31  C22       20.3730  -14.0790   26.4250 C.2     1  R111        0.0168
     32  C23       21.2740  -18.8190   25.2420 C.3     1  R111        0.0840
@<TRIPOS>BOND
     1    10    11    1
     2    10     7    1
     3    11    13    1
     4    21    14    1
     5    14    13    1
     6    14    15    1
     7     7     6   ar
     8     7     8   ar
     9    13    12    2
    10     6     5   ar
    11     8     9   ar
    12    12    16    2
    13    15    17    2
    14    15    16    1
    15     5     4   ar
    16    17    18    1
    17    16    20    1
    18     9     4   ar
    19     4     3    1
    20    18    19    2
    21    20    19    1
    22    19    22    1
    23     3     1    2
    24     3     2    1
    25    22    23    1
    26    32    24    1
    27    23    24    1
    28    23    27    1
    29    24    25    2
    30    27    31    2
    31    27    26    1
    32    31    30    1
    33    25    26    2
    34    26    28    1
    35    30    29    2
    36    28    29    1
