@<TRIPOS>MOLECULE
1g35_AHF_B_1.pdb
 47 51 0 0 0
SMALL
GASTEIGER

@<TRIPOS>ATOM
      1  N01       11.5940   23.9220    6.1630 N.3   501  AHF501     -0.1360
      2  S02       11.9410   22.2880    6.4770 S.O2  501  AHF501      0.1029
      3  N03       13.6100   22.4220    6.2590 N.3   501  AHF501     -0.1360
      4  C04       14.0230   22.3010    4.8410 C.3   501  AHF501      0.1573
      5  C05       14.1580   23.7760    4.2980 C.3   501  AHF501      0.2035
      6  C06       13.1870   24.8630    4.8690 C.3   501  AHF501      0.2035
      7  C07       11.6810   24.6340    4.8560 C.3   501  AHF501      0.1573
      8  C08       10.3120   24.2390    6.7270 C.3   501  AHF501      0.1233
      9  C09        9.7360   25.4500    7.3510 C.ar  501  AHF501     -0.0044
     10  C10        8.3410   25.7480    7.1780 C.ar  501  AHF501     -0.0031
     11  C11        7.7670   26.9120    7.7710 C.ar  501  AHF501     -0.0020
     12  C12        8.6140   27.8160    8.5670 C.ar  501  AHF501      0.0106
     13  C13       10.0490   27.5180    8.7510 C.ar  501  AHF501     -0.0020
     14  C14       10.6010   26.3260    8.1350 C.ar  501  AHF501     -0.0031
     15  O15       11.3080   21.4690    5.4610 O.2   501  AHF501     -0.1408
     16  O16       15.0160   20.4680    3.5760 O.3   501  AHF501     -0.4739
     17  C17       15.9550   19.4950    3.2610 C.ar  501  AHF501      0.1386
     18  C18       16.1570   19.1200    1.8770 C.ar  501  AHF501      0.0369
     19  C19       17.1490   18.0940    1.5230 C.ar  501  AHF501      0.0031
     20  C20       17.9430   17.4410    2.5640 C.ar  501  AHF501      0.0002
     21  C21       17.7530   17.8010    3.9510 C.ar  501  AHF501      0.0031
     22  C22       16.7620   18.8250    4.3050 C.ar  501  AHF501      0.0369
     23  C23       14.5080   22.8020    7.4110 C.3   501  AHF501      0.1233
     24  C24       15.4130   21.9020    8.1780 C.ar  501  AHF501     -0.0044
     25  C25       14.8810   20.9530    9.1430 C.ar  501  AHF501     -0.0027
     26  C26       15.8050   20.0760    9.9020 C.ar  501  AHF501      0.0062
     27  C27       17.2700   20.1600    9.6870 C.ar  501  AHF501      0.0756
     28  C28       17.7940   21.1320    8.6980 C.ar  501  AHF501      0.0062
     29  C29       16.8630   21.9900    7.9570 C.ar  501  AHF501     -0.0027
     30  O30       15.4240   24.3250    4.5120 O.3   501  AHF501     -0.2187
     31  O31       13.4210   26.0160    4.1760 O.3   501  AHF501     -0.2187
     32  C32       11.1270   23.8230    3.6070 C.3   501  AHF501      0.2256
     33  O33        9.7070   23.7250    3.7470 O.3   501  AHF501     -0.4739
     34  C34        8.7690   24.4600    3.1760 C.ar  501  AHF501      0.1386
     35  C35        9.0910   25.5560    2.2410 C.ar  501  AHF501      0.0369
     36  C36        8.0400   26.3370    1.6340 C.ar  501  AHF501      0.0031
     37  C37        6.6590   26.0340    1.9530 C.ar  501  AHF501      0.0002
     38  C38        6.3380   24.9610    2.8700 C.ar  501  AHF501      0.0031
     39  C39        7.3950   24.1770    3.4790 C.ar  501  AHF501      0.0369
     40  O40       11.7370   22.0060    7.8330 O.2   501  AHF501     -0.1408
     41  C41       15.3360   21.4790    4.6100 C.3   501  AHF501      0.2256
     42  C42       18.1060   19.3720   10.3740 C.2   501  AHF501      0.3413
     43  O43       17.7020   18.8050   11.5520 O.3   501  AHF501     -0.4413
     44  O44       19.3410   19.1480    9.9160 O.2   501  AHF501     -0.2449
     45  C45       18.5400   18.0000   12.2860 C.3   501  AHF501      0.2560
     46  C46        8.1470   28.8530    9.1110 C.3   501  AHF501      0.2086
     47  O47        7.6480   29.6750    8.1760 O.3   501  AHF501     -0.2152
@<TRIPOS>BOND
     1    19    18   ar
     2    19    20   ar
     3    36    37   ar
     4    36    35   ar
     5    18    17   ar
     6    37    38   ar
     7    35    34   ar
     8    20    21   ar
     9    38    39   ar
    10    34    39   ar
    11    34    33    1
    12    17    16    1
    13    17    22   ar
    14    16    41    1
    15    32    33    1
    16    32     7    1
    17    21    22   ar
    18    31     6    1
    19     5    30    1
    20     5     4    1
    21     5     6    1
    22    41     4    1
    23     4     3    1
    24     7     6    1
    25     7     1    1
    26    15     2    2
    27     1     2    1
    28     1     8    1
    29     3     2    1
    30     3    23    1
    31     2    40    2
    32     8     9    1
    33    10     9   ar
    34    10    11   ar
    35     9    14   ar
    36    23    24    1
    37    11    12   ar
    38    29    24   ar
    39    29    28   ar
    40    14    13   ar
    41    47    46    1
    42    24    25   ar
    43    12    13   ar
    44    12    46    1
    45    28    27   ar
    46    25    26   ar
    47    27    26   ar
    48    27    42    1
    49    44    42    2
    50    42    43    1
    51    43    45    1
