@<TRIPOS>MOLECULE
1g36_R11_A_1.pdb
 32 36 0 0 0
SMALL
GASTEIGER

@<TRIPOS>ATOM
      1  N1        -4.9860   10.0710   19.7450 N.pl3 990  R11990      0.2047
      2  N2        -3.0700   10.7130   18.9520 N.pl3 990  R11990      0.2047
      3  C1        -3.7400    9.7130   19.4910 C.2   990  R11990      0.4766
      4  C2        -3.2070    8.4440   19.7760 C.ar  990  R11990      0.0976
      5  C3        -3.9640    7.4750   20.5100 C.ar  990  R11990      0.0093
      6  C4        -3.4470    6.2010   20.7980 C.ar  990  R11990      0.0164
      7  C5        -2.1490    5.8380   20.3660 C.ar  990  R11990      0.0659
      8  C6        -1.3710    6.7640   19.6430 C.ar  990  R11990      0.0164
      9  C7        -1.8850    8.0480   19.3490 C.ar  990  R11990      0.0093
     10  N         -1.5970    4.5330   20.6480 N.pl3 990  R11990     -0.2285
     11  C         -2.1230    3.5250   21.6060 C.3   990  R11990      0.1867
     12  N3        -3.4270    4.3970   23.5810 N.2   990  R11990     -0.3921
     13  C8        -2.1870    3.9840   23.0760 C.2   990  R11990      0.1855
     14  N9        -1.0320    3.9980   23.8960 N.pl3 990  R11990     -0.2611
     15  C3A       -1.6310    4.4960   25.0630 C.2   990  R11990      0.0793
     16  C7A       -3.0500    4.7310   24.8590 C.2   990  R11990      0.1279
     17  C10       -1.0430    4.7800   26.3400 C.2   990  R11990      0.0166
     18  C11       -1.8560    5.2960   27.3730 C.2   990  R11990     -0.0051
     19  C12       -3.2480    5.5260   27.1690 C.2   990  R11990     -0.0171
     20  C13       -3.8570    5.2470   25.9170 C.3   990  R11990      0.0840
     21  C14        0.3830    3.6160   23.5990 C.3   990  R11990      0.1195
     22  C9        -4.0940    6.0890   28.3030 C.3   990  R11990      0.1204
     23  N4        -3.5880    5.7900   29.6780 N.pl3 990  R11990     -0.2602
     24  C15       -3.7200    4.6490   30.5010 C.2   990  R11990      0.1645
     25  N16       -3.1510    4.5890   31.7810 N.2   990  R11990     -0.3899
     26  C17       -2.5770    5.8610   31.7920 C.2   990  R11990      0.1456
     27  C18       -2.8350    6.5760   30.5580 C.2   990  R11990      0.0794
     28  C19       -1.8290    6.4820   32.8450 C.2   990  R11990      0.0291
     29  C20       -1.3370    7.7950   32.6450 C.2   990  R11990     -0.0187
     30  C21       -1.5780    8.4960   31.4380 C.3   990  R11990      0.0535
     31  C22       -2.3250    7.9050   30.3870 C.2   990  R11990     -0.0040
     32  C23       -4.4810    3.4100   30.0230 C.3   990  R11990      0.0840
@<TRIPOS>BOND
     1     2     3    2
     2     9     8   ar
     3     9     4   ar
     4     3     1    1
     5     3     4    1
     6     8     7   ar
     7     4     5   ar
     8     7    10    1
     9     7     6   ar
    10     5     6   ar
    11    10    11    1
    12    11    13    1
    13    13    12    2
    14    13    14    1
    15    12    16    2
    16    21    14    1
    17    14    15    1
    18    16    15    1
    19    16    20    1
    20    15    17    2
    21    20    19    1
    22    17    18    1
    23    19    18    2
    24    19    22    1
    25    22    23    1
    26    23    24    1
    27    23    27    1
    28    32    24    1
    29    31    27    2
    30    31    30    1
    31    24    25    2
    32    27    26    1
    33    30    29    1
    34    25    26    2
    35    26    28    1
    36    29    28    2
