@<TRIPOS>MOLECULE
1g37_110_A_1.pdb
 43 46 0 0 0
SMALL
GASTEIGER

@<TRIPOS>ATOM
      1  N1        16.0210   18.4310   20.0150 N.am  900  110900     -0.3016
      2  C1        14.7580   18.3600   19.2090 C.3   900  110900      0.1129
      3  O3        15.1760   18.4440   16.0870 O.3   900  110900     -0.4467
      4  C10       14.4860   19.0730   14.9610 C.3   900  110900      0.2085
      5  C11       14.1900   18.1930   13.7360 C.3   900  110900      0.0474
      6  C9        15.5880   19.2470   17.1070 C.2   900  110900      0.3494
      7  O2        16.7200   19.6940   17.2110 O.2   900  110900     -0.2472
      8  C14       16.8810   17.3630   20.1200 C.2   900  110900      0.2406
      9  O4        16.7540   16.3050   19.5070 O.2   900  110900     -0.2733
     10  C17       20.2980   16.5300   21.0110 C.3   900  110900      0.0235
     11  C18       19.3970   15.4820   21.6280 C.3   900  110900      0.0935
     12  N3        18.1720   16.2910   21.8980 N.am  900  110900     -0.2720
     13  C15       18.0410   17.5100   21.0870 C.3   900  110900      0.1518
     14  C16       19.3980   17.5540   20.3790 C.3   900  110900      0.0310
     15  C21       17.3820   14.7160   23.6320 C.3   900  110900      0.1802
     16  C20       17.2250   15.9600   22.7880 C.2   900  110900      0.2440
     17  S1        19.0400   12.6850   24.2360 S.O2  900  110900      0.0486
     18  O6        17.8020   11.9510   24.3410 O.2   900  110900     -0.1569
     19  O7        20.1800   12.1080   23.5450 O.2   900  110900     -0.1569
     20  C24       21.8750   13.8860   25.6030 C.ar  900  110900     -0.0025
     21  C23       20.5830   14.1980   26.0280 C.ar  900  110900      0.0029
     22  C22       19.4980   13.1740   25.9540 C.3   900  110900      0.1955
     23  C26       20.2990   15.4910   26.4360 C.ar  900  110900     -0.0025
     24  C27       21.2850   16.4620   26.4110 C.ar  900  110900     -0.0003
     25  C28       22.5640   16.1410   25.9790 C.ar  900  110900     -0.0000
     26  C29       22.8570   14.8490   25.5780 C.ar  900  110900     -0.0003
     27  O5        16.2280   16.6520   22.9480 O.2   900  110900     -0.2733
     28  C19       19.8110   14.9910   22.9910 C.3   900  110900      0.1157
     29  N4        18.7180   14.1570   23.4830 N.3   900  110900     -0.1481
     30  C12       13.5250   18.9730   12.5980 C.3   900  110900      0.0038
     31  C13       12.3370   18.2540   11.9660 C.3   900  110900      0.0001
     32  C2        13.4960   18.2500   20.0950 C.3   900  110900      0.0212
     33  C4        13.3300   16.7980   20.6550 C.3   900  110900      0.0031
     34  C5        11.9690   16.6810   21.3770 C.3   900  110900      0.0155
     35  C6        11.9170   17.7220   22.5360 C.3   900  110900      0.0508
     36  N2        10.6560   17.5970   23.2900 N.3   900  110900     -0.3222
     37  C7        12.1120   19.1710   21.9750 C.3   900  110900      0.0155
     38  C8        13.4740   19.2800   21.2530 C.3   900  110900      0.0031
     39  C3        14.6250   19.5520   18.2000 C.3   900  110900      0.2672
     40  O1        13.3100   19.6690   17.5310 O.3   900  110900     -0.2093
     41  HN1       16.3420   19.3150   20.2990 H     900  110900      0.1495
     42 HD21       10.2620   18.4090   23.6750 H     900  110900      0.1188
     43 HD22       10.2910   16.7020   23.4370 H     900  110900      0.1188
@<TRIPOS>BOND
     1    31    30    1
     2    30     5    1
     3     5     4    1
     4     4     3    1
     5     3     6    1
     6     6     7    2
     7     6    39    1
     8    40    39    1
     9    39     2    1
    10     2     1    1
    11     2    32    1
    12     9     8    2
    13     1     8   am
    14     1    41    1
    15    32    33    1
    16    32    38    1
    17     8    13    1
    18    14    10    1
    19    14    13    1
    20    33    34    1
    21    10    11    1
    22    13    12    1
    23    38    37    1
    24    34    35    1
    25    11    12    1
    26    11    28    1
    27    12    16   am
    28    37    35    1
    29    35    36    1
    30    16    27    2
    31    16    15    1
    32    28    29    1
    33    36    43    1
    34    36    42    1
    35    29    15    1
    36    29    17    1
    37    19    17    2
    38    17    18    2
    39    17    22    1
    40    26    20   ar
    41    26    25   ar
    42    20    21   ar
    43    22    21    1
    44    25    24   ar
    45    21    23   ar
    46    24    23   ar
