@<TRIPOS>MOLECULE
1g38_NEA_A_1.pdb
 22 24 0 0 0
SMALL
GASTEIGER

@<TRIPOS>ATOM
      1  N        -17.2830   -6.3850   19.9940 N.3   500  NEA500     -0.1304
      2  CB       -17.0490   -7.3740   18.9530 C.3   500  NEA500      0.1209
      3  CG       -16.0810   -6.9590   17.8580 C.3   500  NEA500      0.0781
      4  SD       -16.8870   -5.6540   16.8780 S.3   500  NEA500     -0.1360
      5  C5'      -18.3050   -6.3920   16.0310 C.3   500  NEA500      0.0899
      6  C4'      -19.6500   -5.8640   16.5630 C.3   500  NEA500      0.1630
      7  O4'      -19.6390   -4.4790   16.4190 O.3   500  NEA500     -0.3153
      8  C3'      -20.8890   -6.3200   15.7990 C.3   500  NEA500      0.2168
      9  O3'      -21.9360   -6.6520   16.7120 O.3   500  NEA500     -0.2175
     10  C2'      -21.2480   -5.1050   15.0330 C.3   500  NEA500      0.2569
     11  O2'      -22.6420   -5.0980   14.7650 O.3   500  NEA500     -0.2130
     12  C1'      -20.9090   -4.0360   16.0020 C.3   500  NEA500      0.3185
     13  N9       -20.6440   -2.7710   15.3590 N.pl3 500  NEA500     -0.1439
     14  C8       -19.9280   -2.5070   14.1550 C.3   500  NEA500      0.3377
     15  N7       -19.8630   -1.2340   13.8420 N.2   500  NEA500     -0.2095
     16  C5       -20.5640   -0.6380   14.8820 C.2   500  NEA500      0.2526
     17  C6       -20.8510    0.7390   15.1270 C.2   500  NEA500      0.4393
     18  N6       -20.4480    1.7240   14.3100 N.pl3 500  NEA500      0.2180
     19  N1       -21.5710    1.0300   16.2500 N.2   500  NEA500      0.0021
     20  C2       -22.0000    0.0810   17.1030 C.3   500  NEA500      0.5254
     21  N3       -21.8090   -1.2080   17.0000 N.2   500  NEA500     -0.0055
     22  C4       -21.0580   -1.5360   15.8330 C.2   500  NEA500      0.3518
@<TRIPOS>BOND
     1    15    14    1
     2    15    16    2
     3    14    13    1
     4    18    17    1
     5    11    10    1
     6    16    17    1
     7    16    22    1
     8    10     8    1
     9    10    12    1
    10    17    19    2
    11    13    22    1
    12    13    12    1
    13     8     6    1
    14     8     9    1
    15    22    21    2
    16    12     7    1
    17     5     6    1
    18     5     4    1
    19    19    20    1
    20     7     6    1
    21     4     3    1
    22    21    20    1
    23     3     2    1
    24     2     1    1
