@<TRIPOS>MOLECULE
1g3b_108_A_1.pdb
 17 17 0 0 0
SMALL
GASTEIGER

@<TRIPOS>ATOM
      1  C1        44.1090   -2.9930   26.0760 C.ar  601  108601      0.0977
      2  C2        43.2660   -3.5420   27.0310 C.ar  601  108601      0.0127
      3  C3        43.0600   -2.9090   28.2600 C.ar  601  108601      0.0579
      4  C4        43.7190   -1.7020   28.5170 C.ar  601  108601      0.1971
      5  C5        44.5590   -1.1660   27.5490 C.ar  601  108601      0.0423
      6  C6        44.7500   -1.8000   26.3490 C.ar  601  108601      0.0113
      7  C7        42.1620   -3.5280   29.2170 C.2   601  108601      0.0969
      8  C8        44.3430   -3.6710   24.8260 C.2   601  108601      0.4766
      9  O1        43.6110   -0.9890   29.6540 O.3   601  108601     -0.2865
     10  N1        44.8000   -2.9900   23.7840 N.pl3 601  108601      0.2047
     11  N2        44.1020   -4.9700   24.7200 N.pl3 601  108601      0.2047
     12  N         41.8780   -3.0520   30.3930 N.2   601  108601     -0.2593
     13  CA        40.9480   -3.8090   31.2190 C.3   601  108601      0.2057
     14  CB        41.6450   -5.0310   31.8120 C.3   601  108601      0.0385
     15  C         40.3980   -2.9300   32.3310 C.2   601  108601      0.3866
     16  O         39.3270   -3.2390   32.8580 O.co2 601  108601     -0.2435
     17  OXT       41.1050   -1.9020   32.6520 O.co2 601  108601     -0.2435
@<TRIPOS>BOND
     1    10     8    2
     2    11     8    1
     3     8     1    1
     4     1     6   ar
     5     1     2   ar
     6     6     5   ar
     7     2     3   ar
     8     5     4   ar
     9     3     4   ar
    10     3     7    1
    11     4     9    1
    12     7    12    2
    13    12    13    1
    14    13    14    1
    15    13    15    1
    16    15    17   ar
    17    15    16   ar
