@<TRIPOS>MOLECULE
1g3c_109_A_1.pdb
 17 17 0 0 0
SMALL
GASTEIGER

@<TRIPOS>ATOM
      1  C1        43.7760   -2.9840   26.3340 C.ar  601  109601      0.1007
      2  C2        42.6870   -3.4910   27.0250 C.ar  601  109601      0.0501
      3  C3        42.1470   -2.8120   28.1190 C.ar  601  109601      0.1974
      4  C4        42.7050   -1.5930   28.5210 C.ar  601  109601      0.0576
      5  C5        43.8020   -1.0980   27.8230 C.ar  601  109601      0.0050
      6  C6        44.3300   -1.7810   26.7420 C.ar  601  109601      0.0082
      7  C7        42.1720   -0.8230   29.6300 C.2   601  109601      0.0969
      8  C8        44.3230   -3.6950   25.1950 C.2   601  109601      0.4767
      9  O1        41.0910   -3.4080   28.7090 O.3   601  109601     -0.2865
     10  N1        44.3660   -5.0210   25.1850 N.pl3 601  109601      0.2047
     11  N2        44.7760   -3.0120   24.1510 N.pl3 601  109601      0.2047
     12  N         41.1490   -1.1790   30.3540 N.2   601  109601     -0.2593
     13  CA        40.7150   -0.2720   31.4140 C.3   601  109601      0.2057
     14  CB        39.8550    0.8360   30.8140 C.3   601  109601      0.0385
     15  C         39.9250   -1.0200   32.4830 C.2   601  109601      0.3866
     16  O         39.9130   -0.5670   33.6350 O.co2 601  109601     -0.2435
     17  OXT       39.3100   -2.0870   32.1030 O.co2 601  109601     -0.2435
@<TRIPOS>BOND
     1    11     8    2
     2    10     8    1
     3     8     1    1
     4     1     6   ar
     5     1     2   ar
     6     6     5   ar
     7     2     3   ar
     8     5     4   ar
     9     3     4   ar
    10     3     9    1
    11     4     7    1
    12     7    12    2
    13    12    13    1
    14    14    13    1
    15    13    15    1
    16    17    15   ar
    17    15    16   ar
