@<TRIPOS>MOLECULE
1g3d_108_A_1.pdb
 17 17 0 0 0
SMALL
GASTEIGER

@<TRIPOS>ATOM
      1  C1        43.9870   -2.6970   26.3260 C.ar  601  108601      0.0977
      2  C2        43.3470   -3.2410   27.4360 C.ar  601  108601      0.0127
      3  C3        43.1980   -2.5080   28.6200 C.ar  601  108601      0.0579
      4  C4        43.7030   -1.2100   28.6780 C.ar  601  108601      0.1971
      5  C5        44.3390   -0.6740   27.5640 C.ar  601  108601      0.0423
      6  C6        44.4800   -1.4050   26.4040 C.ar  601  108601      0.0113
      7  C7        42.5220   -3.1200   29.7500 C.2   601  108601      0.0969
      8  C8        44.2130   -3.4920   25.1320 C.2   601  108601      0.4766
      9  O1        43.6210   -0.4010   29.7540 O.3   601  108601     -0.2865
     10  N1        44.6130   -2.9060   24.0120 N.pl3 601  108601      0.2047
     11  N2        44.0270   -4.8040   25.1560 N.pl3 601  108601      0.2047
     12  N         42.3180   -2.5430   30.9020 N.2   601  108601     -0.2593
     13  CA        41.6190   -3.3180   31.9250 C.3   601  108601      0.2057
     14  CB        42.5800   -4.2920   32.5890 C.3   601  108601      0.0385
     15  C         40.9930   -2.4060   32.9730 C.2   601  108601      0.3866
     16  O         40.2610   -2.9110   33.8330 O.co2 601  108601     -0.2435
     17  OXT       41.2740   -1.1530   32.8900 O.co2 601  108601     -0.2435
@<TRIPOS>BOND
     1    10     8    2
     2     8    11    1
     3     8     1    1
     4     1     6   ar
     5     1     2   ar
     6     6     5   ar
     7     2     3   ar
     8     5     4   ar
     9     3     4   ar
    10     3     7    1
    11     4     9    1
    12     7    12    2
    13    12    13    1
    14    13    14    1
    15    13    15    1
    16    17    15   ar
    17    15    16   ar
