@<TRIPOS>MOLECULE
1g3e_109_A_1.pdb
 17 17 0 0 0
SMALL
GASTEIGER

@<TRIPOS>ATOM
      1  C1        43.9090   -3.0280   26.3020 C.ar  601  109601      0.1007
      2  C2        43.0610   -3.6520   27.2020 C.ar  601  109601      0.0501
      3  C3        42.6050   -2.9890   28.3410 C.ar  601  109601      0.1974
      4  C4        43.0120   -1.6730   28.5850 C.ar  601  109601      0.0576
      5  C5        43.8640   -1.0600   27.6730 C.ar  601  109601      0.0050
      6  C6        44.3080   -1.7270   26.5500 C.ar  601  109601      0.0082
      7  C7        42.5750   -0.9240   29.7480 C.2   601  109601      0.0969
      8  C8        44.2750   -3.6840   25.0640 C.2   601  109601      0.4767
      9  O1        41.7830   -3.7040   29.1340 O.3   601  109601     -0.2865
     10  N1        44.6660   -2.9650   24.0210 N.pl3 601  109601      0.2047
     11  N2        44.2170   -5.0050   24.9720 N.pl3 601  109601      0.2047
     12  N         41.7780   -1.3900   30.6640 N.2   601  109601     -0.2593
     13  CA        41.4160   -0.5250   31.7830 C.3   601  109601      0.2057
     14  CB        40.0620    0.1260   31.5190 C.3   601  109601      0.0385
     15  C         41.3650   -1.3380   33.0730 C.2   601  109601      0.3866
     16  O         42.1840   -1.0980   33.9710 O.co2 601  109601     -0.2435
     17  OXT       40.4490   -2.2430   33.1320 O.co2 601  109601     -0.2435
@<TRIPOS>BOND
     1    10     8    2
     2    11     8    1
     3     8     1    1
     4     1     6   ar
     5     1     2   ar
     6     6     5   ar
     7     2     3   ar
     8     5     4   ar
     9     3     4   ar
    10     3     9    1
    11     4     7    1
    12     7    12    2
    13    12    13    1
    14    14    13    1
    15    13    15    1
    16    15    17   ar
    17    15    16   ar
