@<TRIPOS>MOLECULE
1g3i_ATP_A_1.pdb
 31 33 0 0 0
SMALL
GASTEIGER

@<TRIPOS>ATOM
      1  PG       178.8540   82.5270  121.8620 P.3   450  ATP450      0.5373
      2  O1G      178.9040   83.7810  120.9890 O.2   450  ATP450     -0.2221
      3  O2G      177.9620   82.5810  123.1080 O.3   450  ATP450     -0.1143
      4  O3G      178.8460   81.2070  121.1080 O.3   450  ATP450     -0.1143
      5  PB       180.9820   83.6560  123.6050 P.3   450  ATP450      0.2277
      6  O1B      181.7160   84.7340  122.8750 O.2   450  ATP450     -0.5168
      7  O2B      179.8950   84.0280  124.5560 O.3   450  ATP450     -0.4368
      8  O3B      180.3330   82.6050  122.5640 O.3   450  ATP450     -0.2258
      9  PA       181.8420   82.2560  125.9040 P.3   450  ATP450      0.2189
     10  O1A      180.3980   81.8970  125.9740 O.2   450  ATP450     -0.5170
     11  O2A      182.4660   83.1110  126.9670 O.3   450  ATP450     -0.4371
     12  O3A      182.0550   82.8400  124.4410 O.3   450  ATP450     -0.2700
     13  O5'      182.6060   80.8860  125.9120 O.3   450  ATP450     -0.3112
     14  C5'      184.0050   80.8450  125.9190 C.3   450  ATP450      0.1813
     15  C4'      184.4640   79.7460  126.8230 C.3   450  ATP450      0.1821
     16  O4'      185.8880   79.6850  126.6990 O.3   450  ATP450     -0.3135
     17  C3'      184.1790   80.0030  128.2920 C.3   450  ATP450      0.2184
     18  O3'      184.0930   78.8110  129.0520 O.3   450  ATP450     -0.2174
     19  C2'      185.3860   80.8020  128.7440 C.3   450  ATP450      0.2570
     20  O2'      185.7260   80.3250  130.0290 O.3   450  ATP450     -0.2130
     21  C1'      186.4780   80.4110  127.7440 C.3   450  ATP450      0.3186
     22  N9       187.1060   81.5760  127.1160 N.pl3 450  ATP450     -0.1439
     23  C8       186.9310   82.0010  125.8190 C.3   450  ATP450      0.3377
     24  N7       187.6880   83.0110  125.4850 N.2   450  ATP450     -0.2095
     25  C5       188.3900   83.2860  126.6430 C.2   450  ATP450      0.2526
     26  C6       189.3560   84.2190  126.9270 C.2   450  ATP450      0.4393
     27  N6       189.8160   85.0840  126.0480 N.pl3 450  ATP450      0.2180
     28  N1       189.8520   84.2410  128.1650 N.2   450  ATP450      0.0021
     29  C2       189.3860   83.3640  129.0570 C.3   450  ATP450      0.5254
     30  N3       188.4770   82.4250  128.9110 N.2   450  ATP450     -0.0055
     31  C4       188.0160   82.4340  127.6620 C.2   450  ATP450      0.3518
@<TRIPOS>BOND
     1     2     1    2
     2     4     1    1
     3     1     8    1
     4     1     3    1
     5     8     5    1
     6     6     5    2
     7     5    12    1
     8     5     7    1
     9    12     9    1
    10    24    23    1
    11    24    25    2
    12    23    22    1
    13     9    13    1
    14     9    10    2
    15     9    11    1
    16    13    14    1
    17    14    15    1
    18    27    26    1
    19    25    26    1
    20    25    31    1
    21    16    15    1
    22    16    21    1
    23    15    17    1
    24    26    28    2
    25    22    31    1
    26    22    21    1
    27    31    30    2
    28    21    19    1
    29    28    29    1
    30    17    19    1
    31    17    18    1
    32    19    20    1
    33    30    29    1
