@<TRIPOS>MOLECULE
1g3l_TRH_A_1.pdb
 35 37 0 0 0
SMALL
GASTEIGER

@<TRIPOS>ATOM
      1  O4P      -22.5230   83.0750   28.9850 O.2   500  TRH500     -0.5170
      2  P2       -21.4740   82.1490   29.7400 P.3   500  TRH500      0.2208
      3  O3P      -21.9410   81.5540   31.1500 O.3   500  TRH500     -0.4371
      4  O1       -21.0080   80.9120   28.8300 O.3   500  TRH500     -0.2857
      5  C1       -21.1930   80.5920   27.4230 C.3   500  TRH500      0.2741
      6  C2       -22.6740   80.3080   27.2280 C.3   500  TRH500      0.2409
      7  O2       -23.0980   79.2170   28.0860 O.3   500  TRH500     -0.2149
      8  C3       -22.8860   80.0520   25.7250 C.3   500  TRH500      0.2197
      9  O3       -24.2220   79.6390   25.5270 O.3   500  TRH500     -0.2174
     10  C4       -21.8730   79.0830   25.0920 C.3   500  TRH500      0.2118
     11  O4       -21.8820   79.1040   23.6710 O.3   500  TRH500     -0.2177
     12  C5       -20.4690   79.5010   25.4110 C.3   500  TRH500      0.1508
     13  O5       -20.6170   79.4950   26.7520 O.3   500  TRH500     -0.3281
     14  C6       -19.3140   78.5460   25.2210 C.3   500  TRH500      0.0350
     15  OPP      -20.0790   82.8980   29.9290 O.3   500  TRH500     -0.2703
     16  P        -19.0170   82.6200   31.0960 P.3   500  TRH500      0.2189
     17  O1P      -18.6750   81.1050   31.2780 O.2   500  TRH500     -0.5170
     18  O2P      -19.3300   83.6100   32.2950 O.3   500  TRH500     -0.4371
     19  O5'      -17.6950   83.2390   30.4870 O.3   500  TRH500     -0.3112
     20  C5'      -17.1690   82.7540   29.2660 C.3   500  TRH500      0.1812
     21  C4'      -15.7630   83.2880   29.1690 C.3   500  TRH500      0.1773
     22  O4'      -16.1120   84.5700   28.7440 O.3   500  TRH500     -0.3339
     23  C3'      -14.9550   83.6360   30.3880 C.3   500  TRH500      0.1857
     24  O3'      -13.5830   83.4340   30.0820 O.3   500  TRH500     -0.2203
     25  C2'      -15.0670   85.0990   30.5650 C.3   500  TRH500      0.0874
     26  C1'      -15.3870   85.6980   29.2150 C.3   500  TRH500      0.2090
     27  N11      -16.2940   86.8030   29.3080 N.am  500  TRH500     -0.1794
     28  C21      -15.9840   88.0180   28.8840 C.1   500  TRH500      0.2844
     29  O21      -14.7600   88.2080   28.4690 O.2   500  TRH500     -0.1918
     30  N31      -16.8820   88.9990   28.9090 N.2   500  TRH500     -0.2455
     31  C41      -18.1230   88.7300   29.3430 C.1   500  TRH500      0.2134
     32  O41      -19.1090   89.6370   29.4170 O.2   500  TRH500     -0.2088
     33  C51      -18.4500   87.4790   29.7620 C.2   500  TRH500      0.0891
     34  C5A      -19.8290   87.1990   30.2490 C.3   500  TRH500      0.0462
     35  C61      -17.5150   86.4940   29.7200 C.2   500  TRH500      0.0877
@<TRIPOS>BOND
     1    11    10    1
     2    10    12    1
     3    10     8    1
     4    14    12    1
     5    12    13    1
     6     9     8    1
     7     8     6    1
     8    13     5    1
     9     6     5    1
    10     6     7    1
    11     5     4    1
    12    29    28    2
    13    22    21    1
    14    22    26    1
    15     4     2    1
    16    28    30    2
    17    28    27   am
    18    30    31    2
    19     1     2    2
    20    21    20    1
    21    21    23    1
    22    26    27    1
    23    26    25    1
    24    20    19    1
    25    27    35    1
    26    31    32    2
    27    31    33    1
    28    35    33    2
    29     2    15    1
    30     2     3    1
    31    33    34    1
    32    15    16    1
    33    24    23    1
    34    23    25    1
    35    19    16    1
    36    16    17    2
    37    16    18    1
