@<TRIPOS>MOLECULE
1g3m_PCQ_A_1.pdb
 18 19 0 0 0
SMALL
GASTEIGER

@<TRIPOS>ATOM
      1 CL1        -8.1240   -9.4560   34.1260 Cl    712  PCQ712     -0.0789
      2 CL2        -7.2150  -14.7870   35.1060 Cl    712  PCQ712     -0.0789
      3  O1        -7.1510  -11.8580   35.7760 O.3   712  PCQ712     -0.2848
      4  C1        -8.9380  -12.8800   31.9690 C.ar  712  PCQ712      0.0019
      5  C2        -8.8220  -11.4180   32.4330 C.ar  712  PCQ712      0.0147
      6  C3        -8.2330  -11.1120   33.6770 C.ar  712  PCQ712      0.0973
      7  C4        -7.7200  -12.1330   34.5670 C.ar  712  PCQ712      0.2165
      8  C5        -7.8260  -13.5150   34.1140 C.ar  712  PCQ712      0.0973
      9  C6        -8.4090  -13.8690   32.8750 C.ar  712  PCQ712      0.0147
     10 CL3        -9.1830  -16.2480   27.9290 Cl    712  PCQ712     -0.0789
     11 CL4       -12.3370  -11.8260   27.9930 Cl    712  PCQ712     -0.0789
     12  O1'      -11.2920  -14.3350   26.8340 O.3   712  PCQ712     -0.2848
     13  C1'       -9.5590  -13.2520   30.6390 C.ar  712  PCQ712      0.0019
     14  C2'       -9.1570  -14.4520   29.9390 C.ar  712  PCQ712      0.0147
     15  C3'       -9.7270  -14.8070   28.6890 C.ar  712  PCQ712      0.0973
     16  C4'      -10.7280  -14.0130   28.0410 C.ar  712  PCQ712      0.2165
     17  C5'      -11.1400  -12.8130   28.7280 C.ar  712  PCQ712      0.0973
     18  C6'      -10.5830  -12.4290   29.9880 C.ar  712  PCQ712      0.0147
@<TRIPOS>BOND
     1    12    16    1
     2    10    15    1
     3    11    17    1
     4    16    15   ar
     5    16    17   ar
     6    15    14   ar
     7    17    18   ar
     8    14    13   ar
     9    18    13   ar
    10    13     4    1
    11     4     5   ar
    12     4     9   ar
    13     5     6   ar
    14     9     8   ar
    15     6     1    1
    16     6     7   ar
    17     8     7   ar
    18     8     2    1
    19     7     3    1
