@<TRIPOS>MOLECULE
1g3m_A3P_A_1.pdb
 27 29 0 0 0
SMALL
GASTEIGER

@<TRIPOS>ATOM
      1  P1         4.8080  -10.8060   36.1950 P.3   701  A3P701      0.5327
      2  O1P        5.4920   -9.5170   36.4280 O.3   701  A3P701     -0.1145
      3  O2P        5.7520  -11.9380   36.3480 O.3   701  A3P701     -0.1145
      4  O3P        4.1340  -10.8590   34.8710 O.2   701  A3P701     -0.2224
      5  P2        -2.3130  -11.7680   38.6430 P.3   701  A3P701      0.5327
      6  O4P       -2.8690  -11.9650   37.2880 O.2   701  A3P701     -0.2224
      7  O5P       -3.0040  -10.6830   39.3570 O.3   701  A3P701     -0.1145
      8  O6P       -2.3200  -13.0280   39.4100 O.3   701  A3P701     -0.1145
      9  O5'       -0.8070  -11.3020   38.4900 O.3   701  A3P701     -0.2675
     10  C5'        0.1740  -12.0430   37.7790 C.3   701  A3P701      0.1859
     11  C4'        1.5310  -11.5000   38.1950 C.3   701  A3P701      0.1796
     12  O4'        1.7980  -11.9720   39.5540 O.3   701  A3P701     -0.3136
     13  C3'        2.6930  -11.9890   37.3470 C.3   701  A3P701      0.1928
     14  O3'        3.6780  -10.9460   37.3160 O.3   701  A3P701     -0.2673
     15  C2'        3.1270  -13.2190   38.1030 C.3   701  A3P701      0.2543
     16  O2'        4.4150  -13.7190   37.8120 O.3   701  A3P701     -0.2131
     17  C1'        3.0080  -12.7050   39.5480 C.3   701  A3P701      0.3185
     18  N9         2.9740  -13.7920   40.5150 N.pl3 701  A3P701     -0.1439
     19  C8         2.1050  -14.8490   40.5930 C.3   701  A3P701      0.3377
     20  N7         2.3430  -15.6750   41.5800 N.2   701  A3P701     -0.2095
     21  C5         3.4470  -15.1230   42.1970 C.2   701  A3P701      0.2526
     22  C6         4.2410  -15.5260   43.3530 C.2   701  A3P701      0.4393
     23  N6         3.9870  -16.6160   44.0680 N.pl3 701  A3P701      0.2180
     24  N1         5.2960  -14.7340   43.7040 N.2   701  A3P701      0.0021
     25  C2         5.5720  -13.6190   42.9860 C.3   701  A3P701      0.5254
     26  N3         4.9140  -13.1430   41.8990 N.2   701  A3P701     -0.0055
     27  C4         3.8560  -13.9510   41.5570 C.2   701  A3P701      0.3518
@<TRIPOS>BOND
     1     4     1    2
     2     1     3    1
     3     1     2    1
     4     1    14    1
     5     6     5    2
     6    14    13    1
     7    13    15    1
     8    13    11    1
     9    10    11    1
    10    10     9    1
    11    16    15    1
    12    15    17    1
    13    11    12    1
    14     9     5    1
    15     5     7    1
    16     5     8    1
    17    17    12    1
    18    17    18    1
    19    18    19    1
    20    18    27    1
    21    19    20    1
    22    27    26    2
    23    27    21    1
    24    20    21    2
    25    26    25    1
    26    21    22    1
    27    25    24    1
    28    22    24    2
    29    22    23    1
