@<TRIPOS>MOLECULE
1g3q_ADP_A_1.pdb
 27 29 0 0 0
SMALL
GASTEIGER

@<TRIPOS>ATOM
      1  PB        33.3590   56.6870   52.1870 P.3   238  ADP238      0.5373
      2  O1B       34.5470   56.9850   51.4140 O.2   238  ADP238     -0.2221
      3  O2B       32.8760   55.3360   51.8610 O.3   238  ADP238     -0.1143
      4  O3B       33.4810   56.8620   53.8300 O.3   238  ADP238     -0.1143
      5  PA        31.5050   58.8100   52.4390 P.3   238  ADP238      0.2231
      6  O1A       32.3410   59.9070   52.7840 O.2   238  ADP238     -0.5169
      7  O2A       30.7200   58.3130   53.5380 O.3   238  ADP238     -0.4370
      8  O3A       32.2370   57.6660   51.7630 O.3   238  ADP238     -0.2261
      9  O5'       30.5610   59.3240   51.3880 O.3   238  ADP238     -0.3111
     10  C5'       31.0040   59.9190   50.1080 C.3   238  ADP238      0.1813
     11  C4'       30.1950   61.1100   49.7400 C.3   238  ADP238      0.1821
     12  O4'       28.8680   60.7340   49.2720 O.3   238  ADP238     -0.3135
     13  C3'       29.9330   62.0680   50.8590 C.3   238  ADP238      0.2184
     14  O3'       30.1530   63.4090   50.4290 O.3   238  ADP238     -0.2174
     15  C2'       28.4980   61.8940   51.2540 C.3   238  ADP238      0.2570
     16  O2'       27.8370   63.0630   51.7330 O.3   238  ADP238     -0.2130
     17  C1'       27.8290   61.3950   50.0450 C.3   238  ADP238      0.3186
     18  N9        26.8130   60.3370   50.3020 N.pl3 238  ADP238     -0.1439
     19  C8        26.8840   59.0900   50.9430 C.3   238  ADP238      0.3377
     20  N7        25.7730   58.4130   50.9860 N.2   238  ADP238     -0.2095
     21  C5        24.8800   59.2360   50.3380 C.2   238  ADP238      0.2526
     22  C6        23.4940   59.1010   50.0410 C.2   238  ADP238      0.4393
     23  N6        22.8380   58.0030   50.4180 N.pl3 238  ADP238      0.2180
     24  N1        22.8590   60.1390   49.3550 N.2   238  ADP238      0.0021
     25  C2        23.5550   61.2560   48.9800 C.3   238  ADP238      0.5254
     26  N3        24.8720   61.4650   49.2230 N.2   238  ADP238     -0.0055
     27  C4        25.4840   60.4210   49.9060 C.2   238  ADP238      0.3518
@<TRIPOS>BOND
     1    25    26    1
     2    25    24    1
     3    26    27    2
     4    12    11    1
     5    12    17    1
     6    24    22    2
     7    11    10    1
     8    11    13    1
     9    27    18    1
    10    27    21    1
    11    22    21    1
    12    22    23    1
    13    17    18    1
    14    17    15    1
    15    10     9    1
    16    18    19    1
    17    21    20    2
    18    14    13    1
    19    13    15    1
    20    19    20    1
    21    15    16    1
    22     9     5    1
    23     2     1    2
    24     8     1    1
    25     8     5    1
    26     3     1    1
    27     1     4    1
    28     5     6    2
    29     5     7    1
