@<TRIPOS>MOLECULE
1g3r_ACP_A_1.pdb
 31 33 0 0 0
SMALL
GASTEIGER

@<TRIPOS>ATOM
      1  PG        83.5710  -12.8130  126.8170 P.3   238  ACP238      0.1295
      2  O1G       82.3230  -12.9490  126.1920 O.2   238  ACP238     -0.4595
      3  O2G       84.4880  -13.8760  126.4480 O.3   238  ACP238     -0.3567
      4  O3G       83.2620  -13.0290  128.2910 O.3   238  ACP238     -0.3567
      5  PB        83.7350   -9.9250  127.5970 P.3   238  ACP238      0.3815
      6  O1B       82.3830   -9.4900  127.3800 O.2   238  ACP238     -0.2547
      7  O2B       83.9860  -10.0750  129.0440 O.3   238  ACP238     -0.1391
      8  C3B       84.2030  -11.3320  126.7850 C.3   238  ACP238      0.1768
      9  PA        85.8410   -8.0440  127.7590 P.3   238  ACP238      0.2209
     10  O1A       86.9750   -8.8190  128.1070 O.2   238  ACP238     -0.5170
     11  O2A       85.3290   -7.2330  128.8410 O.3   238  ACP238     -0.4371
     12  O3A       84.7070   -8.8190  127.1310 O.3   238  ACP238     -0.2483
     13  O5'       86.3100   -7.1180  126.6770 O.3   238  ACP238     -0.3111
     14  C5'       86.9140   -7.5410  125.4100 C.3   238  ACP238      0.1813
     15  C4'       88.0690   -6.6750  125.0670 C.3   238  ACP238      0.1821
     16  O4'       87.6300   -5.3580  124.6200 O.3   238  ACP238     -0.3135
     17  C3'       89.0050   -6.3880  126.2080 C.3   238  ACP238      0.2184
     18  O3'       90.3690   -6.5320  125.8070 O.3   238  ACP238     -0.2174
     19  C2'       88.7440   -4.9800  126.6280 C.3   238  ACP238      0.2570
     20  O2'       89.8580   -4.2740  127.1500 O.3   238  ACP238     -0.2130
     21  C1'       88.2350   -4.3120  125.4190 C.3   238  ACP238      0.3186
     22  N9        87.1370   -3.3390  125.6680 N.pl3 238  ACP238     -0.1439
     23  C8        85.8990   -3.4570  126.3110 C.3   238  ACP238      0.3377
     24  N7        85.1790   -2.3740  126.3440 N.2   238  ACP238     -0.2095
     25  C5        85.9630   -1.4480  125.6830 C.2   238  ACP238      0.2526
     26  C6        85.7700   -0.0670  125.3680 C.2   238  ACP238      0.4393
     27  N6        84.6490    0.5470  125.7390 N.pl3 238  ACP238      0.2180
     28  N1        86.7780    0.6050  124.6710 N.2   238  ACP238      0.0021
     29  C2        87.9180   -0.0450  124.3000 C.3   238  ACP238      0.5254
     30  N3        88.1790   -1.3530  124.5590 N.2   238  ACP238     -0.0055
     31  C4        87.1650   -2.0040  125.2550 C.2   238  ACP238      0.3518
@<TRIPOS>BOND
     1    29    30    1
     2    29    28    1
     3    30    31    2
     4    16    15    1
     5    16    21    1
     6    28    26    2
     7    15    14    1
     8    15    17    1
     9    31    22    1
    10    31    25    1
    11    26    25    1
    12    26    27    1
    13    14    13    1
    14    21    22    1
    15    21    19    1
    16    22    23    1
    17    25    24    2
    18    18    17    1
    19     2     1    2
    20    17    19    1
    21    23    24    1
    22     3     1    1
    23    19    20    1
    24    13     9    1
    25     8     1    1
    26     8     5    1
    27     1     4    1
    28    12     5    1
    29    12     9    1
    30     6     5    2
    31     5     7    1
    32     9    10    2
    33     9    11    1
