@<TRIPOS>MOLECULE
1g3u_TMP_A_1.pdb
 21 22 0 0 0
SMALL
GASTEIGER

@<TRIPOS>ATOM
      1  P         26.3460   14.8580    8.4210 P.3   217  TMP217      0.5327
      2  O1P       27.4930   14.7610    9.4200 O.3   217  TMP217     -0.1145
      3  O2P       25.2140   15.5080    9.1330 O.3   217  TMP217     -0.1145
      4  O3P       27.1880   15.7020    7.6720 O.2   217  TMP217     -0.2224
      5  O5'       25.9120   13.3200    8.0950 O.3   217  TMP217     -0.2675
      6  C5'       24.9780   13.0900    7.0280 C.3   217  TMP217      0.1858
      7  C4'       23.7550   12.5510    7.6130 C.3   217  TMP217      0.1774
      8  O4'       23.8060   11.0970    7.6780 O.3   217  TMP217     -0.3339
      9  C3'       23.1930   13.0490    8.9650 C.3   217  TMP217      0.1857
     10  O3'       21.7780   13.3020    8.8720 O.3   217  TMP217     -0.2203
     11  C2'       23.4610   11.9160    9.9430 C.3   217  TMP217      0.0874
     12  C1'       23.5950   10.6680    9.0120 C.3   217  TMP217      0.2090
     13  N1        24.4520    9.5210    9.4000 N.am  217  TMP217     -0.1794
     14  C2        23.9640    8.2350    9.6140 C.1   217  TMP217      0.2844
     15  O2        22.7870    7.9110    9.5160 O.2   217  TMP217     -0.1918
     16  N3        24.9890    7.3350    9.9670 N.2   217  TMP217     -0.2455
     17  C4        26.3380    7.6320   10.0980 C.1   217  TMP217      0.2134
     18  O4        27.1690    6.7780   10.4080 O.2   217  TMP217     -0.2088
     19  C5        26.7540    9.0350    9.8380 C.2   217  TMP217      0.0891
     20  C5M       28.1850    9.3910    9.9640 C.3   217  TMP217      0.0462
     21  C6        25.7620    9.9210    9.4950 C.2   217  TMP217      0.0877
@<TRIPOS>BOND
     1     6     7    1
     2     6     5    1
     3     7     8    1
     4     7     9    1
     5     4     1    2
     6     8    12    1
     7     5     1    1
     8     1     3    1
     9     1     2    1
    10    10     9    1
    11     9    11    1
    12    12    13    1
    13    12    11    1
    14    13    21    1
    15    13    14   am
    16    21    19    2
    17    15    14    2
    18    14    16    2
    19    19    20    1
    20    19    17    1
    21    16    17    2
    22    17    18    2
