@<TRIPOS>MOLECULE
1g41_ADP_A_1.pdb
 27 29 0 0 0
SMALL
GASTEIGER

@<TRIPOS>ATOM
      1  PB        25.0570   22.3660   17.8080 P.3   450  ADP450      0.5373
      2  O1B       25.6060   20.9840   17.5460 O.3   450  ADP450     -0.1143
      3  O2B       23.6730   22.2760   18.5130 O.3   450  ADP450     -0.1143
      4  O3B       25.0450   23.2230   16.6050 O.2   450  ADP450     -0.2221
      5  PA        26.5540   22.4440   20.3260 P.3   450  ADP450      0.2231
      6  O1A       27.2570   23.5280   21.0070 O.3   450  ADP450     -0.4370
      7  O2A       25.3980   21.7830   20.9700 O.2   450  ADP450     -0.5169
      8  O3A       25.9480   23.0120   18.9180 O.3   450  ADP450     -0.2261
      9  O5'       27.5730   21.2720   19.9520 O.3   450  ADP450     -0.3111
     10  C5'       28.8430   21.5620   19.3400 C.3   450  ADP450      0.1813
     11  C4'       30.0640   21.1510   20.1770 C.3   450  ADP450      0.1821
     12  O4'       31.1830   21.9740   19.6490 O.3   450  ADP450     -0.3135
     13  C3'       30.0360   21.4560   21.6900 C.3   450  ADP450      0.2184
     14  O3'       30.6520   20.3770   22.4280 O.3   450  ADP450     -0.2174
     15  C2'       30.9370   22.7450   21.9080 C.3   450  ADP450      0.2570
     16  O2'       31.9190   22.5810   22.9730 O.3   450  ADP450     -0.2130
     17  C1'       31.7060   22.9190   20.5790 C.3   450  ADP450      0.3186
     18  N9        31.3920   24.3210   19.9960 N.pl3 450  ADP450     -0.1439
     19  C8        30.6410   24.5850   18.9290 C.3   450  ADP450      0.3377
     20  N7        30.5380   25.8270   18.6830 N.2   450  ADP450     -0.2095
     21  C5        31.2750   26.4580   19.6690 C.2   450  ADP450      0.2526
     22  C6        31.5740   27.8360   19.9720 C.2   450  ADP450      0.4393
     23  N6        31.1050   28.8750   19.2100 N.pl3 450  ADP450      0.2180
     24  N1        32.3600   28.0960   21.0610 N.2   450  ADP450      0.0021
     25  C2        32.8180   27.0840   21.8020 C.3   450  ADP450      0.5254
     26  N3        32.5900   25.7770   21.5920 N.2   450  ADP450     -0.0055
     27  C4        31.8100   25.5270   20.5070 C.2   450  ADP450      0.3518
@<TRIPOS>BOND
     1     4     1    2
     2     2     1    1
     3     1     3    1
     4     1     8    1
     5    20    19    1
     6    20    21    2
     7     8     5    1
     8    19    18    1
     9    23    22    1
    10    10     9    1
    11    10    11    1
    12    12    11    1
    13    12    17    1
    14    21    22    1
    15    21    27    1
    16     9     5    1
    17    22    24    2
    18    18    27    1
    19    18    17    1
    20    11    13    1
    21     5     7    2
    22     5     6    1
    23    27    26    2
    24    17    15    1
    25    24    25    1
    26    26    25    1
    27    13    15    1
    28    13    14    1
    29    15    16    1
