@<TRIPOS>MOLECULE
1g45_FSB_A_1.pdb
 21 22 0 0 0
SMALL
GASTEIGER

@<TRIPOS>ATOM
      1  C01       -3.9180    3.4410   14.6860 C.ar  555  FSB555      0.0059
      2  C02       -4.3030    2.2840   15.4070 C.ar  555  FSB555      0.0202
      3  C03       -5.6360    2.2460   15.9250 C.ar  555  FSB555      0.1251
      4  C04       -6.4850    3.3490   15.6910 C.ar  555  FSB555      0.0202
      5  C05       -6.0620    4.4710   14.9700 C.ar  555  FSB555      0.0059
      6  C06       -4.7860    4.5210   14.4700 C.ar  555  FSB555      0.0551
      7  C07       -4.3100    5.7250   13.6940 C.2   555  FSB555      0.2651
      8  O08       -5.0740    6.6390   13.5200 O.2   555  FSB555     -0.2684
      9  N09       -3.0260    5.7820   13.1970 N.am  555  FSB555     -0.1967
     10  C10       -2.4130    6.8690   12.4430 C.3   555  FSB555      0.1440
     11  S11       -6.1150    0.7670   16.8520 S.O2  555  FSB555      0.0935
     12  NP2       -5.6910   -0.5790   16.1580 N.3   555  FSB555      0.0392
     13  O13       -7.5940    1.0570   16.9230 O.2   555  FSB555     -0.1503
     14  O14       -5.5380    1.0750   18.1620 O.2   555  FSB555     -0.1503
     15  C15       -1.6820    7.8380   13.2000 C.ar  555  FSB555      0.0269
     16  C16       -2.2640    8.3240   14.4100 C.ar  555  FSB555     -0.0003
     17  C17       -1.6080    9.2860   15.2280 C.ar  555  FSB555     -0.0001
     18  C18       -0.3420    9.7690   14.8230 C.ar  555  FSB555      0.0023
     19  C19        0.2850    9.3050   13.6080 C.ar  555  FSB555      0.0294
     20  C20       -0.3940    8.3210   12.7780 C.ar  555  FSB555      0.1378
     21  F21        0.1690    7.8750   11.6460 F     555  FSB555     -0.2044
@<TRIPOS>BOND
     1    21    20    1
     2    10     9    1
     3    10    15    1
     4    20    15   ar
     5    20    19   ar
     6     9     7   am
     7    15    16   ar
     8     8     7    2
     9    19    18   ar
    10     7     6    1
    11    16    17   ar
    12     6     1   ar
    13     6     5   ar
    14     1     2   ar
    15    18    17   ar
    16     5     4   ar
    17     2     3   ar
    18     4     3   ar
    19     3    11    1
    20    12    11    1
    21    11    13    2
    22    11    14    2
