@<TRIPOS>MOLECULE
1g46_F2B_A_1.pdb
 22 23 0 0 0
SMALL
GASTEIGER

@<TRIPOS>ATOM
      1  C01       -3.7760    3.4840   14.8430 C.ar  555  F2B555      0.0059
      2  C02       -4.1720    2.3500   15.5910 C.ar  555  F2B555      0.0202
      3  C03       -5.5470    2.2440   15.9710 C.ar  555  F2B555      0.1251
      4  C04       -6.4400    3.2680   15.5950 C.ar  555  F2B555      0.0202
      5  C05       -5.9960    4.3740   14.8560 C.ar  555  F2B555      0.0059
      6  C06       -4.6820    4.4900   14.4760 C.ar  555  F2B555      0.0551
      7  C07       -4.2030    5.6770   13.6740 C.2   555  F2B555      0.2651
      8  O08       -4.9920    6.5560   13.3470 O.2   555  F2B555     -0.2684
      9  N09       -2.8760    5.7480   13.3320 N.am  555  F2B555     -0.1967
     10  C10       -2.1590    6.7810   12.5860 C.3   555  F2B555      0.1441
     11  S11       -6.0790    0.8210   16.8920 S.O2  555  F2B555      0.0935
     12  NP2       -5.6770   -0.5870   16.0830 N.3   555  F2B555      0.0392
     13  O13       -7.5130    1.0660   17.0180 O.2   555  F2B555     -0.1503
     14  O14       -5.4220    1.0020   18.1930 O.2   555  F2B555     -0.1503
     15  C15       -1.6020    7.8570   13.3630 C.ar  555  F2B555      0.0292
     16  C16       -1.9250    7.9340   14.7600 C.ar  555  F2B555     -0.0002
     17  C17       -1.3710    9.0150   15.5610 C.ar  555  F2B555      0.0022
     18  C18       -0.5050    9.9880   14.9340 C.ar  555  F2B555      0.0319
     19  C19       -0.1790    9.9230   13.5560 C.ar  555  F2B555      0.1671
     20  C20       -0.7250    8.8540   12.7540 C.ar  555  F2B555      0.1650
     21  F21        0.3700   10.5560   13.1960 F     555  F2B555     -0.2018
     22  F22       -0.4600    8.8140   11.6700 F     555  F2B555     -0.2021
@<TRIPOS>BOND
     1    22    20    1
     2    10     9    1
     3    10    15    1
     4    20    15   ar
     5    20    19   ar
     6    21    19    1
     7     9     7   am
     8     8     7    2
     9    15    16   ar
    10    19    18   ar
    11     7     6    1
    12     6     1   ar
    13     6     5   ar
    14    16    17   ar
    15     1     2   ar
    16     5     4   ar
    17    18    17   ar
    18     2     3   ar
    19     4     3   ar
    20     3    11    1
    21    12    11    1
    22    11    13    2
    23    11    14    2
