@<TRIPOS>MOLECULE
1g48_F6B_A_1.pdb
 22 23 0 0 0
SMALL
GASTEIGER

@<TRIPOS>ATOM
      1  C01       -3.7940    3.5380   14.8550 C.ar  555  F6B555      0.0059
      2  C02       -4.2120    2.3990   15.5800 C.ar  555  F6B555      0.0202
      3  C03       -5.5880    2.2540   15.9480 C.ar  555  F6B555      0.1251
      4  C04       -6.4670    3.2680   15.5780 C.ar  555  F6B555      0.0202
      5  C05       -6.0260    4.3810   14.8680 C.ar  555  F6B555      0.0059
      6  C06       -4.7020    4.5370   14.4920 C.ar  555  F6B555      0.0551
      7  C07       -4.2770    5.7680   13.6970 C.2   555  F6B555      0.2651
      8  O08       -5.1880    6.5530   13.4440 O.2   555  F6B555     -0.2684
      9  N09       -2.9710    6.0990   13.2190 N.am  555  F6B555     -0.1966
     10  C10       -2.7940    7.5340   12.9470 C.3   555  F6B555      0.1463
     11  S11       -6.0930    0.7770   16.8530 S.O2  555  F6B555      0.0935
     12  NP2       -5.6120   -0.6010   16.0100 N.3   555  F6B555      0.0392
     13  O13       -7.5340    0.9560   16.9790 O.2   555  F6B555     -0.1503
     14  O14       -5.4420    0.9540   18.1540 O.2   555  F6B555     -0.1503
     15  C15       -1.6920    8.2620   13.4360 C.ar  555  F6B555      0.0544
     16  C16       -0.4240    8.1310   12.7780 C.ar  555  F6B555      0.1400
     17  C17        0.6970    8.8860   13.2940 C.ar  555  F6B555      0.0295
     18  C18        0.5280    9.7520   14.4460 C.ar  555  F6B555      0.0046
     19  C19       -0.7560    9.8670   15.0900 C.ar  555  F6B555      0.0295
     20  C20       -1.8630    9.1280   14.5920 C.ar  555  F6B555      0.1400
     21  F21       -0.2750    7.3300   11.7140 F     555  F6B555     -0.2044
     22  F22       -3.0470    9.2520   15.2070 F     555  F6B555     -0.2044
@<TRIPOS>BOND
     1    21    16    1
     2    16    17   ar
     3    16    15   ar
     4    10     9    1
     5    10    15    1
     6     9     7   am
     7    17    18   ar
     8    15    20   ar
     9     8     7    2
    10     7     6    1
    11    18    19   ar
    12     6     1   ar
    13     6     5   ar
    14    20    19   ar
    15    20    22    1
    16     1     2   ar
    17     5     4   ar
    18     4     3   ar
    19     2     3   ar
    20     3    11    1
    21    12    11    1
    22    11    13    2
    23    11    14    2
