@<TRIPOS>MOLECULE
1g49_111_B_1.pdb
 28 29 0 0 0
SMALL
GASTEIGER

@<TRIPOS>ATOM
      1  O5         4.3950   55.0840   51.5310 O.2   901  111901     -0.1561
      2  S2         3.1250   54.1810   51.3220 S.O2  901  111901      0.0592
      3  O4         2.1900   54.2180   52.5890 O.2   901  111901     -0.1561
      4  C13        2.1730   54.7180   49.9180 C.3   901  111901      0.1975
      5  N2         3.6540   52.5500   51.1160 N.3   901  111901     -0.0819
      6  C17        2.9630   51.4970   51.8730 C.3   901  111901      0.1168
      7  C11        3.9190   50.5830   52.6640 C.3   901  111901      0.1155
      8  C9         2.1910   50.5610   50.9400 C.3   901  111901      0.0450
      9  C8         2.2670   49.1970   51.6050 C.3   901  111901      0.1259
     10  C20        1.1340   49.2230   52.6100 C.2   901  111901      0.1030
     11  OB         0.6970   50.4080   53.0830 O.2   901  111901     -0.5381
     12  NA         0.5450   48.0910   52.9570 N.am  901  111901     -0.2016
     13  OA        -0.6960   48.3180   53.5010 O.3   901  111901     -0.4026
     14  N1         3.6090   49.2190   52.1920 N.3   901  111901     -0.1493
     15  S1         4.1840   47.8170   53.0310 S.O2  901  111901      0.0636
     16  O1         3.7300   46.5320   52.2670 O.2   901  111901     -0.1528
     17  O2         5.7440   47.8370   52.9970 O.2   901  111901     -0.1528
     18  C1         3.6230   47.7150   54.6720 C.ar  901  111901      0.1224
     19  C2         3.9820   48.7310   55.5530 C.ar  901  111901      0.0230
     20  C3         3.6100   48.6780   56.8910 C.ar  901  111901      0.0383
     21  C4         2.8600   47.6070   57.3610 C.ar  901  111901      0.1386
     22  C5         2.5140   46.5770   56.5020 C.ar  901  111901      0.0383
     23  C6         2.8890   46.6280   55.1580 C.ar  901  111901      0.0230
     24  O3         2.5210   47.5680   58.5570 O.3   901  111901     -0.4755
     25  C7         3.3230   48.2770   59.5050 C.3   901  111901      0.2054
     26  C10        2.9470   47.9500   60.9270 C.3   901  111901      0.0473
     27  C12        3.2370   46.4960   61.3150 C.3   901  111901      0.0038
     28  C14        3.1450   45.5400   60.1490 C.3   901  111901      0.0001
@<TRIPOS>BOND
     1     4     2    1
     2     8     9    1
     3     8     6    1
     4     5     2    1
     5     5     6    1
     6     2     1    2
     7     2     3    2
     8     9    14    1
     9     9    10    1
    10     6     7    1
    11    14     7    1
    12    14    15    1
    13    16    15    2
    14    10    12   am
    15    10    11    2
    16    12    13    1
    17    17    15    2
    18    15    18    1
    19    18    23   ar
    20    18    19   ar
    21    23    22   ar
    22    19    20   ar
    23    22    21   ar
    24    20    21   ar
    25    21    24    1
    26    24    25    1
    27    25    26    1
    28    28    27    1
    29    26    27    1
