@<TRIPOS>MOLECULE
1g4a_DAT_E_1.pdb
 26 28 0 0 0
SMALL
GASTEIGER

@<TRIPOS>ATOM
      1  PB        17.5000   69.9570   37.7100 P.3   905  DAT905      0.5373
      2  O1B       16.6460   69.4180   36.6350 O.2   905  DAT905     -0.2221
      3  O2B       17.6920   69.1520   38.9620 O.3   905  DAT905     -0.1143
      4  O3B       16.9660   71.4050   38.0780 O.3   905  DAT905     -0.1143
      5  PA        19.3790   70.0860   35.5600 P.3   905  DAT905      0.2231
      6  O1A       18.6740   68.9000   34.9720 O.3   905  DAT905     -0.4370
      7  O2A       19.2780   71.4290   34.8600 O.2   905  DAT905     -0.5169
      8  O3A       18.8900   70.2690   37.0450 O.3   905  DAT905     -0.2261
      9  O5'       20.9320   69.7520   35.7950 O.3   905  DAT905     -0.3111
     10  C5'       21.9580   70.7430   35.7860 C.3   905  DAT905      0.1813
     11  C4'       23.1150   70.3240   34.8870 C.3   905  DAT905      0.1795
     12  O4'       23.8410   69.2430   35.5020 O.3   905  DAT905     -0.3155
     13  C3'       22.6990   69.8310   33.4830 C.3   905  DAT905      0.1883
     14  O3'       23.2360   70.6990   32.4950 O.3   905  DAT905     -0.2202
     15  C2'       23.2200   68.4130   33.3280 C.3   905  DAT905      0.1151
     16  C1'       23.9330   68.1050   34.6350 C.3   905  DAT905      0.2873
     17  N9        23.3770   66.9160   35.3600 N.pl3 905  DAT905     -0.1460
     18  C8        22.5940   66.9230   36.5000 C.3   905  DAT905      0.3377
     19  N7        22.2430   65.7340   36.9330 N.2   905  DAT905     -0.2095
     20  C5        22.8210   64.8710   36.0340 C.2   905  DAT905      0.2526
     21  C6        22.8360   63.4350   35.9130 C.2   905  DAT905      0.4393
     22  N6        22.2130   62.6230   36.7610 N.pl3 905  DAT905      0.2180
     23  N1        23.5400   62.8650   34.8540 N.2   905  DAT905      0.0021
     24  C2        24.1890   63.6990   33.9660 C.3   905  DAT905      0.5254
     25  N3        24.2400   65.0530   33.9820 N.2   905  DAT905     -0.0055
     26  C4        23.5340   65.5820   35.0420 C.2   905  DAT905      0.3518
@<TRIPOS>BOND
     1    14    13    1
     2    15    13    1
     3    15    16    1
     4    13    11    1
     5    24    25    1
     6    24    23    1
     7    25    26    2
     8    16    17    1
     9    16    12    1
    10    23    21    2
    11     7     5    2
    12    11    12    1
    13    11    10    1
    14     6     5    1
    15    26    17    1
    16    26    20    1
    17    17    18    1
    18     5     9    1
    19     5     8    1
    20    10     9    1
    21    21    20    1
    22    21    22    1
    23    20    19    2
    24    18    19    1
    25     2     1    2
    26     8     1    1
    27     1     4    1
    28     1     3    1
