@<TRIPOS>MOLECULE
1g4j_FFB_A_1.pdb
 25 26 0 0 0
SMALL
GASTEIGER

@<TRIPOS>ATOM
      1  C01       -3.7910    3.4140   14.8570 C.ar  555  FFB555      0.0059
      2  C02       -4.2600    2.3160   15.5700 C.ar  555  FFB555      0.0202
      3  C03       -5.6410    2.2290   15.8850 C.ar  555  FFB555      0.1251
      4  C04       -6.4870    3.2450   15.4460 C.ar  555  FFB555      0.0202
      5  C05       -5.9900    4.3270   14.7320 C.ar  555  FFB555      0.0059
      6  C06       -4.6480    4.4260   14.4440 C.ar  555  FFB555      0.0551
      7  C07       -4.1170    5.6280   13.7280 C.2   555  FFB555      0.2651
      8  O08       -4.9540    6.4720   13.4230 O.2   555  FFB555     -0.2684
      9  N09       -2.7550    5.8620   13.4360 N.am  555  FFB555     -0.1966
     10  C10       -2.3840    6.7140   12.3150 C.3   555  FFB555      0.1464
     11  S11       -6.2020    0.8280   16.8390 S.O2  555  FFB555      0.0935
     12  NP2       -5.7890   -0.5940   16.0600 N.3   555  FFB555      0.0392
     13  O13       -7.6480    1.0770   16.9330 O.2   555  FFB555     -0.1503
     14  O14       -5.5440    1.0340   18.1350 O.2   555  FFB555     -0.1503
     15  C15       -1.3870    7.6740   12.6900 C.ar  555  FFB555      0.0590
     16  C16       -1.5660    8.3690   13.9310 C.ar  555  FFB555      0.1696
     17  C17       -0.5680    9.3310   14.3390 C.ar  555  FFB555      0.1967
     18  C18        0.5830    9.5770   13.5040 C.ar  555  FFB555      0.1991
     19  C19        0.7500    8.8730   12.2650 C.ar  555  FFB555      0.1967
     20  C20       -0.2250    7.9230   11.8510 C.ar  555  FFB555      0.1696
     21  F21       -2.6310    8.1410   14.7120 F     555  FFB555     -0.2019
     22  F22       -0.7120    9.9940   15.4950 F     555  FFB555     -0.1993
     23  F23        1.5030   10.4710   13.8910 F     555  FFB555     -0.1993
     24  F24        1.8200    9.1010   11.4910 F     555  FFB555     -0.1993
     25  F25       -0.0430    7.2770   10.6910 F     555  FFB555     -0.2019
@<TRIPOS>BOND
     1    25    20    1
     2    24    19    1
     3    20    19   ar
     4    20    15   ar
     5    19    18   ar
     6    10    15    1
     7    10     9    1
     8    15    16   ar
     9     8     7    2
    10     9     7   am
    11    18    23    1
    12    18    17   ar
    13     7     6    1
    14    16    17   ar
    15    16    21    1
    16    17    22    1
    17     6     5   ar
    18     6     1   ar
    19     5     4   ar
    20     1     2   ar
    21     4     3   ar
    22     2     3   ar
    23     3    11    1
    24    12    11    1
    25    11    13    2
    26    11    14    2
