@<TRIPOS>MOLECULE
1g4k_HQQ_A_1.pdb
 23 25 0 0 0
SMALL
GASTEIGER

@<TRIPOS>ATOM
      1  N1        18.8820   30.3150   48.1300 N.2   306  HQQ306     -0.2351
      2  C2        18.6140   30.6800   49.4380 C.1   306  HQQ306      0.3752
      3  O2        18.9420   30.0180   50.4600 O.2   306  HQQ306     -0.1738
      4  N3        17.7000   31.6700   49.6550 N.2   306  HQQ306     -0.2351
      5  C4        17.4320   32.6420   48.7170 C.1   306  HQQ306      0.2111
      6  O4        16.4050   33.3020   48.9930 O.2   306  HQQ306     -0.2119
      7  C5        17.8880   32.3950   47.2630 C.3   306  HQQ306      0.2267
      8  C6        18.3950   30.9600   47.0320 C.1   306  HQQ306      0.2111
      9  O6        18.6510   30.6210   45.8620 O.2   306  HQQ306     -0.2119
     10  C7        16.7220   32.6850   46.2550 C.3   306  HQQ306      0.0404
     11  C8        19.1570   33.3550   47.2810 C.ar  306  HQQ306      0.0084
     12  C9        20.5060   32.8210   47.4360 C.ar  306  HQQ306      0.0010
     13  C10       21.6150   33.6940   47.4970 C.ar  306  HQQ306      0.0372
     14  C11       21.4640   35.0910   47.4480 C.ar  306  HQQ306      0.1453
     15  C12       20.1370   35.6460   47.3180 C.ar  306  HQQ306      0.0372
     16  C13       19.0120   34.7800   47.2240 C.ar  306  HQQ306      0.0010
     17  O11       22.6130   35.9220   47.4880 O.3   306  HQQ306     -0.4535
     18  C14       22.4020   37.3360   47.5980 C.ar  306  HQQ306      0.1453
     19  C15       23.0790   38.1890   46.6690 C.ar  306  HQQ306      0.0375
     20  C16       22.8540   39.6060   46.7280 C.ar  306  HQQ306      0.0031
     21  C17       21.9480   40.1060   47.7200 C.ar  306  HQQ306      0.0002
     22  C18       21.2530   39.2790   48.6340 C.ar  306  HQQ306      0.0031
     23  C19       21.4760   37.8700   48.5690 C.ar  306  HQQ306      0.0375
@<TRIPOS>BOND
     1     9     8    2
     2    10     7    1
     3    19    20   ar
     4    19    18   ar
     5    20    21   ar
     6     8     7    1
     7     8     1    2
     8    16    11   ar
     9    16    15   ar
    10     7    11    1
    11     7     5    1
    12    11    12   ar
    13    15    14   ar
    14    12    13   ar
    15    14    17    1
    16    14    13   ar
    17    17    18    1
    18    18    23   ar
    19    21    22   ar
    20     1     2    2
    21    23    22   ar
    22     5     6    2
    23     5     4    2
    24     2     4    2
    25     2     3    2
