@<TRIPOS>MOLECULE
1g4o_BSB_A_1.pdb
 20 21 0 0 0
SMALL
GASTEIGER

@<TRIPOS>ATOM
      1  C01       -3.8480    3.5450   14.6910 C.ar  555  BSB555      0.0059
      2  C02       -4.2370    2.3650   15.3650 C.ar  555  BSB555      0.0202
      3  C03       -5.5740    2.3350   15.9180 C.ar  555  BSB555      0.1251
      4  C04       -6.4120    3.4700   15.7530 C.ar  555  BSB555      0.0202
      5  C05       -5.9770    4.6190   15.0710 C.ar  555  BSB555      0.0059
      6  C06       -4.7000    4.6590   14.5450 C.ar  555  BSB555      0.0551
      7  C07       -4.1860    5.8880   13.8100 C.2   555  BSB555      0.2651
      8  O08       -4.9130    6.8570   13.6790 O.2   555  BSB555     -0.2684
      9  N09       -2.8950    5.8980   13.3010 N.am  555  BSB555     -0.1968
     10  C10       -2.2190    6.9700   12.5800 C.3   555  BSB555      0.1418
     11  S11       -6.0590    0.8320   16.7840 S.O2  555  BSB555      0.0935
     12  NP2       -5.6290   -0.5400   16.0950 N.3   555  BSB555      0.0392
     13  O13       -7.5390    1.0910   16.8390 O.2   555  BSB555     -0.1503
     14  O14       -5.5270    1.1290   18.0940 O.2   555  BSB555     -0.1503
     15  C15       -1.4690    7.9020   13.3820 C.ar  555  BSB555     -0.0006
     16  C16       -1.8430    8.0700   14.7660 C.ar  555  BSB555     -0.0026
     17  C17       -1.1590    8.9730   15.6310 C.ar  555  BSB555     -0.0003
     18  C18       -0.0750    9.7300   15.1060 C.ar  555  BSB555     -0.0000
     19  C19        0.3390    9.5950   13.7200 C.ar  555  BSB555     -0.0003
     20  C20       -0.3680    8.6670   12.8410 C.ar  555  BSB555     -0.0026
@<TRIPOS>BOND
     1    10     9    1
     2    10    15    1
     3    20    15   ar
     4    20    19   ar
     5     9     7   am
     6    15    16   ar
     7     8     7    2
     8    19    18   ar
     9     7     6    1
    10     6     1   ar
    11     6     5   ar
    12     1     2   ar
    13    16    17   ar
    14     5     4   ar
    15    18    17   ar
    16     2     3   ar
    17     4     3   ar
    18     3    11    1
    19    12    11    1
    20    11    13    2
    21    11    14    2
