@<TRIPOS>MOLECULE
1g4p_FQP_A_1.pdb
 21 21 0 0 0
SMALL
GASTEIGER

@<TRIPOS>ATOM
      1  N1A       15.3020   41.3910   14.7700 N.2   2001  FQP2001    -0.1795
      2  C2A       16.3890   41.0670   15.5430 C.1   2001  FQP2001     0.1609
      3  CM2       16.8610   39.6840   15.5090 C.3   2001  FQP2001     0.4892
      4  N3A       17.0050   41.9530   16.2950 N.2   2001  FQP2001    -0.3290
      5  C4A       16.5360   43.2550   16.3040 C.2   2001  FQP2001     0.2303
      6  N4A       17.1950   44.1010   17.0790 N.pl3 2001  FQP2001    -0.0924
      7  C5A       15.3840   43.6540   15.5000 C.2   2001  FQP2001     0.0755
      8  C6A       14.8090   42.6640   14.7520 C.2   2001  FQP2001     0.1126
      9  C7A       14.8250   45.0550   15.4690 C.3   2001  FQP2001     0.1811
     10  O2        16.6780   47.8920   14.0020 O.2   2001  FQP2001    -0.5169
     11  P1        15.5390   47.4650   14.8330 P.3   2001  FQP2001     0.2233
     12  O1        15.8100   45.9190   14.8670 O.3   2001  FQP2001    -0.3087
     13  O3        14.2160   47.8720   14.3430 O.3   2001  FQP2001    -0.4370
     14  O         15.6490   48.0750   16.2990 O.3   2001  FQP2001    -0.2261
     15  P2        16.5360   47.8460   17.5610 P.3   2001  FQP2001     0.5373
     16  O4        16.1930   46.4930   17.9670 O.3   2001  FQP2001    -0.1143
     17  O5        17.9340   48.0160   17.1240 O.2   2001  FQP2001    -0.2221
     18  O6        16.0090   48.8990   18.4630 O.3   2001  FQP2001    -0.1143
     19  F1        16.2310   38.9370   16.3900 F     2001  FQP2001    -0.1566
     20  F2        18.1430   39.6350   15.7820 F     2001  FQP2001    -0.1566
     21  F3        16.6500   39.1650   14.3180 F     2001  FQP2001    -0.1566
@<TRIPOS>BOND
     1    10    11    2
     2    21     3    1
     3    13    11    1
     4     8     1    1
     5     8     7    2
     6     1     2    2
     7    11    12    1
     8    11    14    1
     9    12     9    1
    10     9     7    1
    11     7     5    1
    12     3     2    1
    13     3    20    1
    14     3    19    1
    15     2     4    2
    16     4     5    2
    17    14    15    1
    18     5     6    1
    19    17    15    2
    20    15    16    1
    21    15    18    1
