@<TRIPOS>MOLECULE
1g4s_TPS_A_1.pdb
 22 23 0 0 0
SMALL
GASTEIGER

@<TRIPOS>ATOM
      1  CM2       16.9020   40.2710   15.4080 C.3   2001  TPS2001     0.1291
      2  N3        13.3570   45.0390   17.8500 N.pl3 2001  TPS2001    -0.2970
      3  C2        12.0840   44.8290   17.4640 C.3   2001  TPS2001     0.1543
      4  S1        11.0450   44.3930   18.7040 S.3   2001  TPS2001    -0.0951
      5  C5        12.3680   44.4900   19.8280 C.2   2001  TPS2001     0.0164
      6  C4        13.5400   44.8540   19.1960 C.2   2001  TPS2001     0.0279
      7  CM4       14.8840   45.0350   19.8800 C.3   2001  TPS2001     0.0473
      8  C6        12.1920   44.1980   21.3070 C.3   2001  TPS2001     0.0662
      9  C7        11.9300   42.7970   21.7560 C.3   2001  TPS2001     0.1590
     10  O7        11.8340   42.8460   23.2050 O.3   2001  TPS2001    -0.2699
     11  N1A       15.0950   41.8790   15.3260 N.2   2001  TPS2001    -0.1861
     12  C2A       16.3620   41.5750   15.7870 C.1   2001  TPS2001     0.0663
     13  N3A       17.0710   42.4030   16.5360 N.2   2001  TPS2001    -0.3368
     14  C4A       16.5350   43.6250   16.8930 C.2   2001  TPS2001     0.2292
     15  N4A       17.2910   44.4130   17.6430 N.pl3 2001  TPS2001    -0.0925
     16  C5A       15.1920   43.9990   16.4510 C.2   2001  TPS2001     0.0654
     17  C6A       14.5340   43.0830   15.6680 C.2   2001  TPS2001     0.1115
     18  C7A       14.5100   45.3210   16.8200 C.3   2001  TPS2001     0.1237
     19  P1        10.8790   41.8480   23.9890 P.3   2001  TPS2001     0.5326
     20  O1         9.5510   42.1480   23.3940 O.2   2001  TPS2001    -0.2224
     21  O2        11.0680   42.1130   25.4400 O.3   2001  TPS2001    -0.1145
     22  O3        11.4180   40.3820   23.6630 O.3   2001  TPS2001    -0.1145
@<TRIPOS>BOND
     1    11    17    1
     2    11    12    2
     3     1    12    1
     4    17    16    2
     5    12    13    2
     6    16    18    1
     7    16    14    1
     8    13    14    2
     9    18     2    1
    10    14    15    1
    11     3     2    1
    12     3     4    1
    13     2     6    1
    14     4     5    1
    15     6     5    2
    16     6     7    1
    17     5     8    1
    18     8     9    1
    19     9    10    1
    20    10    19    1
    21    20    19    2
    22    22    19    1
    23    19    21    1
