@<TRIPOS>MOLECULE
1g4t_FTP_A_1.pdb
 25 26 0 0 0
SMALL
GASTEIGER

@<TRIPOS>ATOM
      1  N1A       15.1790   41.5600   15.4690 N.2   2001  FTP2001    -0.1795
      2  C2A       16.4500   41.3000   15.9430 C.1   2001  FTP2001     0.1609
      3  CM2       16.9950   39.9810   15.6560 C.3   2001  FTP2001     0.4892
      4  N3A       17.1480   42.1750   16.6500 N.2   2001  FTP2001    -0.3290
      5  C4A       16.5930   43.4020   16.9480 C.2   2001  FTP2001     0.2295
      6  N4A       17.3320   44.2390   17.6660 N.pl3 2001  FTP2001    -0.0924
      7  C5A       15.2420   43.7280   16.4950 C.2   2001  FTP2001     0.0654
      8  C6A       14.6000   42.7670   15.7540 C.2   2001  FTP2001     0.1118
      9  C7A       14.5300   45.0380   16.8110 C.3   2001  FTP2001     0.1237
     10  N3        13.3740   44.7420   17.8620 N.pl3 2001  FTP2001    -0.2970
     11  C2        12.0960   44.5380   17.4880 C.3   2001  FTP2001     0.1543
     12  S1        11.0560   44.1250   18.7390 S.3   2001  FTP2001    -0.0951
     13  C5        12.3830   44.2220   19.8620 C.2   2001  FTP2001     0.0164
     14  C4        13.5580   44.5680   19.2190 C.2   2001  FTP2001     0.0279
     15  CM4       14.9010   44.7420   19.8990 C.3   2001  FTP2001     0.0473
     16  C6        12.2140   43.9490   21.3550 C.3   2001  FTP2001     0.0662
     17  C7        11.9330   42.5570   21.8400 C.3   2001  FTP2001     0.1590
     18  O7        11.7960   42.6310   23.2880 O.3   2001  FTP2001    -0.2699
     19  P1        10.8750   41.5890   24.0890 P.3   2001  FTP2001     0.5326
     20  O1         9.5120   41.8060   23.5150 O.2   2001  FTP2001    -0.2224
     21  O2        11.0620   41.8550   25.5300 O.3   2001  FTP2001    -0.1145
     22  O3        11.4660   40.1400   23.7800 O.3   2001  FTP2001    -0.1145
     23  F1        16.4520   39.0970   16.4840 F     2001  FTP2001    -0.1566
     24  F2        18.2990   39.9600   15.8550 F     2001  FTP2001    -0.1566
     25  F3        16.7060   39.5990   14.4350 F     2001  FTP2001    -0.1566
@<TRIPOS>BOND
     1    25     3    1
     2     1     8    1
     3     1     2    2
     4     3    24    1
     5     3     2    1
     6     3    23    1
     7     8     7    2
     8     2     4    2
     9     7     9    1
    10     7     5    1
    11     4     5    2
    12     9    10    1
    13     5     6    1
    14    11    10    1
    15    11    12    1
    16    10    14    1
    17    12    13    1
    18    14    13    2
    19    14    15    1
    20    13    16    1
    21    16    17    1
    22    17    18    1
    23    18    19    1
    24    20    19    2
    25    22    19    1
    26    19    21    1
