@<TRIPOS>MOLECULE
1g4u_GDP_R_1.pdb
 28 30 0 0 0
SMALL
GASTEIGER

@<TRIPOS>ATOM
      1  PB       -62.0500   48.7610  -41.6010 P.3   1000  GDP1000     0.5373
      2  O1B      -62.9260   49.5630  -42.4620 O.2   1000  GDP1000    -0.2221
      3  O2B      -61.6480   47.4610  -42.0300 O.3   1000  GDP1000    -0.1143
      4  O3B      -60.8350   49.6180  -41.1880 O.3   1000  GDP1000    -0.1143
      5  O3A      -62.6780   48.5590  -40.1930 O.3   1000  GDP1000    -0.2261
      6  PA       -62.7490   47.1760  -39.2790 P.3   1000  GDP1000     0.2231
      7  O1A      -63.4950   46.1010  -39.9710 O.2   1000  GDP1000    -0.5169
      8  O2A      -61.3060   46.8870  -38.9260 O.3   1000  GDP1000    -0.4370
      9  O5'      -63.5660   47.7120  -38.0630 O.3   1000  GDP1000    -0.3111
     10  C5'      -63.0540   48.7570  -37.1820 C.3   1000  GDP1000     0.1813
     11  C4'      -63.3680   48.5760  -35.7750 C.3   1000  GDP1000     0.1799
     12  O4'      -64.7750   48.9890  -35.4190 O.3   1000  GDP1000    -0.3326
     13  C3'      -63.3160   47.0840  -35.2700 C.3   1000  GDP1000     0.2158
     14  O3'      -62.0690   46.9810  -34.5260 O.3   1000  GDP1000    -0.2175
     15  C2'      -64.5460   46.8110  -34.3260 C.3   1000  GDP1000     0.2310
     16  O2'      -64.3310   46.8250  -32.9070 O.3   1000  GDP1000    -0.2158
     17  C1'      -65.5780   47.9210  -34.6880 C.3   1000  GDP1000     0.2293
     18  N9       -66.7670   47.4710  -35.4920 N.pl3 1000  GDP1000    -0.2354
     19  C8       -66.5710   47.0530  -36.8910 C.3   1000  GDP1000     0.2246
     20  N7       -67.9300   46.8000  -37.0900 N.2   1000  GDP1000    -0.2322
     21  C5       -68.8190   46.9820  -36.1420 C.2   1000  GDP1000     0.2182
     22  C6       -70.2020   46.9100  -35.8010 C.1   1000  GDP1000     0.2372
     23  O6       -71.0340   46.4960  -36.7780 O.2   1000  GDP1000    -0.2069
     24  N1       -70.7090   47.2250  -34.5910 N.2   1000  GDP1000    -0.2485
     25  C2       -69.7310   47.6960  -33.5280 C.1   1000  GDP1000     0.2531
     26  N2       -70.4120   47.9480  -32.4180 N.pl3 1000  GDP1000    -0.0226
     27  N3       -68.5070   47.7660  -33.7950 N.2   1000  GDP1000    -0.3074
     28  C4       -68.0470   47.4610  -35.0270 C.2   1000  GDP1000     0.2300
@<TRIPOS>BOND
     1     2     1    2
     2     3     1    1
     3     1     4    1
     4     1     5    1
     5     5     6    1
     6     7     6    2
     7     6     8    1
     8     6     9    1
     9     9    10    1
    10    10    11    1
    11    20    19    1
    12    20    21    2
    13    19    18    1
    14    23    22    2
    15    21    22    1
    16    21    28    1
    17    22    24    2
    18    11    12    1
    19    11    13    1
    20    18    28    1
    21    18    17    1
    22    12    17    1
    23    13    14    1
    24    13    15    1
    25    28    27    2
    26    17    15    1
    27    24    25    2
    28    15    16    1
    29    27    25    2
    30    25    26    1
