@<TRIPOS>MOLECULE
1g4v_PLP_A_1.pdb
 15 15 0 0 0
SMALL
GASTEIGER

@<TRIPOS>ATOM
      1  N1        26.7010    5.0810  -14.5150 N.ar  413  PLP413     -0.2452
      2  C2        26.1070    6.0050  -15.2580 C.ar  413  PLP413      0.0978
      3  C2A       26.7370    6.4140  -16.6270 C.3   413  PLP413      0.0555
      4  C3        24.9600    6.5740  -14.8310 C.ar  413  PLP413      0.2049
      5  O3        24.2600    7.4280  -15.6810 O.3   413  PLP413     -0.2857
      6  C4        24.3970    6.1660  -13.6370 C.ar  413  PLP413      0.0182
      7  C4A       23.0400    6.7290  -13.1820 C.3   413  PLP413      0.0342
      8  C5        25.0310    5.2310  -12.8920 C.ar  413  PLP413      0.0261
      9  C6        26.1790    4.6910  -13.3350 C.ar  413  PLP413      0.0965
     10  C5A       24.3380    4.5510  -11.7230 C.3   413  PLP413      0.1815
     11  O4P       23.7990    5.2810  -10.7260 O.3   413  PLP413     -0.2653
     12  P         22.8440    4.7350   -9.6110 P.3   413  PLP413      0.5329
     13  O1P       21.9770    3.7000  -10.0550 O.2   413  PLP413     -0.2224
     14  O2P       22.0590    6.0960   -9.4180 O.3   413  PLP413     -0.1145
     15  O3P       23.8140    4.4960   -8.5000 O.3   413  PLP413     -0.1145
@<TRIPOS>BOND
     1     3     2    1
     2     5     4    1
     3     2     4   ar
     4     2     1   ar
     5     4     6   ar
     6     1     9   ar
     7     6     7    1
     8     6     8   ar
     9     9     8   ar
    10     8    10    1
    11    10    11    1
    12    11    12    1
    13    13    12    2
    14    12    14    1
    15    12    15    1
