@<TRIPOS>MOLECULE
1g4x_PLP_A_1.pdb
 15 15 0 0 0
SMALL
GASTEIGER

@<TRIPOS>ATOM
      1  N1        26.7930    5.2650  -14.4460 N.ar  413  PLP413     -0.2452
      2  C2        26.1420    6.1090  -15.3010 C.ar  413  PLP413      0.0978
      3  C2A       26.7600    6.4170  -16.6520 C.3   413  PLP413      0.0555
      4  C3        24.9550    6.6990  -14.9240 C.ar  413  PLP413      0.2049
      5  O3        24.3170    7.5720  -15.7860 O.3   413  PLP413     -0.2857
      6  C4        24.4210    6.4290  -13.6680 C.ar  413  PLP413      0.0182
      7  C4A       23.0630    7.0190  -13.2600 C.3   413  PLP413      0.0342
      8  C5        25.0930    5.5630  -12.8180 C.ar  413  PLP413      0.0261
      9  C6        26.2810    4.9930  -13.2120 C.ar  413  PLP413      0.0965
     10  C5A       24.5900    5.3010  -11.4080 C.3   413  PLP413      0.1815
     11  O4P       23.3080    4.7170  -11.2540 O.3   413  PLP413     -0.2653
     12  P         22.6990    4.7280   -9.7920 P.3   413  PLP413      0.5329
     13  O1P       21.7250    3.6140   -9.7620 O.2   413  PLP413     -0.2224
     14  O2P       21.9560    6.1020   -9.6570 O.3   413  PLP413     -0.1145
     15  O3P       23.7850    4.6860   -8.8050 O.3   413  PLP413     -0.1145
@<TRIPOS>BOND
     1     3     2    1
     2     5     4    1
     3     2     4   ar
     4     2     1   ar
     5     4     6   ar
     6     1     9   ar
     7     6     7    1
     8     6     8   ar
     9     9     8   ar
    10     8    10    1
    11    10    11    1
    12    11    12    1
    13    12    13    2
    14    12    14    1
    15    12    15    1
