@<TRIPOS>MOLECULE
1g50_EST_A_1.pdb
 20 23 0 0 0
SMALL
GASTEIGER

@<TRIPOS>ATOM
      1  C1       104.0100   17.3780   24.9290 C.ar  600  EST600     -0.0013
      2  C2       102.8460   17.9870   25.5110 C.ar  600  EST600      0.0417
      3  C3       101.5290   17.4880   25.1790 C.ar  600  EST600      0.1954
      4  O3       100.3780   18.0690   25.7290 O.3   600  EST600     -0.2866
      5  C4       101.3860   16.3980   24.2750 C.ar  600  EST600      0.0375
      6  C5       102.5170   15.7810   23.6850 C.ar  600  EST600     -0.0230
      7  C6       102.2810   14.6270   22.7180 C.3   600  EST600      0.0261
      8  C7       103.5620   13.9870   22.0720 C.3   600  EST600      0.0050
      9  C8       104.8120   14.0540   22.9540 C.3   600  EST600      0.0044
     10  C9       105.1190   15.5650   23.3380 C.3   600  EST600      0.0220
     11  C10      103.8780   16.2620   24.0080 C.ar  600  EST600     -0.0263
     12  C11      106.4090   15.5880   24.2050 C.3   600  EST600      0.0044
     13  C12      107.6470   14.9140   23.5370 C.3   600  EST600      0.0028
     14  C13      107.3650   13.4590   23.1300 C.3   600  EST600      0.0282
     15  C14      106.0610   13.4280   22.2360 C.3   600  EST600      0.0028
     16  C15      106.0620   11.9820   21.7250 C.3   600  EST600      0.0027
     17  C16      107.5710   11.7490   21.3410 C.3   600  EST600      0.0329
     18  C17      108.3520   12.8450   22.1120 C.3   600  EST600      0.1519
     19  O17      109.5470   12.2750   22.6740 O.3   600  EST600     -0.2232
     20  C18      107.3140   12.5550   24.4260 C.3   600  EST600      0.0025
@<TRIPOS>BOND
     1    17    16    1
     2    17    18    1
     3    16    15    1
     4     8     7    1
     5     8     9    1
     6    18    19    1
     7    18    14    1
     8    15     9    1
     9    15    14    1
    10     7     6    1
    11     9    10    1
    12    14    13    1
    13    14    20    1
    14    10    11    1
    15    10    12    1
    16    13    12    1
    17     6    11   ar
    18     6     5   ar
    19    11     1   ar
    20     5     3   ar
    21     1     2   ar
    22     3     2   ar
    23     3     4    1
