@<TRIPOS>MOLECULE
1g51_AMP_B_1.pdb
 23 25 0 0 0
SMALL
GASTEIGER

@<TRIPOS>ATOM
      1  P         28.7110    1.6840   -5.7840 P.3   800  AMP800      0.5327
      2  O1P       28.5640    0.2000   -5.9210 O.3   800  AMP800     -0.1145
      3  O2P       28.8070    2.3020   -7.2530 O.2   800  AMP800     -0.2224
      4  O3P       27.7030    2.4520   -4.9900 O.3   800  AMP800     -0.1145
      5  O5'       30.1620    2.0260   -5.2010 O.3   800  AMP800     -0.2675
      6  C5'       31.3510    1.4000   -5.7390 C.3   800  AMP800      0.1860
      7  C4'       32.4990    1.4720   -4.7430 C.3   800  AMP800      0.1823
      8  O4'       32.9480    2.8440   -4.5780 O.3   800  AMP800     -0.3135
      9  C3'       32.2200    0.9640   -3.3300 C.3   800  AMP800      0.2184
     10  O3'       33.4810    0.5700   -2.7730 O.3   800  AMP800     -0.2174
     11  C2'       31.8880    2.2470   -2.5820 C.3   800  AMP800      0.2570
     12  O2'       32.1160    2.1230   -1.1950 O.3   800  AMP800     -0.2130
     13  C1'       32.8960    3.2040   -3.2090 C.3   800  AMP800      0.3186
     14  N9        32.5600    4.6250   -3.1290 N.pl3 800  AMP800     -0.1439
     15  C8        31.4570    5.2590   -3.6420 C.3   800  AMP800      0.3377
     16  N7        31.4760    6.5570   -3.4890 N.2   800  AMP800     -0.2095
     17  C5        32.6650    6.7940   -2.8140 C.2   800  AMP800      0.2526
     18  C6        33.2830    7.9800   -2.3730 C.2   800  AMP800      0.4393
     19  N6        32.7780    9.1990   -2.5900 N.pl3 800  AMP800      0.2180
     20  N1        34.4580    7.8690   -1.7110 N.2   800  AMP800      0.0021
     21  C2        34.9740    6.6510   -1.5320 C.3   800  AMP800      0.5254
     22  N3        34.4980    5.4670   -1.9200 N.2   800  AMP800     -0.0055
     23  C4        33.3280    5.6110   -2.5620 C.2   800  AMP800      0.3518
@<TRIPOS>BOND
     1     3     1    2
     2     2     1    1
     3     1     5    1
     4     1     4    1
     5     6     5    1
     6     6     7    1
     7     7     8    1
     8     7     9    1
     9     8    13    1
    10    15    16    1
    11    15    14    1
    12    16    17    2
    13     9    10    1
    14     9    11    1
    15    13    14    1
    16    13    11    1
    17    14    23    1
    18    17    23    1
    19    17    18    1
    20    19    18    1
    21    11    12    1
    22    23    22    2
    23    18    20    2
    24    22    21    1
    25    20    21    1
