@<TRIPOS>MOLECULE
1g51_AMO_A_1.pdb
 31 33 0 0 0
SMALL
GASTEIGER

@<TRIPOS>ATOM
      1  P         18.5460   31.9870   56.4090 P.3   831  AMO831      0.2723
      2  O1P       18.5150   32.5300   57.8050 O.3   831  AMO831     -0.4273
      3  O2P       17.2710   31.8930   55.6170 O.2   831  AMO831     -0.5082
      4  O3P       19.3590   30.5310   56.3920 O.3   831  AMO831     -0.4091
      5  O5'       19.5250   32.8940   55.5440 O.3   831  AMO831     -0.3024
      6  C5'       20.8980   33.1060   55.9090 C.3   831  AMO831      0.1823
      7  C4'       21.2120   34.5780   55.8100 C.3   831  AMO831      0.1822
      8  O4'       20.9580   35.0640   54.4560 O.3   831  AMO831     -0.3135
      9  C1'       20.6490   36.4520   54.5150 C.3   831  AMO831      0.3186
     10  N9        19.4470   36.7060   53.7150 N.pl3 831  AMO831     -0.1439
     11  C4        19.2940   37.6340   52.7070 C.2   831  AMO831      0.3518
     12  N3        20.2150   38.4960   52.2440 N.2   831  AMO831     -0.0055
     13  C2        19.7150   39.2290   51.2570 C.3   831  AMO831      0.5254
     14  N1        18.4850   39.2090   50.7170 N.2   831  AMO831      0.0021
     15  C6        17.5820   38.3270   51.2030 C.2   831  AMO831      0.4393
     16  N6        16.3650   38.2970   50.6570 N.pl3 831  AMO831      0.2180
     17  C5        17.9920   37.4920   52.2550 C.2   831  AMO831      0.2526
     18  N7        17.3330   36.5050   52.9680 N.2   831  AMO831     -0.2095
     19  C8        18.2360   36.0710   53.8200 C.3   831  AMO831      0.3377
     20  C2'       20.5020   36.8310   56.0040 C.3   831  AMO831      0.2570
     21  C3'       20.3170   35.4680   56.6610 C.3   831  AMO831      0.2184
     22  O3'       20.7470   35.4140   58.0230 O.3   831  AMO831     -0.2174
     23  N         19.3600   27.1640   55.1720 N.3   831  AMO831     -0.1204
     24  CA        19.4220   28.2400   56.2250 C.3   831  AMO831      0.2015
     25  CB        20.7950   28.2630   56.9020 C.3   831  AMO831      0.1444
     26  CG        21.0590   27.0270   57.7390 C.2   831  AMO831      0.3669
     27  OD1       22.2210   26.5780   57.8340 O.co2 831  AMO831     -0.2456
     28  OD2       20.1160   26.5660   58.4140 O.co2 831  AMO831     -0.2456
     29  C         19.1760   29.5940   55.5810 C.2   831  AMO831      0.3391
     30  O         18.9670   29.6800   54.3570 O.2   831  AMO831     -0.2482
     31  O2'       21.6540   37.4910   56.5030 O.3   831  AMO831     -0.2130
@<TRIPOS>BOND
     1    16    15    1
     2    14    15    2
     3    14    13    1
     4    15    17    1
     5    13    12    1
     6    12    11    2
     7    17    11    1
     8    17    18    2
     9    11    10    1
    10    18    19    1
    11    10    19    1
    12    10     9    1
    13    30    29    2
    14     8     9    1
    15     8     7    1
    16     9    20    1
    17    23    24    1
    18     5     6    1
    19     5     1    1
    20    29    24    1
    21    29     4    1
    22     3     1    2
    23     7     6    1
    24     7    21    1
    25    20    31    1
    26    20    21    1
    27    24    25    1
    28     4     1    1
    29     1     2    1
    30    21    22    1
    31    25    26    1
    32    26    27   ar
    33    26    28   ar
