@<TRIPOS>MOLECULE
1g52_F2B_A_1.pdb
 22 23 0 0 0
SMALL
GASTEIGER

@<TRIPOS>ATOM
      1  C01       -3.8210    3.4480   14.5380 C.ar  555  F2B555      0.0059
      2  C02       -4.2180    2.3090   15.2750 C.ar  555  F2B555      0.0202
      3  C03       -5.5380    2.2650   15.7920 C.ar  555  F2B555      0.1251
      4  C04       -6.3820    3.3640   15.5370 C.ar  555  F2B555      0.0202
      5  C05       -5.9530    4.4790   14.7950 C.ar  555  F2B555      0.0059
      6  C06       -4.6780    4.5260   14.2970 C.ar  555  F2B555      0.0551
      7  C07       -4.1990    5.7150   13.5000 C.2   555  F2B555      0.2651
      8  O08       -4.9770    6.6230   13.3030 O.2   555  F2B555     -0.2684
      9  N09       -2.8910    5.7600   13.0110 N.am  555  F2B555     -0.1967
     10  C10       -2.2370    6.8270   12.2320 C.3   555  F2B555      0.1441
     11  S11       -6.0000    0.7710   16.7370 S.O2  555  F2B555      0.0935
     12  NP2       -5.5220   -0.5230   16.0450 N.3   555  F2B555      0.0392
     13  O13       -7.5050    1.0540   16.8380 O.2   555  F2B555     -0.1503
     14  O14       -5.4260    1.0530   18.0770 O.2   555  F2B555     -0.1503
     15  C15       -1.8690    8.0320   12.9060 C.ar  555  F2B555      0.0292
     16  C16       -1.5470    7.9600   14.2860 C.ar  555  F2B555     -0.0002
     17  C17       -1.1740    9.1070   15.0430 C.ar  555  F2B555      0.0022
     18  C18       -1.1290   10.3510   14.3760 C.ar  555  F2B555      0.0319
     19  C19       -1.4480   10.4720   12.9820 C.ar  555  F2B555      0.1671
     20  C20       -1.8230    9.2930   12.2360 C.ar  555  F2B555      0.1650
     21  F21       -1.3930   11.6720   12.3880 F     555  F2B555     -0.2018
     22  F22       -2.1220    9.3960   10.9340 F     555  F2B555     -0.2021
@<TRIPOS>BOND
     1    22    20    1
     2    10    15    1
     3    10     9    1
     4    20    15   ar
     5    20    19   ar
     6    21    19    1
     7    15    16   ar
     8    19    18   ar
     9     9     7   am
    10     8     7    2
    11     7     6    1
    12    16    17   ar
    13     6     1   ar
    14     6     5   ar
    15    18    17   ar
    16     1     2   ar
    17     5     4   ar
    18     2     3   ar
    19     4     3   ar
    20     3    11    1
    21    12    11    1
    22    11    13    2
    23    11    14    2
