@<TRIPOS>MOLECULE
1g53_F6B_A_1.pdb
 22 23 0 0 0
SMALL
GASTEIGER

@<TRIPOS>ATOM
      1  C01       -3.7680    3.4250   14.6740 C.ar  555  F6B555      0.0059
      2  C02       -4.1570    2.3160   15.4320 C.ar  555  F6B555      0.0202
      3  C03       -5.5080    2.2120   15.8600 C.ar  555  F6B555      0.1251
      4  C04       -6.3880    3.2440   15.5080 C.ar  555  F6B555      0.0202
      5  C05       -5.9630    4.3370   14.7630 C.ar  555  F6B555      0.0059
      6  C06       -4.6610    4.4450   14.3310 C.ar  555  F6B555      0.0551
      7  C07       -4.2310    5.6510   13.4910 C.2   555  F6B555      0.2651
      8  O08       -5.1200    6.4610   13.2620 O.2   555  F6B555     -0.2684
      9  N09       -2.9350    5.9180   12.9430 N.am  555  F6B555     -0.1966
     10  C10       -2.6530    7.3290   12.7280 C.3   555  F6B555      0.1463
     11  S11       -6.0100    0.7770   16.8160 S.O2  555  F6B555      0.0935
     12  NP2       -5.5210   -0.6150   16.0610 N.3   555  F6B555      0.0392
     13  O13       -7.4390    1.0090   16.9510 O.2   555  F6B555     -0.1503
     14  O14       -5.3740    0.9890   18.1060 O.2   555  F6B555     -0.1503
     15  C15       -1.5610    7.9550   13.3490 C.ar  555  F6B555      0.0544
     16  C16       -0.2950    7.9540   12.6830 C.ar  555  F6B555      0.1400
     17  C17        0.8120    8.6020   13.3330 C.ar  555  F6B555      0.0295
     18  C18        0.6240    9.2310   14.6240 C.ar  555  F6B555      0.0046
     19  C19       -0.6590    9.2190   15.2750 C.ar  555  F6B555      0.0295
     20  C20       -1.7460    8.5840   14.6450 C.ar  555  F6B555      0.1400
     21  F21       -0.1380    7.3680   11.4880 F     555  F6B555     -0.2044
     22  F22       -2.9340    8.5820   15.2660 F     555  F6B555     -0.2044
@<TRIPOS>BOND
     1    21    16    1
     2    16    17   ar
     3    16    15   ar
     4    10     9    1
     5    10    15    1
     6     9     7   am
     7     8     7    2
     8    17    18   ar
     9    15    20   ar
    10     7     6    1
    11     6     1   ar
    12     6     5   ar
    13    18    19   ar
    14    20    22    1
    15    20    19   ar
    16     1     2   ar
    17     5     4   ar
    18     2     3   ar
    19     4     3   ar
    20     3    11    1
    21    12    11    1
    22    11    13    2
    23    11    14    2
