@<TRIPOS>MOLECULE
1g54_FFB_A_1.pdb
 25 26 0 0 0
SMALL
GASTEIGER

@<TRIPOS>ATOM
      1  C01       -3.4990    3.5140   14.8940 C.ar  555  FFB555      0.0059
      2  C02       -3.9700    2.4230   15.6520 C.ar  555  FFB555      0.0202
      3  C03       -5.3570    2.3000   15.9540 C.ar  555  FFB555      0.1251
      4  C04       -6.1840    3.3040   15.4690 C.ar  555  FFB555      0.0202
      5  C05       -5.6860    4.3730   14.7270 C.ar  555  FFB555      0.0059
      6  C06       -4.3550    4.5030   14.4230 C.ar  555  FFB555      0.0551
      7  C07       -3.8980    5.7010   13.5960 C.2   555  FFB555      0.2651
      8  O08       -4.8220    6.4410   13.2880 O.2   555  FFB555     -0.2684
      9  N09       -2.5810    6.0700   13.1380 N.am  555  FFB555     -0.1966
     10  C10       -2.5570    7.3350   12.3420 C.3   555  FFB555      0.1464
     11  S11       -5.9420    0.8710   16.9250 S.O2  555  FFB555      0.0935
     12  NP2       -5.4100   -0.5200   16.1990 N.3   555  FFB555      0.0392
     13  O13       -7.3760    1.0970   16.9330 O.2   555  FFB555     -0.1503
     14  O14       -5.3850    1.0630   18.2610 O.2   555  FFB555     -0.1503
     15  C15       -2.2100    8.6120   12.8640 C.ar  555  FFB555      0.0590
     16  C16       -2.2510    9.7780   12.0200 C.ar  555  FFB555      0.1696
     17  C17       -1.9020   11.0540   12.5910 C.ar  555  FFB555      0.1967
     18  C18       -1.5250   11.1470   13.9530 C.ar  555  FFB555      0.1991
     19  C19       -1.4860    9.9880   14.7750 C.ar  555  FFB555      0.1967
     20  C20       -1.8250    8.7280   14.2450 C.ar  555  FFB555      0.1696
     21  F21       -2.6090    9.6900   10.7320 F     555  FFB555     -0.2019
     22  F22       -1.9340   12.1560   11.8310 F     555  FFB555     -0.1993
     23  F23       -1.2010   12.3350   14.4790 F     555  FFB555     -0.1993
     24  F24       -1.1280   10.0760   16.0630 F     555  FFB555     -0.1993
     25  F25       -1.7760    7.6620   15.0560 F     555  FFB555     -0.2019
@<TRIPOS>BOND
     1    21    16    1
     2    22    17    1
     3    16    17   ar
     4    16    15   ar
     5    10    15    1
     6    10     9    1
     7    17    18   ar
     8    15    20   ar
     9     9     7   am
    10     8     7    2
    11     7     6    1
    12    18    23    1
    13    18    19   ar
    14    20    19   ar
    15    20    25    1
    16     6     5   ar
    17     6     1   ar
    18     5     4   ar
    19    19    24    1
    20     1     2   ar
    21     4     3   ar
    22     2     3   ar
    23     3    11    1
    24    12    11    1
    25    11    13    2
    26    11    14    2
