@<TRIPOS>MOLECULE
1g55_SAH_A_1.pdb
 26 28 0 0 0
SMALL
GASTEIGER

@<TRIPOS>ATOM
      1  N         62.9130   41.4220   32.8820 N.3   392  SAH392     -0.1208
      2  CA        61.5720   40.9060   33.0890 C.3   392  SAH392      0.1952
      3  CB        61.5030   39.4350   33.5200 C.3   392  SAH392      0.0422
      4  CG        62.2430   38.4450   32.6350 C.3   392  SAH392      0.0597
      5  SD        62.0780   36.7740   33.3550 S.3   392  SAH392     -0.1375
      6  C         60.9900   41.7630   34.2120 C.2   392  SAH392      0.3819
      7  O         61.2100   43.0480   34.3370 O.co2 392  SAH392     -0.2441
      8  OXT       59.9760   41.2360   34.8330 O.co2 392  SAH392     -0.2441
      9  C5'       62.1330   35.7440   31.8590 C.3   392  SAH392      0.0899
     10  C4'       60.7960   36.0780   31.2540 C.3   392  SAH392      0.1630
     11  O4'       60.7970   35.7030   29.8530 O.3   392  SAH392     -0.3153
     12  C3'       59.5750   35.4060   31.8820 C.3   392  SAH392      0.2168
     13  O3'       58.5090   36.3360   32.0340 O.3   392  SAH392     -0.2175
     14  C2'       59.1990   34.3320   30.8660 C.3   392  SAH392      0.2569
     15  O2'       57.8080   34.0720   30.8620 O.3   392  SAH392     -0.2130
     16  C1'       59.6320   34.9820   29.5440 C.3   392  SAH392      0.3185
     17  N9        59.9710   34.0010   28.5150 N.pl3 392  SAH392     -0.1439
     18  C8        60.8300   32.9410   28.6680 C.3   392  SAH392      0.3377
     19  N7        60.9690   32.2180   27.5850 N.2   392  SAH392     -0.2095
     20  C5        60.1500   32.8290   26.6510 C.2   392  SAH392      0.2526
     21  C6        59.8600   32.5410   25.2990 C.2   392  SAH392      0.4393
     22  N6        60.4050   31.5140   24.6190 N.pl3 392  SAH392      0.2180
     23  N1        58.9950   33.3490   24.6630 N.2   392  SAH392      0.0021
     24  C2        58.4840   34.3950   25.3320 C.3   392  SAH392      0.5254
     25  N3        58.6840   34.7730   26.5900 N.2   392  SAH392     -0.0055
     26  C4        59.5330   33.9450   27.2120 C.2   392  SAH392      0.3518
@<TRIPOS>BOND
     1    22    21    1
     2    23    21    2
     3    23    24    1
     4    21    20    1
     5    24    25    1
     6    25    26    2
     7    20    26    1
     8    20    19    2
     9    26    17    1
    10    19    18    1
    11    17    18    1
    12    17    16    1
    13    16    11    1
    14    16    14    1
    15    11    10    1
    16    15    14    1
    17    14    12    1
    18    10     9    1
    19    10    12    1
    20     9     5    1
    21    12    13    1
    22     4     5    1
    23     4     3    1
    24     1     2    1
    25     2     3    1
    26     2     6    1
    27     6     7   ar
    28     6     8   ar
