@<TRIPOS>MOLECULE
1g5c_EPE_A_1.pdb
 15 15 0 0 0
SMALL
GASTEIGER

@<TRIPOS>ATOM
      1  N1         7.1070   36.7070   38.5350 N.3   2201  EPE2201    -0.2689
      2  C2         8.3090   37.6360   38.7390 C.3   2201  EPE2201     0.0897
      3  C3         9.2430   36.9600   39.7450 C.3   2201  EPE2201     0.0897
      4  N4         8.5760   36.7970   41.0550 N.3   2201  EPE2201    -0.2681
      5  C5         7.3570   35.9350   40.9020 C.3   2201  EPE2201     0.0897
      6  C6         6.3680   36.5080   39.8560 C.3   2201  EPE2201     0.0897
      7  C7         9.4350   36.1250   42.0870 C.3   2201  EPE2201     0.1081
      8  C8        10.7400   36.8540   42.4020 C.3   2201  EPE2201     0.1993
      9  O8        11.8410   36.5180   41.5460 O.3   2201  EPE2201    -0.2189
     10  C9         6.0800   37.2400   37.5240 C.3   2201  EPE2201     0.0939
     11  C10        6.6840   37.8380   36.2320 C.3   2201  EPE2201     0.1225
     12  S          5.3600   38.4540   35.1780 S.3   2201  EPE2201    -0.1946
     13  O1S        6.0390   39.1750   34.1380 O.3   2201  EPE2201    -0.3074
     14  O2S        4.5070   39.3270   35.9940 O.3   2201  EPE2201    -0.3074
     15  O3S        4.6850   37.2820   34.7020 O.3   2201  EPE2201    -0.3074
@<TRIPOS>BOND
     1    13    12    1
     2    15    12    1
     3    12    14    1
     4    12    11    1
     5    11    10    1
     6    10     1    1
     7     1     2    1
     8     1     6    1
     9     2     3    1
    10     3     4    1
    11     6     5    1
    12     5     4    1
    13     4     7    1
    14     9     8    1
    15     7     8    1
