@<TRIPOS>MOLECULE
1g5n_IDS_A_1.pdb
 15 15 0 0 0
SMALL
GASTEIGER

@<TRIPOS>ATOM
      1  C1         4.3560   54.6770  -15.0600 C.3   903  IDS903      0.1772
      2  C2         3.7140   54.0990  -13.7910 C.3   903  IDS903      0.2028
      3  C3         2.2670   53.7850  -14.0900 C.3   903  IDS903      0.1868
      4  C4         1.5390   55.1070  -14.3660 C.3   903  IDS903      0.0768
      5  C5         2.4840   56.1250  -15.0180 C.3   903  IDS903      0.2204
      6  C6         1.6960   57.0520  -15.9230 C.2   903  IDS903      0.3914
      7  O2         4.3800   52.8790  -13.4860 O.3   903  IDS903     -0.2385
      8  O3         1.6840   53.1570  -12.9690 O.3   903  IDS903     -0.2203
      9  O5         3.3860   55.3970  -15.8370 O.3   903  IDS903     -0.3422
     10  O61        0.9320   57.8810  -15.3950 O.co2 903  IDS903     -0.2430
     11  O62        1.8490   56.9550  -17.1620 O.co2 903  IDS903     -0.2430
     12  S          5.1000   52.6360  -11.8960 S.3   903  IDS903     -0.0001
     13  O1S        6.2130   51.6760  -12.0050 O.2   903  IDS903     -0.3452
     14  O2S        5.5970   53.9220  -11.3750 O.2   903  IDS903     -0.3452
     15  O3S        4.0710   52.0960  -10.9830 O.3   903  IDS903     -0.2682
@<TRIPOS>BOND
     1    11     6   ar
     2     6    10   ar
     3     6     5    1
     4     9     1    1
     5     9     5    1
     6     1     2    1
     7     5     4    1
     8     4     3    1
     9     3     2    1
    10     3     8    1
    11     2     7    1
    12     7    12    1
    13    13    12    2
    14    12    14    2
    15    12    15    1
