@<TRIPOS>MOLECULE
1g5n_SGN_A_1.pdb
 20 20 0 0 0
SMALL
GASTEIGER

@<TRIPOS>ATOM
      1  C1       -31.2320   83.9100   17.2850 C.3   802  SGN802      0.2895
      2  C2       -32.3200   84.6420   18.0680 C.3   802  SGN802      0.1858
      3  C3       -33.1100   83.6470   18.9080 C.3   802  SGN802      0.2073
      4  C4       -33.7210   82.6090   17.9770 C.3   802  SGN802      0.2133
      5  C5       -32.6050   81.9160   17.1890 C.3   802  SGN802      0.1826
      6  C6       -33.2030   80.9510   16.1760 C.3   802  SGN802      0.2046
      7  N        -31.7360   85.6610   18.9140 N.3   802  SGN802     -0.1129
      8  O1       -30.2830   83.3390   18.1900 O.3   802  SGN802     -0.1882
      9  O3       -34.1260   84.3150   19.6220 O.3   802  SGN802     -0.2186
     10  O4       -34.4350   81.6490   18.7580 O.3   802  SGN802     -0.2176
     11  O5       -31.8510   82.9050   16.4680 O.3   802  SGN802     -0.3245
     12  O6       -33.9380   81.7140   15.2220 O.3   802  SGN802     -0.2384
     13  S1       -31.5420   87.2960   18.2710 S.3   802  SGN802     -0.1288
     14  O1S      -31.3520   88.2410   19.3860 O.3   802  SGN802     -0.2918
     15  O2S      -32.7460   87.6710   17.5040 O.3   802  SGN802     -0.2918
     16  O3S      -30.3640   87.3340   17.3850 O.3   802  SGN802     -0.2918
     17  S2       -34.7470   80.9170   13.8740 S.3   802  SGN802     -0.0001
     18  O4S      -35.7530   79.9700   14.3960 O.3   802  SGN802     -0.2682
     19  O5S      -35.4100   81.9360   13.0390 O.2   802  SGN802     -0.3452
     20  O6S      -33.7480   80.1900   13.0670 O.2   802  SGN802     -0.3452
@<TRIPOS>BOND
     1    19    17    2
     2    20    17    2
     3    17    18    1
     4    17    12    1
     5    12     6    1
     6     6     5    1
     7    11     5    1
     8    11     1    1
     9     5     4    1
    10     1     2    1
    11     1     8    1
    12    16    13    1
    13    15    13    1
    14     4    10    1
    15     4     3    1
    16     2     3    1
    17     2     7    1
    18    13     7    1
    19    13    14    1
    20     3     9    1
