@<TRIPOS>MOLECULE
1g5n_UAP_A_1.pdb
 15 15 0 0 0
SMALL
GASTEIGER

@<TRIPOS>ATOM
      1  C1       -35.7070   81.2710   18.2270 C.3   801  UAP801      0.2404
      2  C2       -36.2980   80.1540   19.0740 C.3   801  UAP801      0.2210
      3  C3       -36.6070   80.6400   20.4860 C.3   801  UAP801      0.2103
      4  C4       -37.1060   81.9990   20.4860 C.2   801  UAP801      0.0526
      5  C5       -37.1010   82.7880   19.3910 C.2   801  UAP801      0.2164
      6  C6       -37.6020   84.0210   19.4840 C.2   801  UAP801      0.4208
      7  O2       -37.4960   79.6760   18.4650 O.3   801  UAP801     -0.2368
      8  O3       -35.4570   80.5530   21.2980 O.3   801  UAP801     -0.2153
      9  O5       -36.6220   82.3680   18.2010 O.2   801  UAP801     -0.4664
     10  O61      -38.0620   84.4190   20.5800 O.co2 801  UAP801     -0.2371
     11  O62      -37.6160   84.7550   18.4690 O.co2 801  UAP801     -0.2371
     12  S        -37.7700   77.9360   18.3120 S.3   801  UAP801     -0.0000
     13  O1S      -39.0100   77.7000   17.5500 O.2   801  UAP801     -0.3452
     14  O2S      -37.8960   77.3330   19.6520 O.3   801  UAP801     -0.2682
     15  O3S      -36.6320   77.3210   17.6040 O.2   801  UAP801     -0.3452
@<TRIPOS>BOND
     1    13    12    2
     2    15    12    2
     3     9     1    1
     4     9     5    1
     5     1     2    1
     6    12     7    1
     7    12    14    1
     8     7     2    1
     9    11     6   ar
    10     2     3    1
    11     5     6    1
    12     5     4    2
    13     6    10   ar
    14     3     4    1
    15     3     8    1
