@<TRIPOS>MOLECULE
1g5q_III_M_1.pdb
 40 40 0 0 0
SMALL
GASTEIGER

@<TRIPOS>ATOM
      1  N        213.0880   78.3870   54.3260 N.3   401  ASP401     -0.1225
      2  CA       212.0420   77.7440   55.1780 C.3   401  ASP401      0.1805
      3  C        210.7500   77.6030   54.3750 C.2   401  ASP401      0.2598
      4  O        210.7590   77.6500   53.1450 O.2   401  ASP401     -0.2718
      5  CB       211.7510   78.6050   56.4200 C.3   401  ASP401      0.1424
      6  CG       212.9770   79.3680   56.9180 C.2   401  ASP401      0.3668
      7  OD1      214.0600   78.7480   57.0690 O.co2 401  ASP401     -0.2456
      8  OD2      212.8470   80.5920   57.1640 O.co2 401  ASP401     -0.2456
      9  N        209.6410   77.4140   55.0780 N.am  402  SER402     -0.1938
     10  CA       208.3490   77.3140   54.4220 C.3   402  SER402      0.2055
     11  C        207.8050   78.7360   54.4490 C.2   402  SER402      0.2643
     12  O        208.0940   79.4940   55.3770 O.2   402  SER402     -0.2714
     13  CB       207.4080   76.3830   55.1940 C.3   402  SER402      0.2130
     14  OG       207.8860   75.0520   55.1940 O.3   402  SER402     -0.2179
     15  N        207.0360   79.1060   53.4350 N.am  403  TYR403     -0.1959
     16  CA       206.4800   80.4450   53.3850 C.3   403  TYR403      0.1771
     17  C        204.9640   80.4080   53.4200 C.2   403  TYR403      0.2620
     18  O        204.3390   79.4270   53.0270 O.2   403  TYR403     -0.2715
     19  CB       206.9550   81.1750   52.1290 C.3   403  TYR403      0.0574
     20  CG       208.4480   81.4000   52.0810 C.ar  403  TYR403     -0.0198
     21  CD1      209.2010   80.9650   50.9880 C.ar  403  TYR403     -0.0009
     22  CD2      209.1120   82.0560   53.1200 C.ar  403  TYR403     -0.0009
     23  CE1      210.5760   81.1750   50.9280 C.ar  403  TYR403      0.0417
     24  CE2      210.4890   82.2740   53.0690 C.ar  403  TYR403      0.0417
     25  CZ       211.2120   81.8290   51.9670 C.ar  403  TYR403      0.1957
     26  OH       212.5680   82.0460   51.8940 O.3   403  TYR403     -0.2866
     27  N        204.3830   81.4940   53.9010 N.am  404  THR404     -0.1937
     28  CA       202.9460   81.6140   54.0060 C.3   404  THR404      0.2028
     29  C        202.5890   83.0400   53.6180 C.2   404  THR404      0.2643
     30  O        203.3330   83.9730   53.9180 O.2   404  THR404     -0.2714
     31  CB       202.4950   81.3360   55.4490 C.3   404  THR404      0.1808
     32  OG1      202.8200   79.9850   55.7930 O.3   404  THR404     -0.2208
     33  CG2      201.0120   81.5340   55.5980 C.3   404  THR404      0.0379
     34  N        201.4690   83.2100   52.9290 N.am  405  CYS405     -0.1931
     35  CA       201.0400   84.5420   52.5280 C.3   405  CYS405      0.2093
     36  C        200.5240   85.3250   53.7260 C.2   405  CYS405      0.3851
     37  O        201.0100   86.4560   53.9330 O.co2 405  CYS405     -0.2437
     38  CB       199.9530   84.4580   51.4600 C.3   405  CYS405      0.1019
     39  SG       200.6030   84.4060   49.7840 S.3   405  CYS405     -0.0797
     40  OXT      199.6420   84.7980   54.4400 O.co2 405  CYS405     -0.2437
@<TRIPOS>BOND
     1    39    38    1
     2    23    21   ar
     3    23    25   ar
     4    21    20   ar
     5    38    35    1
     6    26    25    1
     7    25    24   ar
     8    20    19    1
     9    20    22   ar
    10    19    16    1
    11    35    34    1
    12    35    36    1
    13    34    29   am
    14    18    17    2
    15    24    22   ar
    16     4     3    2
    17    16    17    1
    18    16    15    1
    19    17    27   am
    20    15    11   am
    21    29    30    2
    22    29    28    1
    23    36    37   ar
    24    36    40   ar
    25    27    28    1
    26    28    31    1
    27     1     2    1
    28     3     9   am
    29     3     2    1
    30    10    11    1
    31    10     9    1
    32    10    13    1
    33    11    12    2
    34     2     5    1
    35    14    13    1
    36    31    33    1
    37    31    32    1
    38     5     6    1
    39     6     7   ar
    40     6     8   ar
