@<TRIPOS>MOLECULE
1g5q_FMN_A_1.pdb
 31 33 0 0 0
SMALL
GASTEIGER

@<TRIPOS>ATOM
      1  N1       197.5780   79.5130   46.4170 N.2   300  FMN300     -0.2890
      2  C2       197.7070   78.3600   47.1450 C.1   300  FMN300      0.3669
      3  O2       196.9310   77.4450   47.0900 O.2   300  FMN300     -0.1744
      4  N3       198.8240   78.2230   48.0340 N.2   300  FMN300     -0.2300
      5  C4       199.7830   79.1510   48.2290 C.1   300  FMN300      0.2513
      6  O4       200.6890   78.9440   49.0500 O.2   300  FMN300     -0.2057
      7  C4A      199.6320   80.4030   47.4750 C.2   300  FMN300      0.2700
      8  N5       200.5400   81.3670   47.5620 N.2   300  FMN300     -0.3878
      9  C5A      200.4580   82.4480   46.7300 C.2   300  FMN300      0.1320
     10  C6       201.5050   83.4670   46.7550 C.2   300  FMN300      0.0250
     11  C7       201.4180   84.6390   46.0590 C.2   300  FMN300     -0.0238
     12  C7M      202.5470   85.6800   46.1060 C.3   300  FMN300      0.0308
     13  C8       200.3570   84.7940   45.0490 C.2   300  FMN300     -0.0280
     14  C8M      200.2990   86.0040   44.1540 C.3   300  FMN300      0.0304
     15  C9       199.3370   83.8480   45.0320 C.2   300  FMN300     -0.0041
     16  C9A      199.3410   82.6820   45.8310 C.3   300  FMN300      0.1497
     17  N10      198.3280   81.6710   45.8350 N.pl3 300  FMN300     -0.2691
     18  C10      198.4720   80.4910   46.5470 C.2   300  FMN300      0.2416
     19  C1'      197.1540   81.8000   44.9360 C.3   300  FMN300      0.1294
     20  C2'      197.3950   81.0050   43.6390 C.3   300  FMN300      0.2044
     21  O2'      198.5660   81.3960   42.9150 O.3   300  FMN300     -0.2185
     22  C3'      196.1940   81.1410   42.7090 C.3   300  FMN300      0.2164
     23  O3'      195.0200   80.5750   43.3480 O.3   300  FMN300     -0.2175
     24  C4'      196.3610   80.5080   41.3340 C.3   300  FMN300      0.2147
     25  O4'      195.2410   80.8520   40.4690 O.3   300  FMN300     -0.2176
     26  C5'      196.5370   79.0030   41.3450 C.3   300  FMN300      0.1892
     27  O5'      196.8340   78.5390   40.0160 O.3   300  FMN300     -0.2674
     28  P        197.4800   77.1330   39.6860 P.3   300  FMN300      0.5327
     29  O1P      196.5810   76.0780   40.2610 O.3   300  FMN300     -0.1145
     30  O2P      198.8620   77.0850   40.2350 O.3   300  FMN300     -0.1145
     31  O3P      197.4900   77.1120   38.1290 O.2   300  FMN300     -0.2224
@<TRIPOS>BOND
     1    31    28    2
     2    28    27    1
     3    28    30    1
     4    28    29    1
     5    27    26    1
     6    25    24    1
     7    24    26    1
     8    24    22    1
     9    22    23    1
    10    22    20    1
    11    21    20    1
    12    20    19    1
    13    14    13    1
    14    19    17    1
    15    15    13    2
    16    15    16    1
    17    13    11    1
    18    16    17    1
    19    16     9    1
    20    17    18    1
    21    11    12    1
    22    11    10    2
    23     1    18    2
    24     1     2    2
    25    18     7    1
    26     9    10    1
    27     9     8    2
    28     3     2    2
    29     2     4    2
    30     7     8    2
    31     7     5    1
    32     4     5    2
    33     5     6    2
