@<TRIPOS>MOLECULE
1g5s_I17_A_1.pdb
 30 34 0 0 0
SMALL
GASTEIGER

@<TRIPOS>ATOM
      1  C26       15.2920   -8.9720   14.5730 C.3   400  I17400      0.0769
      2  N9        13.9860   -9.6460   14.3440 N.pl3 400  I17400     -0.2624
      3  C4        13.2900   -9.6290   13.1580 C.2   400  I17400      0.2197
      4  N3        13.6950   -8.9990   12.0310 N.2   400  I17400     -0.3099
      5  C2        12.8800   -9.1210   11.0260 C.1   400  I17400      0.2226
      6  C6        11.2420  -10.4870   12.2370 C.2   400  I17400      0.2344
      7  N1        11.6760   -9.8340   11.0710 N.2   400  I17400     -0.3084
      8  C5        12.1360  -10.3780   13.3880 C.2   400  I17400      0.1690
      9  N7        12.0860  -10.8500   14.6690 N.2   400  I17400     -0.2402
     10  C8        13.2100  -10.4040   15.2430 C.3   400  I17400      0.2220
     11  N18       10.0010  -11.1980   12.2600 N.pl3 400  I17400     -0.2027
     12  C19        9.1990  -11.2030   11.0400 C.3   400  I17400      0.1413
     13  C25        7.8770  -13.1410   10.9730 C.ar  400  I17400     -0.0026
     14  C24        7.4600  -14.3220   10.3330 C.ar  400  I17400     -0.0003
     15  C23        7.9940  -14.6880    9.1090 C.ar  400  I17400     -0.0000
     16  C22        8.9610  -13.8680    8.5030 C.ar  400  I17400     -0.0003
     17  C21        9.3790  -12.6730    9.1510 C.ar  400  I17400     -0.0026
     18  C20        8.8330  -12.3300   10.3740 C.ar  400  I17400     -0.0006
     19  N10       13.2260   -8.3960    9.7540 N.pl3 400  I17400     -0.1535
     20  C11       14.4790   -7.4500    9.6590 C.3   400  I17400      0.1057
     21  C14       14.9430   -4.6260    8.8490 C.3   400  I17400      0.0919
     22  C15       15.1240   -5.0890   10.2750 C.3   400  I17400      0.0208
     23  C16       14.2460   -6.3010   10.5880 C.3   400  I17400      0.0240
     24  C12       14.5380   -7.0420    8.0960 C.3   400  I17400      0.0240
     25  C13       15.3530   -5.7490    7.9380 C.3   400  I17400      0.0208
     26  N17       15.8210   -3.4180    8.5840 N.3   400  I17400     -0.1329
     27  C30       16.5920   -8.9840   13.8290 C.3   400  I17400      0.0199
     28  C29       17.0640   -7.6070   13.7800 C.3   400  I17400      0.0018
     29  C27       15.1000   -7.4710   14.8510 C.3   400  I17400      0.0199
     30  C28       16.5040   -6.9930   14.9450 C.3   400  I17400      0.0018
@<TRIPOS>BOND
     1    25    24    1
     2    25    21    1
     3    24    20    1
     4    16    15   ar
     5    16    17   ar
     6    26    21    1
     7    21    22    1
     8    15    14   ar
     9    17    18   ar
    10    20    19    1
    11    20    23    1
    12    19     5    1
    13    22    23    1
    14    14    13   ar
    15    18    13   ar
    16    18    12    1
    17     5     7    2
    18     5     4    2
    19    12    11    1
    20     7     6    2
    21     4     3    2
    22     6    11    1
    23     6     8    1
    24     3     8    1
    25     3     2    1
    26     8     9    2
    27    28    27    1
    28    28    30    1
    29    27     1    1
    30     2     1    1
    31     2    10    1
    32     1    29    1
    33     9    10    1
    34    29    30    1
