@<TRIPOS>MOLECULE
1g5t_ATP_A_1.pdb
 31 33 0 0 0
SMALL
GASTEIGER

@<TRIPOS>ATOM
      1  PG        28.3120    4.2870   -6.5920 P.3   999  ATP999      0.5373
      2  O1G       27.1700    5.2580   -6.5720 O.3   999  ATP999     -0.1143
      3  O2G       28.4470    3.5770   -5.2840 O.3   999  ATP999     -0.1143
      4  O3G       28.0770    3.3000   -7.6830 O.2   999  ATP999     -0.2221
      5  PB        30.5700    5.7620   -5.9160 P.3   999  ATP999      0.2277
      6  O1B       31.5180    4.8640   -5.2010 O.2   999  ATP999     -0.5168
      7  O2B       29.7080    6.5870   -5.0240 O.3   999  ATP999     -0.4368
      8  O3B       29.6240    4.9800   -6.8600 O.3   999  ATP999     -0.2258
      9  PA        31.2460    8.1910   -7.3760 P.3   999  ATP999      0.2189
     10  O1A       32.5650    8.7570   -7.7670 O.2   999  ATP999     -0.5170
     11  O2A       30.4750    9.0390   -6.4150 O.3   999  ATP999     -0.4371
     12  O3A       31.4220    6.7140   -6.9340 O.3   999  ATP999     -0.2700
     13  O5'       30.2950    7.7750   -8.5670 O.3   999  ATP999     -0.3112
     14  C5'       29.9180    8.6660   -9.6050 C.3   999  ATP999      0.1813
     15  C4'       29.5120    7.7890  -10.7600 C.3   999  ATP999      0.1821
     16  O4'       30.7210    7.2220  -11.2640 O.3   999  ATP999     -0.3135
     17  C3'       28.7140    6.5800  -10.3700 C.3   999  ATP999      0.2184
     18  O3'       27.6710    6.2810  -11.2810 O.3   999  ATP999     -0.2174
     19  C2'       29.5730    5.6050  -10.1240 C.3   999  ATP999      0.2570
     20  O2'       28.9600    4.2970  -10.2770 O.3   999  ATP999     -0.2130
     21  C1'       30.7050    5.8030  -11.1010 C.3   999  ATP999      0.3186
     22  N9        32.0440    5.3160  -10.7040 N.pl3 999  ATP999     -0.1439
     23  C8        32.5070    4.9690   -9.4730 C.3   999  ATP999      0.3377
     24  N7        33.8260    4.6940   -9.4590 N.2   999  ATP999     -0.2095
     25  C5        34.2320    4.8700  -10.7680 C.2   999  ATP999      0.2526
     26  C6        35.5080    4.7310  -11.3920 C.2   999  ATP999      0.4393
     27  N6        36.6050    4.3680  -10.7380 N.pl3 999  ATP999      0.2180
     28  N1        35.5320    4.9940  -12.7270 N.2   999  ATP999      0.0021
     29  C2        34.3740    5.3600  -13.3670 C.3   999  ATP999      0.5254
     30  N3        33.1770    5.5110  -12.8770 N.2   999  ATP999     -0.0055
     31  C4        33.1510    5.2500  -11.5510 C.2   999  ATP999      0.3518
@<TRIPOS>BOND
     1    29    30    1
     2    29    28    1
     3    30    31    2
     4    28    26    2
     5    31    25    1
     6    31    22    1
     7    26    25    1
     8    26    27    1
     9    18    17    1
    10    16    21    1
    11    16    15    1
    12    21    22    1
    13    21    19    1
    14    25    24    2
    15    15    17    1
    16    15    14    1
    17    22    23    1
    18    17    19    1
    19    20    19    1
    20    14    13    1
    21    23    24    1
    22    13     9    1
    23    10     9    2
    24     4     1    2
    25     9    12    1
    26     9    11    1
    27    12     5    1
    28     8     1    1
    29     8     5    1
    30     1     2    1
    31     1     3    1
    32     5     6    2
    33     5     7    1
