@<TRIPOS>MOLECULE
1g5y_REA_B_1.pdb
 22 22 0 0 0
SMALL
GASTEIGER

@<TRIPOS>ATOM
      1  C1        -0.6700   23.4940   31.5450 C.3   501  REA501      0.0152
      2  C2         0.7980   23.8570   31.2220 C.3   501  REA501      0.0037
      3  C3         1.6950   24.1540   32.4290 C.3   501  REA501      0.0006
      4  C4         1.6400   22.8820   33.2130 C.3   501  REA501      0.0040
      5  C5         0.2410   22.4350   33.7120 C.3   501  REA501      0.0183
      6  C6        -0.9140   22.6960   32.9730 C.2   501  REA501     -0.0452
      7  C7        -2.1000   22.2310   33.5510 C.2   501  REA501     -0.0092
      8  C8        -3.3900   22.2300   33.1410 C.2   501  REA501     -0.0088
      9  C9        -4.5460   21.8030   33.7410 C.2   501  REA501     -0.0396
     10  C10       -5.6350   22.1170   33.0290 C.3   501  REA501      0.0480
     11  C11       -6.9200   21.7990   32.8370 C.2   501  REA501     -0.0221
     12  C12       -7.6950   20.7330   33.0870 C.2   501  REA501     -0.0083
     13  C13       -9.0030   20.5780   32.8610 C.2   501  REA501     -0.0156
     14  C14       -9.6770   19.8770   33.8490 C.2   501  REA501      0.0819
     15  C15      -11.1860   19.6340   34.1040 C.2   501  REA501      0.3876
     16  C16       -0.9760   22.6920   30.2900 C.3   501  REA501      0.0040
     17  C17       -1.3640   24.8660   31.2570 C.3   501  REA501      0.0040
     18  C18        0.1400   21.6540   35.0620 C.3   501  REA501      0.0043
     19  C19       -4.5110   21.0390   35.0270 C.3   501  REA501      0.0267
     20  C20       -9.6890   21.1160   31.5940 C.3   501  REA501      0.0312
     21  O1       -11.9160   20.4370   33.5680 O.co2 501  REA501     -0.2406
     22  O2       -11.5510   18.6460   34.7420 O.co2 501  REA501     -0.2406
@<TRIPOS>BOND
     1    16     1    1
     2     2     1    1
     3     2     3    1
     4    17     1    1
     5     1     6    1
     6    20    13    1
     7     3     4    1
     8    11    10    1
     9    11    12    2
    10    13    12    1
    11    13    14    2
    12     6     7    2
    13     6     5    1
    14    10     9    1
    15     8     7    1
    16     8     9    2
    17     4     5    1
    18    21    15   ar
    19     5    18    1
    20     9    19    1
    21    14    15    1
    22    15    22   ar
