@<TRIPOS>MOLECULE
1g60_SAM_A_1.pdb
 27 29 0 0 0
SMALL
GASTEIGER

@<TRIPOS>ATOM
      1  N          2.4000   53.4930   -2.6790 N.3   500  SAM500     -0.1208
      2  CA         1.1990   54.2870   -2.3210 C.3   500  SAM500      0.1952
      3  C          1.6110   55.7640   -2.2550 C.2   500  SAM500      0.3819
      4  O          2.8430   56.0110   -2.4780 O.co2 500  SAM500     -0.2441
      5  OXT        0.8880   56.5910   -1.6920 O.co2 500  SAM500     -0.2441
      6  CB         0.6190   53.8580   -0.9710 C.3   500  SAM500      0.0414
      7  CG        -0.3620   52.7110   -1.0810 C.3   500  SAM500      0.0503
      8  SD        -1.0560   52.2150    0.5320 S.3   500  SAM500     -0.1761
      9  CE         0.1140   51.2810    1.5560 C.3   500  SAM500      0.0590
     10  C5'       -2.2750   50.9140    0.1730 C.3   500  SAM500      0.0806
     11  C4'       -3.5850   51.6080   -0.3460 C.3   500  SAM500      0.1622
     12  O4'       -4.4260   50.4700   -0.5600 O.3   500  SAM500     -0.3153
     13  C3'       -4.4030   52.6030    0.4730 C.3   500  SAM500      0.2168
     14  O3'       -4.5540   53.8880   -0.1990 O.3   500  SAM500     -0.2175
     15  C2'       -5.8370   51.9330    0.5510 C.3   500  SAM500      0.2569
     16  O2'       -6.9850   52.8420    0.4150 O.3   500  SAM500     -0.2130
     17  C1'       -5.7910   50.9470   -0.6510 C.3   500  SAM500      0.3185
     18  N9        -6.6110   49.7380   -0.3830 N.pl3 500  SAM500     -0.1439
     19  C8        -6.5470   48.8150    0.6620 C.3   500  SAM500      0.3377
     20  N7        -7.1420   47.6670    0.4420 N.2   500  SAM500     -0.2095
     21  C5        -7.6600   47.8180   -0.8860 C.2   500  SAM500      0.2526
     22  C6        -8.4120   46.9130   -1.7520 C.2   500  SAM500      0.4393
     23  N6        -8.7900   45.6790   -1.3510 N.pl3 500  SAM500      0.2180
     24  N1        -8.6830   47.4210   -2.9830 N.2   500  SAM500      0.0021
     25  C2        -8.3140   48.6400   -3.3330 C.3   500  SAM500      0.5254
     26  N3        -7.6160   49.6130   -2.6920 N.2   500  SAM500     -0.0055
     27  C4        -7.3290   49.0590   -1.4270 C.2   500  SAM500      0.3518
@<TRIPOS>BOND
     1    25    24    1
     2    25    26    1
     3    24    22    2
     4    26    27    2
     5     1     2    1
     6     4     3   ar
     7     2     3    1
     8     2     6    1
     9     3     5   ar
    10    22    23    1
    11    22    21    1
    12    27    21    1
    13    27    18    1
    14     7     6    1
    15     7     8    1
    16    21    20    2
    17    17    12    1
    18    17    18    1
    19    17    15    1
    20    12    11    1
    21    18    19    1
    22    11    10    1
    23    11    13    1
    24    14    13    1
    25    10     8    1
    26    16    15    1
    27    20    19    1
    28    13    15    1
    29     8     9    1
