@<TRIPOS>MOLECULE
1g63_FMN_A_1.pdb
 31 33 0 0 0
SMALL
GASTEIGER

@<TRIPOS>ATOM
      1  N1        14.7260   -5.0400   10.5680 N.2   500  FMN500     -0.2890
      2  C2        14.1300   -4.4150    9.5000 C.1   500  FMN500      0.3669
      3  O2        13.0550   -3.8900    9.5370 O.2   500  FMN500     -0.1744
      4  N3        14.8220   -4.3870    8.2580 N.2   500  FMN500     -0.2300
      5  C4        16.0350   -4.9320    8.0210 C.1   500  FMN500      0.2513
      6  O4        16.5270   -4.8740    6.8890 O.2   500  FMN500     -0.2057
      7  C4A       16.6660   -5.6300    9.1510 C.2   500  FMN500      0.2700
      8  N5        17.8760   -6.1610    9.0370 N.2   500  FMN500     -0.3878
      9  C5A       18.4980   -6.6480   10.1440 C.2   500  FMN500      0.1320
     10  C6        19.8710   -7.1400   10.0480 C.2   500  FMN500      0.0250
     11  C7        20.5140   -7.7690   11.0850 C.2   500  FMN500     -0.0238
     12  C7M       21.9680   -8.2580   10.9470 C.3   500  FMN500      0.0308
     13  C8        19.8980   -7.7430   12.4270 C.2   500  FMN500     -0.0280
     14  C8M       20.6190   -8.2910   13.6300 C.3   500  FMN500      0.0304
     15  C9        18.5780   -7.3050   12.5270 C.2   500  FMN500     -0.0041
     16  C9A       17.8540   -6.7590   11.4450 C.3   500  FMN500      0.1497
     17  N10       16.5170   -6.2730   11.5070 N.pl3 500  FMN500     -0.2691
     18  C10       15.9250   -5.6180   10.4360 C.2   500  FMN500      0.2416
     19  C1'       15.7860   -6.3090   12.7910 C.3   500  FMN500      0.1294
     20  C2'       15.9400   -4.9490   13.5120 C.3   500  FMN500      0.2044
     21  O2'       17.2980   -4.5640   13.7690 O.3   500  FMN500     -0.2185
     22  C3'       15.1940   -4.9750   14.8430 C.3   500  FMN500      0.2164
     23  O3'       13.7790   -5.1950   14.5950 O.3   500  FMN500     -0.2175
     24  C4'       15.3430   -3.7370   15.7150 C.3   500  FMN500      0.2147
     25  O4'       14.7550   -3.9580   17.0170 O.3   500  FMN500     -0.2176
     26  C5'       14.7710   -2.4650   15.1110 C.3   500  FMN500      0.1892
     27  O5'       15.0660   -1.3320   15.9460 O.3   500  FMN500     -0.2674
     28  P         14.9330    0.1650   15.4740 P.3   500  FMN500      0.5327
     29  O1P       13.5390    0.3420   15.0180 O.3   500  FMN500     -0.1145
     30  O2P       15.9470    0.4380   14.4080 O.2   500  FMN500     -0.2224
     31  O3P       15.2550    1.0120   16.7620 O.3   500  FMN500     -0.1145
@<TRIPOS>BOND
     1     6     5    2
     2     5     4    2
     3     5     7    1
     4     4     2    2
     5     8     7    2
     6     8     9    2
     7     7    18    1
     8     2     3    2
     9     2     1    2
    10    10     9    1
    11    10    11    2
    12     9    16    1
    13    18     1    2
    14    18    17    1
    15    12    11    1
    16    11    13    1
    17    16    17    1
    18    16    15    1
    19    17    19    1
    20    13    15    2
    21    13    14    1
    22    19    20    1
    23    20    21    1
    24    20    22    1
    25    30    28    2
    26    23    22    1
    27    22    24    1
    28    29    28    1
    29    26    24    1
    30    26    27    1
    31    28    27    1
    32    28    31    1
    33    24    25    1
