@<TRIPOS>MOLECULE
1g64_ATP_A_1.pdb
 31 33 0 0 0
SMALL
GASTEIGER

@<TRIPOS>ATOM
      1  PG        -0.6450   32.6420   44.6890 P.3   999  ATP999      0.5373
      2  O1G       -0.9800   33.6690   45.7090 O.3   999  ATP999     -0.1143
      3  O2G        0.7980   32.6760   44.5440 O.2   999  ATP999     -0.2221
      4  O3G       -1.0280   31.2090   45.0350 O.3   999  ATP999     -0.1143
      5  PB        -0.8160   34.3550   42.4450 P.3   999  ATP999      0.2277
      6  O1B        0.2180   33.8160   41.5220 O.2   999  ATP999     -0.5168
      7  O2B       -0.3830   35.5910   43.1250 O.3   999  ATP999     -0.4368
      8  O3B       -1.2850   33.2140   43.4170 O.3   999  ATP999     -0.2258
      9  PA        -3.4230   35.5400   41.8400 P.3   999  ATP999      0.2189
     10  O1A       -4.3150   35.6780   40.6450 O.2   999  ATP999     -0.5170
     11  O2A       -3.0850   36.8290   42.4800 O.3   999  ATP999     -0.4371
     12  O3A       -2.1940   34.5990   41.6440 O.3   999  ATP999     -0.2700
     13  O5'       -4.1760   34.5580   42.8230 O.3   999  ATP999     -0.3112
     14  C5'       -5.5340   34.7770   43.2080 C.3   999  ATP999      0.1813
     15  C4'       -6.0670   33.4330   43.6170 C.3   999  ATP999      0.1821
     16  O4'       -6.1520   32.6590   42.4330 O.3   999  ATP999     -0.3135
     17  C3'       -5.1850   32.5760   44.5000 C.3   999  ATP999      0.2184
     18  O3'       -6.0170   31.7560   45.3490 O.3   999  ATP999     -0.2174
     19  C2'       -4.4110   31.9270   43.6590 C.3   999  ATP999      0.2570
     20  O2'       -3.7450   30.8140   44.2400 O.3   999  ATP999     -0.2130
     21  C1'       -5.3140   31.5370   42.5400 C.3   999  ATP999      0.3186
     22  N9        -4.7010   31.4280   41.2680 N.pl3 999  ATP999     -0.1439
     23  C8        -3.5560   32.0110   40.8380 C.3   999  ATP999      0.3377
     24  N7        -3.2600   31.6450   39.5980 N.2   999  ATP999     -0.2095
     25  C5        -4.2850   30.7960   39.2300 C.2   999  ATP999      0.2526
     26  C6        -4.5030   30.1050   38.0150 C.2   999  ATP999      0.4393
     27  N6        -3.6360   30.2150   36.9830 N.pl3 999  ATP999      0.2180
     28  N1        -5.6230   29.3260   37.9990 N.2   999  ATP999      0.0021
     29  C2        -6.4340   29.2810   39.1170 C.3   999  ATP999      0.5254
     30  N3        -6.3070   29.8960   40.2710 N.2   999  ATP999     -0.0055
     31  C4        -5.2020   30.6720   40.2480 C.2   999  ATP999      0.3518
@<TRIPOS>BOND
     1    27    26    1
     2    28    26    2
     3    28    29    1
     4    26    25    1
     5    29    30    1
     6    25    24    2
     7    25    31    1
     8    24    23    1
     9    31    30    2
    10    31    22    1
    11    10     9    2
    12    23    22    1
    13    22    21    1
    14     6     5    2
    15    12     9    1
    16    12     5    1
    17     9    11    1
    18     9    13    1
    19    16    21    1
    20    16    15    1
    21     5     7    1
    22     5     8    1
    23    21    19    1
    24    13    14    1
    25    14    15    1
    26     8     1    1
    27    15    17    1
    28    19    20    1
    29    19    17    1
    30    17    18    1
    31     3     1    2
    32     1     4    1
    33     1     2    1
