@<TRIPOS>MOLECULE
1g65_III_3_1.pdb
 39 38 0 0 0
SMALL
GASTEIGER

@<TRIPOS>ATOM
      1  C         10.6550 -138.4660   24.1100 C.2     1  ACE1        0.2265
      2  O          9.7670 -137.6440   23.9140 O.2     1  ACE1       -0.2748
      3  CH3       10.2490 -139.5770   25.0550 C.3     1  ACE1        0.0948
      4  N         11.8780 -138.3340   23.4830 N.am    2  ILE2       -0.2712
      5  CA        12.0210 -137.1840   22.6070 C.3     2  ILE2        0.1534
      6  C         11.6290 -137.6080   21.2390 C.2     2  ILE2        0.2598
      7  OXT       12.2940 -138.4690   20.7080 O.2     2  ILE2       -0.2715
      8  CB        13.3680 -136.3930   22.9140 C.3     2  ILE2        0.0272
      9  CN        12.9520 -139.3000   23.6520 C.3     2  ILE2        0.1153
     10  CG2       13.6720 -135.3210   21.8120 C.3     2  ILE2        0.0022
     11  CG1       13.2560 -135.7110   24.3370 C.3     2  ILE2        0.0021
     12  CD1       14.5200 -134.9200   24.7990 C.3     2  ILE2        0.0001
     13  N         10.5010 -137.0850   20.7000 N.am    3  ILE3       -0.1964
     14  CA         9.9750 -137.4780   19.4150 C.3     3  ILE3        0.1727
     15  C         10.9030 -137.2520   18.3260 C.2     3  ILE3        0.2617
     16  O         11.6240 -136.3400   18.3530 O.2     3  ILE3       -0.2715
     17  CB         8.6060 -136.8150   19.2340 C.3     3  ILE3        0.0290
     18  CG1        7.7660 -137.3910   20.3970 C.3     3  ILE3        0.0022
     19  CG2        7.9770 -137.1270   17.8670 C.3     3  ILE3        0.0023
     20  CD1        6.2990 -136.8710   20.4700 C.3     3  ILE3        0.0001
     21  N         10.8780 -138.1150   17.2970 N.am    4  THR4       -0.1937
     22  CA        11.8050 -137.9000   16.2500 C.3     4  THR4        0.2028
     23  C         11.1630 -138.0620   14.9120 C.2     4  THR4        0.2638
     24  O          9.9620 -138.3550   14.8970 O.2     4  THR4       -0.2714
     25  CB        13.0200 -138.7950   16.5370 C.3     4  THR4        0.1808
     26  OG1       14.0860 -138.5520   15.6580 O.3     4  THR4       -0.2208
     27  CG2       12.5720 -140.2740   16.4630 C.3     4  THR4        0.0379
     28  N5        11.8720 -137.8670   13.7970 N.am    5  04D5       -0.2031
     29  O6        10.8960 -139.7970   11.6050 O.3     5  04D5       -0.2212
     30  O7        15.8310 -139.4210   11.1490 O.3     5  04D5       -0.2203
     31  C20       11.1730 -137.6770   12.5440 C.3     5  04D5        0.1257
     32  C21       11.6510 -138.5670   11.2830 C.3     5  04D5        0.1742
     33  C23        9.8280 -135.3290   12.4910 C.3     5  04D5        0.0018
     34  C24        8.9010 -135.7510   13.6690 C.3     5  04D5        0.0001
     35  C25       10.1390 -133.8590   12.7120 C.3     5  04D5        0.0001
     36  C26       11.1990 -136.1200   12.3190 C.3     5  04D5        0.0243
     37  C27       14.6290 -138.5360   11.2600 C.3     5  04D5        0.1846
     38  C28       13.3420 -140.5710   12.2330 C.3     5  04D5        0.0054
     39  C29       13.1740 -139.3410   11.2020 C.3     5  04D5        0.0651
@<TRIPOS>BOND
     1    30    37    1
     2    39    37    1
     3    39    32    1
     4    39    38    1
     5    32    29    1
     6    32    31    1
     7    36    33    1
     8    36    31    1
     9    33    35    1
    10    33    34    1
    11    31    28    1
    12    28    23   am
    13    24    23    2
    14    23    22    1
    15    26    25    1
    16    22    25    1
    17    22    21    1
    18    27    25    1
    19    21    15   am
    20    19    17    1
    21    15    16    2
    22    15    14    1
    23    17    14    1
    24    17    18    1
    25    14    13    1
    26    18    20    1
    27    13     6   am
    28     7     6    2
    29     6     5    1
    30    10     8    1
    31     5     8    1
    32     5     4    1
    33     8    11    1
    34     4     9    1
    35     4     1   am
    36     2     1    2
    37     1     3    1
    38    11    12    1
