@<TRIPOS>MOLECULE
1g67_TZP_A_1.pdb
 13 13 0 0 0
SMALL
GASTEIGER

@<TRIPOS>ATOM
      1  N3        12.5710   44.9000   18.0930 N.2   2005  TZP2005    -0.2662
      2  C2        11.2920   44.6920   17.7560 C.3   2005  TZP2005     0.1825
      3  S1        10.3400   44.2250   19.0520 S.3   2005  TZP2005    -0.1093
      4  C5        11.7360   44.3180   20.0830 C.3   2005  TZP2005     0.0874
      5  C4        12.8420   44.6970   19.3820 C.2   2005  TZP2005     0.0427
      6  CM4       14.2360   44.8860   19.9270 C.3   2005  TZP2005     0.0477
      7  C6        11.6820   44.0090   21.5530 C.3   2005  TZP2005     0.0492
      8  C7        11.8070   42.6060   22.0090 C.3   2005  TZP2005     0.1550
      9  O7        11.6620   42.6620   23.4410 O.3   2005  TZP2005    -0.2702
     10  P1        10.6960   41.6580   24.1860 P.3   2005  TZP2005     0.5326
     11  O1         9.3760   41.9710   23.5870 O.2   2005  TZP2005    -0.2224
     12  O2        10.8780   41.8750   25.6330 O.3   2005  TZP2005    -0.1145
     13  O3        11.2460   40.1890   23.8300 O.3   2005  TZP2005    -0.1145
@<TRIPOS>BOND
     1     2     1    1
     2     2     3    1
     3     1     5    2
     4     3     4    1
     5     5     6    1
     6     5     4    1
     7     4     7    1
     8     7     8    1
     9     8     9    1
    10     9    10    1
    11    11    10    2
    12    13    10    1
    13    10    12    1
