@<TRIPOS>MOLECULE
1g69_TZP_A_1.pdb
 13 13 0 0 0
SMALL
GASTEIGER

@<TRIPOS>ATOM
      1  N3        12.4310   44.9730   18.1810 N.2   2005  TZP2005    -0.2662
      2  C2        11.1420   44.7760   17.8630 C.3   2005  TZP2005     0.1825
      3  S1        10.2050   44.2810   19.1660 S.3   2005  TZP2005    -0.1093
      4  C5        11.6210   44.3470   20.1710 C.3   2005  TZP2005     0.0874
      5  C4        12.7170   44.7400   19.4620 C.2   2005  TZP2005     0.0427
      6  CM4       14.1140   44.9100   19.9960 C.3   2005  TZP2005     0.0477
      7  C6        11.5930   44.0030   21.6310 C.3   2005  TZP2005     0.0492
      8  C7        11.7700   42.5900   22.0360 C.3   2005  TZP2005     0.1550
      9  O7        11.6500   42.5960   23.4650 O.3   2005  TZP2005    -0.2702
     10  P1        10.7370   41.5310   24.1990 P.3   2005  TZP2005     0.5326
     11  O1         9.3890   41.7940   23.6150 O.2   2005  TZP2005    -0.2224
     12  O2        10.9210   41.7440   25.6440 O.3   2005  TZP2005    -0.1145
     13  O3        11.3370   40.1060   23.8070 O.3   2005  TZP2005    -0.1145
@<TRIPOS>BOND
     1     2     1    1
     2     2     3    1
     3     1     5    2
     4     3     4    1
     5     5     6    1
     6     5     4    1
     7     4     7    1
     8     7     8    1
     9     8     9    1
    10     9    10    1
    11    11    10    2
    12    13    10    1
    13    10    12    1
