@<TRIPOS>MOLECULE
1g6c_IFP_A_1.pdb
 12 12 0 0 0
SMALL
GASTEIGER

@<TRIPOS>ATOM
      1  N1A       15.2340   41.5480   15.0720 N.2   2001  IFP2001    -0.1796
      2  C2A       16.3750   41.2160   15.7740 C.1   2001  IFP2001     0.1609
      3  CM2       16.8550   39.8510   15.6340 C.3   2001  IFP2001     0.4892
      4  N3A       17.0230   42.0700   16.5520 N.2   2001  IFP2001    -0.3291
      5  C4A       16.5520   43.3540   16.6800 C.2   2001  IFP2001     0.2279
      6  N4A       17.2410   44.1730   17.4770 N.pl3 2001  IFP2001    -0.0925
      7  C5A       15.3470   43.7530   15.9590 C.2   2001  IFP2001     0.0459
      8  C6A       14.7460   42.8100   15.1780 C.2   2001  IFP2001     0.1101
      9  C7A       14.7370   45.1090   16.0210 C.3   2001  IFP2001     0.0369
     10  F1        16.2210   39.0440   16.4630 F     2001  IFP2001    -0.1566
     11  F2        18.1430   39.7980   15.9080 F     2001  IFP2001    -0.1566
     12  F3        16.6430   39.4150   14.4120 F     2001  IFP2001    -0.1566
@<TRIPOS>BOND
     1    12     3    1
     2     1     8    1
     3     1     2    2
     4     8     7    2
     5     3     2    1
     6     3    11    1
     7     3    10    1
     8     2     4    2
     9     7     9    1
    10     7     5    1
    11     4     5    2
    12     5     6    1
