@<TRIPOS>MOLECULE
1g6c_TZP_A_1.pdb
 13 13 0 0 0
SMALL
GASTEIGER

@<TRIPOS>ATOM
      1  N3        12.7800   44.6250   18.0690 N.2   2005  TZP2005    -0.2662
      2  C2        11.5080   44.4180   17.7110 C.3   2005  TZP2005     0.1825
      3  S1        10.5360   43.9790   18.9960 S.3   2005  TZP2005    -0.1093
      4  C5        11.9120   44.0820   20.0500 C.3   2005  TZP2005     0.0874
      5  C4        13.0280   44.4440   19.3670 C.2   2005  TZP2005     0.0427
      6  CM4       14.4120   44.6370   19.9350 C.3   2005  TZP2005     0.0477
      7  C6        11.8300   43.7970   21.5200 C.3   2005  TZP2005     0.0492
      8  C7        11.9100   42.3950   21.9720 C.3   2005  TZP2005     0.1550
      9  O7        11.7820   42.4570   23.4010 O.3   2005  TZP2005    -0.2702
     10  P1        10.8380   41.4370   24.1640 P.3   2005  TZP2005     0.5326
     11  O1         9.4860   41.7100   23.6060 O.2   2005  TZP2005    -0.2224
     12  O2        11.0400   41.6860   25.5970 O.3   2005  TZP2005    -0.1145
     13  O3        11.3710   39.9700   23.8230 O.3   2005  TZP2005    -0.1145
@<TRIPOS>BOND
     1     2     1    1
     2     2     3    1
     3     1     5    2
     4     3     4    1
     5     5     6    1
     6     5     4    1
     7     4     7    1
     8     7     8    1
     9     8     9    1
    10     9    10    1
    11    11    10    2
    12    13    10    1
    13    10    12    1
