@<TRIPOS>MOLECULE
1g6h_ADP_A_1.pdb
 27 29 0 0 0
SMALL
GASTEIGER

@<TRIPOS>ATOM
      1  PB        21.3210   21.9380   41.8980 P.3   300  ADP300      0.5373
      2  O1B       22.7680   22.0760   41.5240 O.3   300  ADP300     -0.1143
      3  O2B       20.3680   22.9660   41.1520 O.2   300  ADP300     -0.2221
      4  O3B       20.8580   20.5720   41.6060 O.3   300  ADP300     -0.1143
      5  PA        22.1250   22.9290   44.5310 P.3   300  ADP300      0.2231
      6  O1A       22.3010   24.3160   44.2060 O.2   300  ADP300     -0.5169
      7  O2A       23.4210   22.3130   44.6690 O.3   300  ADP300     -0.4370
      8  O3A       21.1850   22.2880   43.4280 O.3   300  ADP300     -0.2261
      9  O5'       21.3270   22.6410   45.8460 O.3   300  ADP300     -0.3111
     10  C5'       20.0130   23.0580   45.8790 C.3   300  ADP300      0.1813
     11  C4'       19.4870   23.3750   47.2620 C.3   300  ADP300      0.1821
     12  O4'       20.5520   23.7540   48.1700 O.3   300  ADP300     -0.3135
     13  C3'       18.6450   24.5480   47.0570 C.3   300  ADP300      0.2184
     14  O3'       17.5050   24.6010   47.9100 O.3   300  ADP300     -0.2174
     15  C2'       19.5850   25.6870   47.2740 C.3   300  ADP300      0.2570
     16  O2'       18.8120   26.8620   47.4370 O.3   300  ADP300     -0.2130
     17  C1'       20.4090   25.1690   48.4870 C.3   300  ADP300      0.3186
     18  N9        21.8500   25.7290   48.6410 N.pl3 300  ADP300     -0.1439
     19  C8        22.8700   25.4410   47.8280 C.3   300  ADP300      0.3377
     20  N7        23.9980   26.0490   48.2470 N.2   300  ADP300     -0.2095
     21  C5        23.7310   26.6960   49.3260 C.2   300  ADP300      0.2526
     22  C6        24.4670   27.4870   50.1700 C.2   300  ADP300      0.4393
     23  N6        25.7660   27.6620   49.9580 N.pl3 300  ADP300      0.2180
     24  N1        23.8880   28.0500   51.2410 N.2   300  ADP300      0.0021
     25  C2        22.5930   27.8860   51.5030 C.3   300  ADP300      0.5254
     26  N3        21.8400   27.1300   50.6740 N.2   300  ADP300     -0.0055
     27  C4        22.3570   26.5130   49.5990 C.2   300  ADP300      0.3518
@<TRIPOS>BOND
     1     3     1    2
     2     2     1    1
     3     4     1    1
     4     1     8    1
     5     8     5    1
     6     6     5    2
     7     5     7    1
     8     5     9    1
     9     9    10    1
    10    10    11    1
    11    13    11    1
    12    13    15    1
    13    13    14    1
    14    11    12    1
    15    15    16    1
    16    15    17    1
    17    19    20    1
    18    19    18    1
    19    12    17    1
    20    20    21    2
    21    17    18    1
    22    18    27    1
    23    21    27    1
    24    21    22    1
    25    27    26    2
    26    23    22    1
    27    22    24    2
    28    26    25    1
    29    24    25    1
