@<TRIPOS>MOLECULE
1g6i_DMJ_A_1.pdb
 11 11 0 0 0
SMALL
GASTEIGER

@<TRIPOS>ATOM
      1  C4        -9.2210   60.8590   -0.8180 C.3   1002  DMJ1002     0.2031
      2  O4        -8.4820   59.6450   -1.0190 O.3   1002  DMJ1002    -0.2187
      3  C3        -8.8030   61.7490   -2.0750 C.3   1002  DMJ1002     0.2151
      4  O3        -9.4140   63.0420   -2.0880 O.3   1002  DMJ1002    -0.2176
      5  C2        -9.1920   61.0000   -3.4290 C.3   1002  DMJ1002     0.2020
      6  O2        -8.8240   61.8020   -4.5350 O.3   1002  DMJ1002    -0.2188
      7  C1       -10.7510   60.7270   -3.4070 C.3   1002  DMJ1002     0.1243
      8  N5       -10.9630   59.8630   -2.2430 N.3   1002  DMJ1002    -0.2113
      9  C5       -10.7320   60.4170   -0.8150 C.3   1002  DMJ1002     0.1386
     10  C6       -11.7460   61.5620   -0.5560 C.3   1002  DMJ1002     0.2020
     11  O6       -13.0760   61.9100   -0.9010 O.3   1002  DMJ1002    -0.2188
@<TRIPOS>BOND
     1     6     5    1
     2     5     7    1
     3     5     3    1
     4     7     8    1
     5     8     9    1
     6     4     3    1
     7     3     1    1
     8     2     1    1
     9    11    10    1
    10     1     9    1
    11     9    10    1
