@<TRIPOS>MOLECULE
1g6k_NAD_A_1.pdb
 44 48 0 0 0
SMALL
GASTEIGER

@<TRIPOS>ATOM
      1  PA        37.4910   12.3790   -7.8940 P.3   1262  NAD1262     0.2189
      2  O1A       36.9120   12.7890   -6.5900 O.3   1262  NAD1262    -0.4371
      3  O2A       37.2130   13.2820   -9.0460 O.2   1262  NAD1262    -0.5170
      4  O5B       37.0210   10.8860   -8.3020 O.3   1262  NAD1262    -0.3112
      5  C5B       36.6110    9.9660   -7.2740 C.3   1262  NAD1262     0.1813
      6  C4B       35.2470    9.4430   -7.6370 C.3   1262  NAD1262     0.1821
      7  O4B       34.8840    8.5490   -6.5650 O.3   1262  NAD1262    -0.3135
      8  C3B       34.1640   10.5290   -7.6940 C.3   1262  NAD1262     0.2184
      9  O3B       33.5800   10.5570   -9.0090 O.3   1262  NAD1262    -0.2174
     10  C2B       33.2390   10.1340   -6.5470 C.3   1262  NAD1262     0.2570
     11  O2B       31.8620   10.4650   -6.8210 O.3   1262  NAD1262    -0.2130
     12  C1B       33.5040    8.6460   -6.4160 C.3   1262  NAD1262     0.3186
     13  N9A       33.1620    8.0910   -5.1200 N.pl3 1262  NAD1262    -0.1439
     14  C8A       33.5470    8.5360   -3.8840 C.3   1262  NAD1262     0.3377
     15  N7A       33.0520    7.8120   -2.8830 N.2   1262  NAD1262    -0.2095
     16  C5A       32.3020    6.8400   -3.5220 C.2   1262  NAD1262     0.2526
     17  C6A       31.5280    5.7750   -3.0180 C.2   1262  NAD1262     0.4393
     18  N6A       31.3480    5.4700   -1.7450 N.pl3 1262  NAD1262     0.2180
     19  N1A       30.8920    4.9680   -3.9270 N.2   1262  NAD1262     0.0021
     20  C2A       31.0570    5.2580   -5.2580 C.3   1262  NAD1262     0.5254
     21  N3A       31.7450    6.2160   -5.8380 N.2   1262  NAD1262    -0.0055
     22  C4A       32.3590    6.9910   -4.9010 C.2   1262  NAD1262     0.3518
     23  O3        39.0110   12.1590   -7.7190 O.3   1262  NAD1262    -0.2703
     24  PN        40.1630   11.7000   -8.7950 P.3   1262  NAD1262     0.2189
     25  O1N       41.0990   12.8280   -8.8690 O.3   1262  NAD1262    -0.4371
     26  O2N       39.4750   11.3990  -10.0840 O.2   1262  NAD1262    -0.5170
     27  O5D       40.7720   10.4670   -7.9960 O.3   1262  NAD1262    -0.3112
     28  C5D       40.6000    9.1600   -8.5740 C.3   1262  NAD1262     0.1813
     29  C4D       41.2720    8.1290   -7.6960 C.3   1262  NAD1262     0.1799
     30  O4D       42.6930    8.3800   -7.8520 O.3   1262  NAD1262    -0.3327
     31  C3D       41.0040    8.1940   -6.1930 C.3   1262  NAD1262     0.2158
     32  O3D       40.9510    6.8630   -5.6470 O.3   1262  NAD1262    -0.2175
     33  C2D       42.2060    8.9720   -5.6490 C.3   1262  NAD1262     0.2309
     34  O2D       42.4970    8.5580   -4.2910 O.3   1262  NAD1262    -0.2158
     35  C1D       43.3110    8.5940   -6.6090 C.3   1262  NAD1262     0.2263
     36  N1N       44.3390    9.6420   -6.7420 N.pl3 1262  NAD1262    -0.2787
     37  C2N       44.0950   10.8840   -7.3780 C.3   1262  NAD1262     0.1244
     38  C3N       45.1740   11.9200   -7.5050 C.2   1262  NAD1262     0.0544
     39  C7N       44.8380   13.1900   -8.1910 C.2   1262  NAD1262     0.2818
     40  O7N       45.7410   14.0430   -8.2930 O.2   1262  NAD1262    -0.2670
     41  N7N       43.6280   13.4510   -8.6950 N.am  1262  NAD1262    -0.0839
     42  C4N       46.5370   11.6200   -6.9160 C.2   1262  NAD1262     0.0033
     43  C5N       46.6190   10.2720   -6.2830 C.2   1262  NAD1262     0.0157
     44  C6N       45.6360    9.3930   -6.2090 C.2   1262  NAD1262     0.0633
@<TRIPOS>BOND
     1    26    24    2
     2     3     1    2
     3     9     8    1
     4    25    24    1
     5    24    27    1
     6    24    23    1
     7    41    39   am
     8    28    27    1
     9    28    29    1
    10     4     1    1
    11     4     5    1
    12    40    39    2
    13    39    38    1
    14     1    23    1
    15     1     2    1
    16    30    29    1
    17    30    35    1
    18    29    31    1
    19     8     6    1
    20     8    10    1
    21     6     5    1
    22     6     7    1
    23    38    37    1
    24    38    42    2
    25    37    36    1
    26    42    43    1
    27    11    10    1
    28    36    35    1
    29    36    44    1
    30    35    33    1
    31     7    12    1
    32    10    12    1
    33    12    13    1
    34    43    44    2
    35    31    33    1
    36    31    32    1
    37    21    20    1
    38    21    22    2
    39    33    34    1
    40    20    19    1
    41    13    22    1
    42    13    14    1
    43    22    16    1
    44    19    17    2
    45    14    15    1
    46    16    17    1
    47    16    15    2
    48    17    18    1
