@<TRIPOS>MOLECULE
1g6n_CMP_A_1.pdb
 22 25 0 0 0
SMALL
GASTEIGER

@<TRIPOS>ATOM
      1  P         40.5580   42.0620   52.0210 P.3   621  CMP621      0.2141
      2  O1P       40.2840   41.0320   50.9630 O.2   621  CMP621     -0.5172
      3  O2P       40.6600   41.6900   53.4130 O.3   621  CMP621     -0.4373
      4  O5'       41.8520   42.8720   51.5310 O.3   621  CMP621     -0.3114
      5  C5'       41.7640   43.6000   50.2980 C.3   621  CMP621      0.1812
      6  C4'       40.6950   44.6410   50.5130 C.3   621  CMP621      0.1793
      7  O4'       40.3340   45.3930   49.3610 O.3   621  CMP621     -0.3136
      8  C3'       39.4000   43.9620   50.7210 C.3   621  CMP621      0.1884
      9  O3'       39.5110   43.3140   52.0320 O.3   621  CMP621     -0.3111
     10  C2'       38.3100   45.0890   50.7230 C.3   621  CMP621      0.2541
     11  O2'       38.6560   45.8730   51.8520 O.3   621  CMP621     -0.2131
     12  C1'       38.9420   45.8500   49.4620 C.3   621  CMP621      0.3185
     13  N9        38.3420   45.4400   48.1760 N.pl3 621  CMP621     -0.1439
     14  C8        38.4490   44.2440   47.4610 C.3   621  CMP621      0.3377
     15  N7        37.6760   44.1950   46.4090 N.2   621  CMP621     -0.2095
     16  C5        37.0100   45.3890   46.4110 C.2   621  CMP621      0.2526
     17  C6        36.1030   45.9350   45.4950 C.2   621  CMP621      0.4393
     18  N6        35.5500   45.3190   44.4450 N.pl3 621  CMP621      0.2180
     19  N1        35.7080   47.1940   45.8190 N.2   621  CMP621      0.0021
     20  C2        36.1730   47.8440   46.8630 C.3   621  CMP621      0.5254
     21  N3        37.0390   47.4410   47.7610 N.2   621  CMP621     -0.0055
     22  C4        37.4030   46.1750   47.4660 C.2   621  CMP621      0.3518
@<TRIPOS>BOND
     1    18    17    1
     2    17    19    2
     3    17    16    1
     4    19    20    1
     5    15    16    2
     6    15    14    1
     7    16    22    1
     8    20    21    1
     9    14    13    1
    10    22    21    2
    11    22    13    1
    12    13    12    1
    13     7    12    1
    14     7     6    1
    15    12    10    1
    16     5     6    1
    17     5     4    1
    18     6     8    1
    19     8    10    1
    20     8     9    1
    21    10    11    1
    22     2     1    2
    23     4     1    1
    24     1     9    1
    25     1     3    1
