@<TRIPOS>MOLECULE
1g6o_ADP_A_1.pdb
 27 29 0 0 0
SMALL
GASTEIGER

@<TRIPOS>ATOM
      1  PB       -36.5720   56.5620   22.4960 P.3   401  ADP401      0.5373
      2  O1B      -35.9320   56.8630   21.2070 O.2   401  ADP401     -0.2221
      3  O2B      -36.7830   57.8980   23.3470 O.3   401  ADP401     -0.1143
      4  O3B      -35.7350   55.5530   23.2870 O.3   401  ADP401     -0.1143
      5  PA       -39.0640   55.3470   23.0870 P.3   401  ADP401      0.2231
      6  O1A      -38.4000   54.8850   24.3140 O.3   401  ADP401     -0.4370
      7  O2A      -39.6390   54.2290   22.3490 O.2   401  ADP401     -0.5169
      8  O3A      -38.0100   56.0900   22.2380 O.3   401  ADP401     -0.2261
      9  O5'      -40.1480   56.4830   23.4440 O.3   401  ADP401     -0.3111
     10  C5'      -41.1740   56.9290   22.5260 C.3   401  ADP401      0.1813
     11  C4'      -42.6250   56.8070   23.0970 C.3   401  ADP401      0.1821
     12  O4'      -43.4850   56.5880   21.9780 O.3   401  ADP401     -0.3135
     13  C3'      -42.8620   55.6490   24.0470 C.3   401  ADP401      0.2184
     14  O3'      -43.6340   56.0380   25.1910 O.3   401  ADP401     -0.2174
     15  C2'      -43.5610   54.5960   23.2550 C.3   401  ADP401      0.2570
     16  O2'      -44.4250   53.8010   24.0640 O.3   401  ADP401     -0.2130
     17  C1'      -44.2360   55.3790   22.0950 C.3   401  ADP401      0.3186
     18  N9       -44.1240   54.7040   20.7450 N.pl3 401  ADP401     -0.1439
     19  C8       -42.9940   54.2050   20.2380 C.3   401  ADP401      0.3377
     20  N7       -43.2020   53.6580   19.0490 N.2   401  ADP401     -0.2095
     21  C5       -44.4440   53.8020   18.7560 C.2   401  ADP401      0.2526
     22  C6       -45.2650   53.4020   17.6460 C.2   401  ADP401      0.4393
     23  N6       -44.7320   52.7630   16.5880 N.pl3 401  ADP401      0.2180
     24  N1       -46.6210   53.7210   17.6570 N.2   401  ADP401      0.0021
     25  C2       -47.2080   54.3850   18.7350 C.3   401  ADP401      0.5254
     26  N3       -46.4080   54.7560   19.8200 N.2   401  ADP401     -0.0055
     27  C4       -45.0740   54.4640   19.8710 C.2   401  ADP401      0.3518
@<TRIPOS>BOND
     1    23    22    1
     2    22    24    2
     3    22    21    1
     4    24    25    1
     5    25    26    1
     6    21    20    2
     7    21    27    1
     8    20    19    1
     9    26    27    2
    10    27    18    1
    11    19    18    1
    12    18    17    1
    13     2     1    2
    14    12    17    1
    15    12    11    1
    16    17    15    1
    17     8     1    1
    18     8     5    1
    19     7     5    2
    20     1     4    1
    21     1     3    1
    22    10    11    1
    23    10     9    1
    24     5     9    1
    25     5     6    1
    26    11    13    1
    27    15    13    1
    28    15    16    1
    29    13    14    1
