@<TRIPOS>MOLECULE
1g6s_S3P_A_1.pdb
 16 16 0 0 0
SMALL
GASTEIGER

@<TRIPOS>ATOM
      1  C1        55.9200   12.3110   28.0800 C.2   601  S3P601      0.0583
      2  C2        54.8520   11.4170   28.1900 C.2   601  S3P601      0.0084
      3  C3        54.9570   10.1530   29.0090 C.3   601  S3P601      0.1809
      4  C4        56.1720   10.1590   29.9640 C.3   601  S3P601      0.2140
      5  C5        57.4210   10.6520   29.2270 C.3   601  S3P601      0.1895
      6  C6        57.1640   12.1000   28.7920 C.3   601  S3P601      0.0684
      7  C7        55.7340   13.5390   27.2470 C.2   601  S3P601      0.3837
      8  O1        54.9510    8.9680   28.1100 O.3   601  S3P601     -0.2655
      9  O2        56.3380    8.8390   30.4950 O.3   601  S3P601     -0.2174
     10  O3        58.5520   10.6080   30.1070 O.3   601  S3P601     -0.2200
     11  O4        54.8180   13.5330   26.3810 O.co2 601  S3P601     -0.2409
     12  O5        56.4720   14.4900   27.4930 O.co2 601  S3P601     -0.2409
     13  P1        53.5890    8.0280   27.8830 P.3   601  S3P601      0.5329
     14  O6        52.5400    8.8970   27.3000 O.3   601  S3P601     -0.1145
     15  O7        53.2750    7.5200   29.2850 O.3   601  S3P601     -0.1145
     16  O8        54.0720    6.9740   26.9310 O.2   601  S3P601     -0.2224
@<TRIPOS>BOND
     1    11     7   ar
     2    16    13    2
     3     7    12   ar
     4     7     1    1
     5    14    13    1
     6    13     8    1
     7    13    15    1
     8     1     2    2
     9     1     6    1
    10     8     3    1
    11     2     3    1
    12     6     5    1
    13     3     4    1
    14     5     4    1
    15     5    10    1
    16     4     9    1
