@<TRIPOS>MOLECULE
1g6s_GPJ_A_1.pdb
 10 9 0 0 0
SMALL
GASTEIGER

@<TRIPOS>ATOM
      1  P1        60.3840    8.8390   26.8870 P.3   701  GPJ701      0.1347
      2  O1        60.4240   10.2600   27.2710 O.3   701  GPJ701     -0.3562
      3  O2        59.3150    8.4940   25.9520 O.2   701  GPJ701     -0.4587
      4  O3        61.7380    8.3410   26.3930 O.3   701  GPJ701     -0.3562
      5  O4        61.1290    9.9490   31.6540 O.co2 701  GPJ701     -0.2440
      6  O5        60.4020    8.4080   33.0850 O.co2 701  GPJ701     -0.2440
      7  C1        59.9270    7.8940   28.2900 C.3   701  GPJ701      0.1476
      8  C2        60.0230    7.9670   30.8320 C.3   701  GPJ701      0.2033
      9  C3        60.5670    8.8430   31.9530 C.2   701  GPJ701      0.3823
     10  N1        60.3860    8.5590   29.4990 N.3   701  GPJ701     -0.1988
@<TRIPOS>BOND
     1     3     1    2
     2     4     1    1
     3     1     2    1
     4     1     7    1
     5     7    10    1
     6    10     8    1
     7     8     9    1
     8     5     9   ar
     9     9     6   ar
