@<TRIPOS>MOLECULE
1g6t_S3P_A_1.pdb
 16 16 0 0 0
SMALL
GASTEIGER

@<TRIPOS>ATOM
      1  C1        56.4340   12.3940   28.1410 C.2   601  S3P601      0.0583
      2  C2        55.3100   11.5560   28.2960 C.2   601  S3P601      0.0084
      3  C3        55.3510   10.2960   29.1020 C.3   601  S3P601      0.1809
      4  C4        56.5630   10.2560   30.0380 C.3   601  S3P601      0.2140
      5  C5        57.8440   10.6170   29.2720 C.3   601  S3P601      0.1895
      6  C6        57.6880   12.0800   28.7790 C.3   601  S3P601      0.0684
      7  C7        56.2980   13.6280   27.2980 C.2   601  S3P601      0.3837
      8  O1        55.2730    9.1200   28.1660 O.3   601  S3P601     -0.2655
      9  O2        56.6200    8.9720   30.6180 O.3   601  S3P601     -0.2174
     10  O3        58.9630   10.5030   30.1260 O.3   601  S3P601     -0.2200
     11  O4        55.3940   13.6300   26.4390 O.co2 601  S3P601     -0.2409
     12  O5        57.0770   14.5740   27.4970 O.co2 601  S3P601     -0.2409
     13  P1        53.8910    8.1070   27.8710 P.3   601  S3P601      0.5329
     14  O6        52.8830    8.9630   27.2530 O.3   601  S3P601     -0.1145
     15  O7        53.5190    7.6540   29.2410 O.3   601  S3P601     -0.1145
     16  O8        54.3990    7.0850   26.9180 O.2   601  S3P601     -0.2224
@<TRIPOS>BOND
     1    11     7   ar
     2    16    13    2
     3    14    13    1
     4     7    12   ar
     5     7     1    1
     6    13     8    1
     7    13    15    1
     8     1     2    2
     9     1     6    1
    10     8     3    1
    11     2     3    1
    12     6     5    1
    13     3     4    1
    14     5     4    1
    15     5    10    1
    16     4     9    1
