@<TRIPOS>MOLECULE
1g72_PQQ_A_1.pdb
 24 26 0 0 0
SMALL
GASTEIGER

@<TRIPOS>ATOM
      1  N1        20.6100    8.0510    5.9110 N.2   701  PQQ701     -0.3987
      2  C2        19.7640    6.9640    5.8160 C.2   701  PQQ701      0.2104
      3  C2X       19.7140    5.8250    6.7860 C.2   701  PQQ701      0.4168
      4  O2A       20.6850    5.7130    7.5600 O.co2 701  PQQ701     -0.2377
      5  O2B       18.7110    5.0720    6.7570 O.co2 701  PQQ701     -0.2377
      6  C3        19.0160    7.0800    4.6740 C.2   701  PQQ701      0.0441
      7  C3A       19.4270    8.2760    4.0580 C.2   701  PQQ701      0.0665
      8  C1A       20.4230    8.8570    4.8580 C.2   701  PQQ701      0.1225
      9  C4        18.9920    8.8550    2.7940 C.2   701  PQQ701      0.2120
     10  O4        18.3910    8.2910    1.9180 O.2   701  PQQ701     -0.2881
     11  C5        19.3580   10.3680    2.5940 C.3   701  PQQ701      0.2608
     12  O5        19.5350   10.6120    1.2100 O.3   701  PQQ701     -0.2073
     13  C6A       20.6750   10.7740    3.3630 C.2   701  PQQ701      0.1352
     14  N6        21.2430   11.8640    2.8220 N.2   701  PQQ701     -0.4001
     15  C7        22.3200   12.3990    3.4390 C.2   701  PQQ701      0.2099
     16  C7X       23.0470   13.5370    2.7410 C.2   701  PQQ701      0.4168
     17  O7A       22.5240   13.9830    1.6990 O.co2 701  PQQ701     -0.2377
     18  O7B       24.1160   13.9570    3.2340 O.co2 701  PQQ701     -0.2377
     19  C8        22.8450   11.8570    4.6120 C.2   701  PQQ701      0.0419
     20  C9        22.2700   10.6930    5.2090 C.2   701  PQQ701      0.0731
     21  C9X       22.9660   10.0660    6.4270 C.2   701  PQQ701      0.3847
     22  O9A       24.1890   10.2890    6.5570 O.co2 701  PQQ701     -0.2409
     23  O9B       22.2810    9.4280    7.2500 O.co2 701  PQQ701     -0.2409
     24  C9A       21.1300   10.1240    4.5520 C.3   701  PQQ701      0.1320
@<TRIPOS>BOND
     1    12    11    1
     2    17    16   ar
     3    10     9    2
     4    11     9    1
     5    11    13    1
     6    16    18   ar
     7    16    15    1
     8     9     7    1
     9    14    13    2
    10    14    15    2
    11    13    24    1
    12    15    19    1
    13     7     6    2
    14     7     8    1
    15    24     8    1
    16    24    20    1
    17    19    20    2
    18     6     2    1
    19     8     1    2
    20    20    21    1
    21     2     1    2
    22     2     3    1
    23    21    22   ar
    24    21    23   ar
    25     5     3   ar
    26     3     4   ar
