@<TRIPOS>MOLECULE
1g74_OLA_A_1.pdb
 20 19 0 0 0
SMALL
GASTEIGER

@<TRIPOS>ATOM
      1  C1       -49.3100   66.7060  -12.0240 C.2   132  OLA132      0.3649
      2  O1       -49.8630   67.5500  -12.7240 O.co2 132  OLA132     -0.2457
      3  O2       -49.2590   65.5400  -12.3780 O.co2 132  OLA132     -0.2457
      4  C2       -48.6860   67.0870  -10.7120 C.3   132  OLA132      0.1141
      5  C3       -47.2540   67.5360  -10.9030 C.3   132  OLA132      0.0118
      6  C4       -46.5990   67.9150   -9.6010 C.3   132  OLA132      0.0006
      7  C5       -45.4230   66.9660   -9.3680 C.3   132  OLA132      0.0000
      8  C6       -45.8350   65.7410   -8.5460 C.3   132  OLA132      0.0003
      9  C7       -45.9060   66.0990   -7.0750 C.3   132  OLA132      0.0047
     10  C8       -44.5580   66.2530   -6.4030 C.3   132  OLA132      0.0257
     11  C9       -44.8620   66.6500   -5.0530 C.2   132  OLA132     -0.0307
     12  C10      -44.9200   67.9780   -4.5750 C.2   132  OLA132     -0.0307
     13  C11      -44.6790   69.2080   -5.3240 C.3   132  OLA132      0.0257
     14  C12      -45.9140   69.6490   -6.0680 C.3   132  OLA132      0.0047
     15  C13      -45.6410   70.9150   -6.8340 C.3   132  OLA132      0.0003
     16  C14      -46.8790   71.3370   -7.6050 C.3   132  OLA132      0.0000
     17  C15      -47.7610   72.3150   -6.8270 C.3   132  OLA132      0.0000
     18  C16      -48.9990   72.6670   -7.6460 C.3   132  OLA132      0.0000
     19  C17      -50.0060   71.5170   -7.7850 C.3   132  OLA132      0.0000
     20  C18      -51.1880   71.9810   -8.6310 C.3   132  OLA132      0.0000
@<TRIPOS>BOND
     1     2     1   ar
     2     3     1   ar
     3     1     4    1
     4     5     4    1
     5     5     6    1
     6     6     7    1
     7     7     8    1
     8    20    19    1
     9     8     9    1
    10    19    18    1
    11    18    17    1
    12    16    15    1
    13    16    17    1
    14     9    10    1
    15    15    14    1
    16    10    11    1
    17    14    13    1
    18    13    12    1
    19    11    12    2
