@<TRIPOS>MOLECULE
1g76_FMN_A_1.pdb
 31 33 0 0 0
SMALL
GASTEIGER

@<TRIPOS>ATOM
      1  N1        53.1970   20.4870    7.4200 N.2   250  FMN250     -0.2887
      2  C2        53.8320   21.5920    6.9160 C.1   250  FMN250      0.3669
      3  O2        53.2710   22.4900    6.2910 O.2   250  FMN250     -0.1744
      4  N3        55.2460   21.7470    7.1570 N.2   250  FMN250     -0.2300
      5  C4        56.0040   20.8180    7.8810 C.1   250  FMN250      0.2513
      6  O4        57.2020   21.0320    8.0230 O.2   250  FMN250     -0.2057
      7  C4A       55.3240   19.6150    8.3950 C.2   250  FMN250      0.2706
      8  N5        55.9500   18.6140    9.0480 N.2   250  FMN250     -0.3841
      9  C5A       55.3250   17.4770    9.5700 C.2   250  FMN250      0.1452
     10  C6        56.0920   16.5290   10.2810 C.2   250  FMN250      0.0252
     11  C7        55.4710   15.4370   10.9590 C.2   250  FMN250     -0.0375
     12  C7M       56.3560   14.4510   11.7410 C.3   250  FMN250      0.0268
     13  C8        53.9730   15.3100   10.9340 C.3   250  FMN250      0.0417
     14  C8M       53.1720   14.2790   11.7180 C.3   250  FMN250      0.0091
     15  C9        53.2210   16.2430   10.1380 C.2   250  FMN250     -0.0049
     16  C9A       53.8460   17.3190    9.4420 C.2   250  FMN250      0.0795
     17  N10       53.1980   18.3730    8.6700 N.pl3 250  FMN250     -0.2545
     18  C10       53.8420   19.5030    8.1340 C.2   250  FMN250      0.2449
     19  C1'       51.6910   18.2530    8.4270 C.3   250  FMN250      0.1336
     20  C2'       51.0010   19.2720    9.4220 C.3   250  FMN250      0.2048
     21  O2'       50.9130   18.7240   10.7250 O.3   250  FMN250     -0.2185
     22  C3'       49.6380   19.7760    8.9620 C.3   250  FMN250      0.2165
     23  O3'       48.8210   18.6360    8.5950 O.3   250  FMN250     -0.2175
     24  C4'       49.7290   20.7810    7.7990 C.3   250  FMN250      0.2147
     25  O4'       50.7940   21.7270    7.8250 O.3   250  FMN250     -0.2176
     26  C5'       48.4300   21.5650    7.6460 C.3   250  FMN250      0.1892
     27  O5'       48.0640   22.2560    8.9880 O.3   250  FMN250     -0.2674
     28  P         47.1450   23.4470    8.9460 P.3   250  FMN250      0.5327
     29  O1P       46.9280   23.6950   10.4390 O.3   250  FMN250     -0.1145
     30  O2P       47.7060   24.5710    8.2570 O.3   250  FMN250     -0.1145
     31  O3P       45.8870   22.9920    8.2460 O.2   250  FMN250     -0.2224
@<TRIPOS>BOND
     1     3     2    2
     2     2     4    2
     3     2     1    2
     4     4     5    2
     5     1    18    2
     6    26    24    1
     7    26    27    1
     8    24    25    1
     9    24    22    1
    10     5     6    2
    11     5     7    1
    12    18     7    1
    13    18    17    1
    14    31    28    2
    15    30    28    1
    16     7     8    2
    17    19    17    1
    18    19    20    1
    19    23    22    1
    20    17    16    1
    21    28    27    1
    22    28    29    1
    23    22    20    1
    24     8     9    2
    25    20    21    1
    26    16     9    1
    27    16    15    2
    28     9    10    1
    29    15    13    1
    30    10    11    2
    31    13    11    1
    32    13    14    1
    33    11    12    1
