@<TRIPOS>MOLECULE
1g76_PLP_A_1.pdb
 16 16 0 0 0
SMALL
GASTEIGER

@<TRIPOS>ATOM
      1  N1        55.2470   19.6450    4.2060 N.ar  260  PLP260     -0.2452
      2  C2        54.5480   18.4430    4.7120 C.ar  260  PLP260      0.0979
      3  C2A       53.0740   18.2970    4.3550 C.3   260  PLP260      0.0555
      4  C3        55.2840   17.4620    5.5190 C.ar  260  PLP260      0.2073
      5  O3        54.6520   16.3530    5.9900 O.3   260  PLP260     -0.2856
      6  C4        56.6680   17.7220    5.7900 C.ar  260  PLP260      0.0506
      7  C4A       57.6300   16.7840    6.6620 C.3   260  PLP260      0.2116
      8  O4A       56.9210   15.6300    7.1410 O.3   260  PLP260     -0.2151
      9  C5        57.3540   18.9030    5.3070 C.ar  260  PLP260      0.0286
     10  C6        56.6120   19.8570    4.4990 C.ar  260  PLP260      0.0966
     11  C5A       58.8740   19.1240    5.6730 C.3   260  PLP260      0.1816
     12  O4P       59.6720   19.4170    4.5890 O.3   260  PLP260     -0.2653
     13  P         60.3480   18.1880    3.9250 P.3   260  PLP260      0.5329
     14  O1P       61.1520   17.3040    5.0280 O.3   260  PLP260     -0.1145
     15  O2P       61.3370   18.7770    2.8500 O.2   260  PLP260     -0.2224
     16  O3P       59.2360   17.2270    3.1990 O.3   260  PLP260     -0.1145
@<TRIPOS>BOND
     1    15    13    2
     2    16    13    1
     3    13    12    1
     4    13    14    1
     5     1    10   ar
     6     1     2   ar
     7     3     2    1
     8    10     9   ar
     9    12    11    1
    10     2     4   ar
    11     9    11    1
    12     9     6   ar
    13     4     6   ar
    14     4     5    1
    15     6     7    1
    16     7     8    1
