@<TRIPOS>MOLECULE
1g77_FMN_A_1.pdb
 31 33 0 0 0
SMALL
GASTEIGER

@<TRIPOS>ATOM
      1  N1        53.2800   20.5270    7.3140 N.2   250  FMN250     -0.2887
      2  C2        53.9310   21.6000    6.7880 C.1   250  FMN250      0.3669
      3  O2        53.3930   22.4960    6.1470 O.2   250  FMN250     -0.1744
      4  N3        55.3380   21.7260    7.0260 N.2   250  FMN250     -0.2300
      5  C4        56.1000   20.8230    7.7630 C.1   250  FMN250      0.2513
      6  O4        57.3270   21.0060    7.9110 O.2   250  FMN250     -0.2057
      7  C4A       55.4250   19.6540    8.2940 C.2   250  FMN250      0.2706
      8  N5        56.0800   18.6620    8.9510 N.2   250  FMN250     -0.3841
      9  C5A       55.4690   17.5230    9.4950 C.2   250  FMN250      0.1452
     10  C6        56.2200   16.5600   10.2050 C.2   250  FMN250      0.0252
     11  C7        55.5740   15.4680   10.8620 C.2   250  FMN250     -0.0375
     12  C7M       56.3840   14.4330   11.6740 C.3   250  FMN250      0.0268
     13  C8        54.1150   15.3550   10.8260 C.3   250  FMN250      0.0417
     14  C8M       53.2870   14.3290   11.5950 C.3   250  FMN250      0.0091
     15  C9        53.3760   16.3030   10.0470 C.2   250  FMN250     -0.0049
     16  C9A       53.9950   17.3790    9.3590 C.2   250  FMN250      0.0795
     17  N10       53.3230   18.4330    8.5800 N.pl3 250  FMN250     -0.2545
     18  C10       53.9340   19.5430    8.0430 C.2   250  FMN250      0.2449
     19  C1'       51.8130   18.2770    8.3770 C.3   250  FMN250      0.1336
     20  C2'       51.0920   19.2460    9.4420 C.3   250  FMN250      0.2048
     21  O2'       50.9770   18.6230   10.7170 O.3   250  FMN250     -0.2185
     22  C3'       49.7000   19.7350    8.9970 C.3   250  FMN250      0.2165
     23  O3'       48.8790   18.6240    8.6860 O.3   250  FMN250     -0.2175
     24  C4'       49.7580   20.6520    7.7860 C.3   250  FMN250      0.2147
     25  O4'       50.8080   21.5830    7.8090 O.3   250  FMN250     -0.2176
     26  C5'       48.5000   21.5030    7.6240 C.3   250  FMN250      0.1892
     27  O5'       48.1800   22.2540    8.9640 O.3   250  FMN250     -0.2674
     28  P         47.1880   23.4170    8.9080 P.3   250  FMN250      0.5327
     29  O1P       47.0150   23.7260   10.3500 O.3   250  FMN250     -0.1145
     30  O2P       47.6730   24.5230    8.2050 O.2   250  FMN250     -0.2224
     31  O3P       45.9480   22.8920    8.2670 O.3   250  FMN250     -0.1145
@<TRIPOS>BOND
     1     3     2    2
     2     2     4    2
     3     2     1    2
     4     4     5    2
     5     1    18    2
     6    26    24    1
     7    26    27    1
     8     5     6    2
     9     5     7    1
    10    24    25    1
    11    24    22    1
    12    18     7    1
    13    18    17    1
    14    30    28    2
    15    31    28    1
    16     7     8    2
    17    19    17    1
    18    19    20    1
    19    17    16    1
    20    23    22    1
    21    28    27    1
    22    28    29    1
    23     8     9    2
    24    22    20    1
    25    16     9    1
    26    16    15    2
    27    20    21    1
    28     9    10    1
    29    15    13    1
    30    10    11    2
    31    13    11    1
    32    13    14    1
    33    11    12    1
