@<TRIPOS>MOLECULE
1g77_PLP_A_1.pdb
 16 16 0 0 0
SMALL
GASTEIGER

@<TRIPOS>ATOM
      1  N1        55.4820   19.5740    4.1680 N.2   260  PLP260     -0.2666
      2  C2        54.5480   18.6330    4.6660 C.2   260  PLP260      0.0933
      3  C2A       53.0600   18.8060    4.3290 C.3   260  PLP260      0.0551
      4  C3        54.9970   17.5240    5.4550 C.2   260  PLP260      0.2116
      5  O3        54.0930   16.5890    5.9520 O.2   260  PLP260     -0.2852
      6  C4        56.3730   17.3890    5.7450 C.2   260  PLP260      0.0832
      7  C4A       56.8990   16.1900    6.6090 C.2   260  PLP260      0.2372
      8  O4A       56.1050   15.3360    7.0900 O.2   260  PLP260     -0.2830
      9  C5        57.2920   18.3650    5.2620 C.2   260  PLP260      0.0459
     10  C6        56.8570   19.4560    4.4790 C.3   260  PLP260      0.1549
     11  C5A       58.7480   18.1660    5.6200 C.2   260  PLP260      0.1810
     12  O4P       59.6270   19.1210    5.1110 O.2   260  PLP260     -0.3969
     13  P         60.6180   18.4720    4.0280 P.3   260  PLP260      0.5887
     14  O1P       61.6850   17.6140    4.8260 O.3   260  PLP260     -0.1039
     15  O2P       61.3680   19.5870    3.1770 O.3   260  PLP260     -0.1039
     16  O3P       59.8120   17.4990    3.0560 O.2   260  PLP260     -0.2114
@<TRIPOS>BOND
     1    16    13    2
     2    15    13    1
     3    13    14    1
     4    13    12    1
     5     1    10    1
     6     1     2    2
     7     3     2    1
     8    10     9    1
     9     2     4    1
    10    12    11    1
    11     9    11    2
    12     9     6    1
    13     4     6    2
    14     4     5    1
    15     6     7    1
    16     7     8    2
