@<TRIPOS>MOLECULE
1g78_FMN_A_1.pdb
 31 33 0 0 0
SMALL
GASTEIGER

@<TRIPOS>ATOM
      1  N1        53.1730   20.4750    7.3450 N.2   250  FMN250     -0.2887
      2  C2        53.8130   21.5560    6.8520 C.1   250  FMN250      0.3669
      3  O2        53.2680   22.4270    6.2030 O.2   250  FMN250     -0.1744
      4  N3        55.2070   21.7040    7.1010 N.2   250  FMN250     -0.2300
      5  C4        55.9840   20.8100    7.7970 C.1   250  FMN250      0.2513
      6  O4        57.1860   21.0480    7.9530 O.2   250  FMN250     -0.2057
      7  C4A       55.3410   19.6120    8.3210 C.2   250  FMN250      0.2706
      8  N5        56.0110   18.6360    8.9880 N.2   250  FMN250     -0.3841
      9  C5A       55.4040   17.5090    9.5370 C.2   250  FMN250      0.1452
     10  C6        56.1790   16.5410   10.2640 C.2   250  FMN250      0.0252
     11  C7        55.5520   15.4480   10.9130 C.2   250  FMN250     -0.0375
     12  C7M       56.3690   14.4300   11.7450 C.3   250  FMN250      0.0268
     13  C8        54.0770   15.2970   10.8540 C.3   250  FMN250      0.0417
     14  C8M       53.2720   14.2500   11.6140 C.3   250  FMN250      0.0091
     15  C9        53.3120   16.2410   10.0660 C.2   250  FMN250     -0.0049
     16  C9A       53.9110   17.3390    9.3990 C.2   250  FMN250      0.0795
     17  N10       53.2180   18.3830    8.6200 N.pl3 250  FMN250     -0.2545
     18  C10       53.8400   19.4900    8.0760 C.2   250  FMN250      0.2449
     19  C1'       51.7140   18.2340    8.4080 C.3   250  FMN250      0.1336
     20  C2'       51.0190   19.2710    9.3780 C.3   250  FMN250      0.2048
     21  O2'       50.9470   18.7250   10.6860 O.3   250  FMN250     -0.2185
     22  C3'       49.6290   19.7120    8.9290 C.3   250  FMN250      0.2165
     23  O3'       48.8290   18.5320    8.6810 O.3   250  FMN250     -0.2175
     24  C4'       49.6680   20.6410    7.6960 C.3   250  FMN250      0.2147
     25  O4'       50.7180   21.6140    7.6940 O.3   250  FMN250     -0.2176
     26  C5'       48.3530   21.4220    7.6190 C.3   250  FMN250      0.1892
     27  O5'       48.0820   22.1920    8.9830 O.3   250  FMN250     -0.2674
     28  P         47.0900   23.3720    8.9660 P.3   250  FMN250      0.5327
     29  O1P       46.8790   23.6850   10.4550 O.3   250  FMN250     -0.1145
     30  O2P       47.5560   24.4820    8.2770 O.2   250  FMN250     -0.2224
     31  O3P       45.8270   22.9330    8.3000 O.3   250  FMN250     -0.1145
@<TRIPOS>BOND
     1     3     2    2
     2     2     4    2
     3     2     1    2
     4     4     5    2
     5     1    18    2
     6    26    24    1
     7    26    27    1
     8    25    24    1
     9    24    22    1
    10     5     6    2
    11     5     7    1
    12    18     7    1
    13    18    17    1
    14    30    28    2
    15    31    28    1
    16     7     8    2
    17    19    17    1
    18    19    20    1
    19    17    16    1
    20    23    22    1
    21    22    20    1
    22    28    27    1
    23    28    29    1
    24     8     9    2
    25    20    21    1
    26    16     9    1
    27    16    15    2
    28     9    10    1
    29    15    13    1
    30    10    11    2
    31    13    11    1
    32    13    14    1
    33    11    12    1
