@<TRIPOS>MOLECULE
1g78_PLP_A_1.pdb
 16 16 0 0 0
SMALL
GASTEIGER

@<TRIPOS>ATOM
      1  N1        55.3390   19.5070    4.2060 N.ar  260  PLP260     -0.2452
      2  C2        54.4660   18.4660    4.6290 C.ar  260  PLP260      0.0982
      3  C2A       52.9840   18.5110    4.2230 C.3   260  PLP260      0.0555
      4  C3        54.9690   17.3840    5.4260 C.ar  260  PLP260      0.2120
      5  O3        54.1200   16.3600    5.8460 O.3   260  PLP260     -0.2852
      6  C4        56.3440   17.3590    5.7920 C.ar  260  PLP260      0.0822
      7  C4A       56.9400   16.1880    6.6590 C.2   260  PLP260      0.2372
      8  O4A       56.2290   15.2290    7.0680 O.2   260  PLP260     -0.2830
      9  C5        57.2070   18.4040    5.3600 C.ar  260  PLP260      0.0333
     10  C6        56.7060   19.4830    4.5640 C.ar  260  PLP260      0.0969
     11  C5A       58.6910   18.3410    5.7620 C.3   260  PLP260      0.1819
     12  O4P       59.5040   19.0350    4.8460 O.3   260  PLP260     -0.2653
     13  P         60.4630   18.1620    3.9140 P.3   260  PLP260      0.5329
     14  O1P       61.3400   17.1840    4.8250 O.3   260  PLP260     -0.1145
     15  O2P       61.4140   19.1630    3.1220 O.3   260  PLP260     -0.1145
     16  O3P       59.6100   17.2950    2.8650 O.2   260  PLP260     -0.2224
@<TRIPOS>BOND
     1    16    13    2
     2    15    13    1
     3    13    14    1
     4    13    12    1
     5     1    10   ar
     6     1     2   ar
     7     3     2    1
     8    10     9   ar
     9     2     4   ar
    10    12    11    1
    11     9    11    1
    12     9     6   ar
    13     4     6   ar
    14     4     5    1
    15     6     7    1
    16     7     8    2
