@<TRIPOS>MOLECULE
1g79_FMN_A_1.pdb
 31 33 0 0 0
SMALL
GASTEIGER

@<TRIPOS>ATOM
      1  N1        53.5300   20.6020    7.2710 N.2   250  FMN250     -0.2887
      2  C2        54.1310   21.6790    6.7800 C.1   250  FMN250      0.3669
      3  O2        53.5230   22.4970    6.1710 O.2   250  FMN250     -0.1744
      4  N3        55.5320   21.8450    7.0000 N.2   250  FMN250     -0.2300
      5  C4        56.3070   20.9170    7.7040 C.1   250  FMN250      0.2513
      6  O4        57.5010   21.1040    7.8720 O.2   250  FMN250     -0.2057
      7  C4A       55.6570   19.7240    8.2240 C.2   250  FMN250      0.2706
      8  N5        56.3240   18.7330    8.8980 N.2   250  FMN250     -0.3841
      9  C5A       55.6680   17.5990    9.4430 C.2   250  FMN250      0.1452
     10  C6        56.3950   16.6470   10.1590 C.2   250  FMN250      0.0252
     11  C7        55.7880   15.5630   10.7940 C.2   250  FMN250     -0.0375
     12  C7M       56.6390   14.5350   11.5910 C.3   250  FMN250      0.0268
     13  C8        54.3290   15.4010   10.7470 C.3   250  FMN250      0.0417
     14  C8M       53.5580   14.3140   11.4940 C.3   250  FMN250      0.0091
     15  C9        53.5570   16.3360    9.9650 C.2   250  FMN250     -0.0049
     16  C9A       54.1690   17.4440    9.2830 C.2   250  FMN250      0.0795
     17  N10       53.5170   18.5030    8.5110 N.pl3 250  FMN250     -0.2545
     18  C10       54.1600   19.6070    7.9810 C.2   250  FMN250      0.2449
     19  C1'       52.0090   18.3800    8.3200 C.3   250  FMN250      0.1336
     20  C2'       51.2600   19.2890    9.3990 C.3   250  FMN250      0.2048
     21  O2'       51.1770   18.6820   10.6900 O.3   250  FMN250     -0.2185
     22  C3'       49.8740   19.7520    8.9740 C.3   250  FMN250      0.2165
     23  O3'       49.0940   18.6390    8.5710 O.3   250  FMN250     -0.2175
     24  C4'       49.9150   20.7020    7.7870 C.3   250  FMN250      0.2147
     25  O4'       50.9740   21.6470    7.7860 O.3   250  FMN250     -0.2176
     26  C5'       48.6240   21.5010    7.6440 C.3   250  FMN250      0.1892
     27  O5'       48.3500   22.3070    8.9860 O.3   250  FMN250     -0.2674
     28  P         47.3240   23.4400    8.8740 P.3   250  FMN250      0.5327
     29  O1P       47.1070   23.8560   10.3280 O.3   250  FMN250     -0.1145
     30  O2P       47.7990   24.5490    8.1130 O.2   250  FMN250     -0.2224
     31  O3P       46.0820   22.9160    8.2060 O.3   250  FMN250     -0.1145
@<TRIPOS>BOND
     1     3     2    2
     2     2     4    2
     3     2     1    2
     4     4     5    2
     5     1    18    2
     6    26    24    1
     7    26    27    1
     8     5     6    2
     9     5     7    1
    10    25    24    1
    11    24    22    1
    12    18     7    1
    13    18    17    1
    14    30    28    2
    15    31    28    1
    16     7     8    2
    17    19    17    1
    18    19    20    1
    19    17    16    1
    20    23    22    1
    21    28    27    1
    22    28    29    1
    23     8     9    2
    24    22    20    1
    25    16     9    1
    26    16    15    2
    27    20    21    1
    28     9    10    1
    29    15    13    1
    30    10    11    2
    31    13    11    1
    32    13    14    1
    33    11    12    1
