@<TRIPOS>MOLECULE
1g79_PLP_A_1.pdb
 16 16 0 0 0
SMALL
GASTEIGER

@<TRIPOS>ATOM
      1  N1        55.8400   19.5460    4.1800 N.ar  260  PLP260     -0.2452
      2  C2        54.8720   18.5810    4.6540 C.ar  260  PLP260      0.0982
      3  C2A       53.4050   18.7280    4.2690 C.3   260  PLP260      0.0555
      4  C3        55.3170   17.5070    5.4790 C.ar  260  PLP260      0.2120
      5  O3        54.4160   16.5840    5.9430 O.3   260  PLP260     -0.2852
      6  C4        56.6770   17.4200    5.8020 C.ar  260  PLP260      0.0822
      7  C4A       57.2260   16.2480    6.6860 C.2   260  PLP260      0.2372
      8  O4A       56.4840   15.3170    7.1340 O.2   260  PLP260     -0.2830
      9  C5        57.6220   18.3580    5.3550 C.ar  260  PLP260      0.0333
     10  C6        57.1940   19.4300    4.5340 C.ar  260  PLP260      0.0969
     11  C5A       59.0790   18.1880    5.7570 C.3   260  PLP260      0.1819
     12  O4P       59.9150   19.1590    5.2090 O.3   260  PLP260     -0.2653
     13  P         60.7490   18.6340    3.9640 P.3   260  PLP260      0.5329
     14  O1P       61.9950   17.7740    4.5190 O.3   260  PLP260     -0.1145
     15  O2P       61.2640   19.8890    3.1470 O.3   260  PLP260     -0.1145
     16  O3P       59.8380   17.6960    3.0290 O.2   260  PLP260     -0.2224
@<TRIPOS>BOND
     1    16    13    2
     2    15    13    1
     3    13    14    1
     4    13    12    1
     5     1    10   ar
     6     1     2   ar
     7     3     2    1
     8    10     9   ar
     9     2     4   ar
    10    12    11    1
    11     9    11    1
    12     9     6   ar
    13     4     6   ar
    14     4     5    1
    15     6     7    1
    16     7     8    2
