@<TRIPOS>MOLECULE
1g7c_5GP_A_1.pdb
 24 26 0 0 0
SMALL
GASTEIGER

@<TRIPOS>ATOM
      1  P         35.9050   40.7420   36.7690 P.3   507  5GP507      0.5327
      2  O1P       36.6990   39.5120   36.6150 O.3   507  5GP507     -0.1145
      3  O2P       34.3940   40.5170   36.6130 O.3   507  5GP507     -0.1145
      4  O3P       36.4560   41.9560   36.1000 O.2   507  5GP507     -0.2224
      5  O5'       36.0230   41.1730   38.3080 O.3   507  5GP507     -0.2675
      6  C5'       36.9300   42.0140   38.6520 C.3   507  5GP507      0.1859
      7  C4'       37.5560   42.6230   39.8610 C.3   507  5GP507      0.1801
      8  O4'       37.4740   41.8600   41.0540 O.3   507  5GP507     -0.3326
      9  C3'       38.9480   42.6390   39.3510 C.3   507  5GP507      0.2158
     10  O3'       39.5190   43.8580   39.7380 O.3   507  5GP507     -0.2175
     11  C2'       39.4350   41.3200   39.9720 C.3   507  5GP507      0.2310
     12  O2'       40.8470   41.2690   40.0020 O.3   507  5GP507     -0.2158
     13  C1'       38.7680   41.3530   41.3520 C.3   507  5GP507      0.2293
     14  N9        38.5730   40.0050   41.9690 N.pl3 507  5GP507     -0.2354
     15  C8        38.0210   38.8400   41.4230 C.3   507  5GP507      0.2246
     16  N7        37.9950   37.8190   42.2330 N.2   507  5GP507     -0.2322
     17  C5        38.5770   38.3320   43.4080 C.2   507  5GP507      0.2182
     18  C6        38.8230   37.7360   44.6490 C.1   507  5GP507      0.2372
     19  O6        38.5790   36.5600   44.9960 O.2   507  5GP507     -0.2069
     20  N1        39.4260   38.5850   45.5750 N.2   507  5GP507     -0.2485
     21  C2        39.7580   39.9210   45.3310 C.1   507  5GP507      0.2531
     22  N2        40.3220   40.6250   46.2990 N.pl3 507  5GP507     -0.0226
     23  N3        39.5170   40.5130   44.1460 N.2   507  5GP507     -0.3074
     24  C4        38.9430   39.6710   43.2440 C.2   507  5GP507      0.2300
@<TRIPOS>BOND
     1     4     1    2
     2     3     1    1
     3     2     1    1
     4     1     5    1
     5     5     6    1
     6     6     7    1
     7     9    10    1
     8     9     7    1
     9     9    11    1
    10     7     8    1
    11    11    12    1
    12    11    13    1
    13     8    13    1
    14    13    14    1
    15    15    14    1
    16    15    16    1
    17    14    24    1
    18    16    17    2
    19    24    17    1
    20    24    23    2
    21    17    18    1
    22    23    21    2
    23    18    19    2
    24    18    20    2
    25    21    20    2
    26    21    22    1
