@<TRIPOS>MOLECULE
1g7f_INZ_A_1.pdb
 39 40 0 0 0
SMALL
GASTEIGER

@<TRIPOS>ATOM
      1  C1        16.6310   16.9120   13.4640 C.2   500  INZ500      0.4156
      2  O2        17.1120   17.6660   14.4430 O.co2 500  INZ500     -0.2410
      3  O3        17.2430   16.1470   12.7730 O.co2 500  INZ500     -0.2410
      4  C4        13.6200   16.8450   11.3700 C.ar  500  INZ500      0.1399
      5  C5        13.5290   16.6220    9.9840 C.ar  500  INZ500      0.0366
      6  C6        12.3420   16.7780    9.2870 C.ar  500  INZ500     -0.0011
      7  C7        11.1940   17.1850    9.9980 C.ar  500  INZ500     -0.0198
      8  C8        11.2680   17.4300   11.3780 C.ar  500  INZ500     -0.0011
      9  C9        12.4780   17.2570   12.0860 C.ar  500  INZ500      0.0366
     10  C10       15.1150   17.1000   13.2920 C.3   500  INZ500      0.3707
     11  C11        9.9130   17.3420    9.2260 C.3   500  INZ500      0.0575
     12  C12        9.2290   18.7380    9.4000 C.3   500  INZ500      0.1786
     13  O13       14.8490   16.6270   11.9350 O.3   500  INZ500     -0.4582
     14  C14       14.4610   16.2480   14.3920 C.2   500  INZ500      0.4156
     15  O15       14.3100   16.6620   15.5300 O.co2 500  INZ500     -0.2410
     16  O16       14.1010   15.0110   14.0240 O.co2 500  INZ500     -0.2410
     17  N17        7.9790   18.6660    8.6490 N.am  500  INZ500     -0.1792
     18  C18       10.0600   19.8290    8.6770 C.2   500  INZ500      0.2616
     19  C19        6.9170   19.3130    9.1300 C.2   500  INZ500      0.3401
     20  N20       10.0390   19.7240    7.3360 N.am  500  INZ500     -0.2040
     21  O21       10.8760   20.4850    9.3260 O.2   500  INZ500     -0.2715
     22  C22       10.9840   20.3800    6.4460 C.3   500  INZ500      0.1152
     23  C23       11.3500   19.4360    5.2790 C.3   500  INZ500      0.0234
     24  C24       11.5130   17.9500    5.7330 C.3   500  INZ500      0.0018
     25  C25       11.7960   17.0300    4.5220 C.3   500  INZ500      0.0001
     26  C26       13.2900   16.7550    4.4290 C.3   500  INZ500      0.0000
     27  O27        7.0490   20.2070   10.0260 O.2   500  INZ500     -0.2492
     28  N28        5.7550   19.0040    8.5570 N.am  500  INZ500     -0.1770
     29  C29        4.5540   19.7560    8.9600 C.3   500  INZ500      0.2037
     30  C30        4.4420   21.0060    8.0080 C.3   500  INZ500      0.0597
     31  C31        3.3390   18.8360    8.8500 C.2   500  INZ500      0.3846
     32  O32        3.6810   17.5840    8.5010 O.co2 500  INZ500     -0.2437
     33  O33        2.2300   19.1760    9.1390 O.co2 500  INZ500     -0.2437
     34  C34        4.1860   20.5930    6.5620 C.ar  500  INZ500     -0.0199
     35  C35        5.2330   20.1830    5.7240 C.ar  500  INZ500     -0.0042
     36  C36        4.9830   19.7950    4.3870 C.ar  500  INZ500     -0.0003
     37  C37        3.6800   19.8200    3.8940 C.ar  500  INZ500     -0.0000
     38  C38        2.6250   20.2300    4.7190 C.ar  500  INZ500     -0.0003
     39  C39        2.8770   20.6170    6.0510 C.ar  500  INZ500     -0.0042
@<TRIPOS>BOND
     1    37    36   ar
     2    37    38   ar
     3    36    35   ar
     4    26    25    1
     5    25    24    1
     6    38    39   ar
     7    23    24    1
     8    23    22    1
     9    35    34   ar
    10    39    34   ar
    11    22    20    1
    12    34    30    1
    13    20    18   am
    14    30    29    1
    15    32    31   ar
    16    28    29    1
    17    28    19   am
    18    17    19   am
    19    17    12    1
    20    18    21    2
    21    18    12    1
    22    31    29    1
    23    31    33   ar
    24    19    27    2
    25    11    12    1
    26    11     7    1
    27     6     5   ar
    28     6     7   ar
    29     5     4   ar
    30     7     8   ar
    31     4    13    1
    32     4     9   ar
    33     8     9   ar
    34    13    10    1
    35     3     1   ar
    36    10     1    1
    37    10    14    1
    38     1     2   ar
    39    16    14   ar
    40    14    15   ar
