@<TRIPOS>MOLECULE
1g7g_INX_A_1.pdb
 43 44 0 0 0
SMALL
GASTEIGER

@<TRIPOS>ATOM
      1  C1        13.5790   16.7950   11.8960 C.ar  600  INX600      0.1457
      2  C2        13.6090   16.5240   10.4880 C.ar  600  INX600      0.0368
      3  C3        12.4450   16.6400    9.6870 C.ar  600  INX600     -0.0011
      4  C4        11.2090   17.0440   10.2960 C.ar  600  INX600     -0.0195
      5  C5        11.1840   17.3230   11.6890 C.ar  600  INX600      0.0054
      6  C6        12.3130   17.2150   12.5150 C.ar  600  INX600      0.1133
      7  C7         9.9530   17.1490    9.5060 C.3   600  INX600      0.0574
      8  C8         9.2370   18.4730    9.5770 C.3   600  INX600      0.1771
      9  O9        14.7560   16.6440   12.5560 O.3   600  INX600     -0.4635
     10  N10        7.9200   18.3490    8.8930 N.am  600  INX600     -0.1960
     11  C11       10.0320   19.6340    8.9380 C.2   600  INX600      0.2616
     12  C12        7.0620   19.3870    9.0460 C.2   600  INX600      0.2620
     13  N13        9.9580   19.5790    7.6060 N.am  600  INX600     -0.2040
     14  O14       10.7940   20.3350    9.6680 O.2   600  INX600     -0.2715
     15  C15       10.7290   20.2850    6.6170 C.3   600  INX600      0.1152
     16  C16       11.8830   19.3290    6.1690 C.3   600  INX600      0.0234
     17  C17       11.2720   17.9250    5.9110 C.3   600  INX600      0.0018
     18  C18       11.5520   17.3940    4.5020 C.3   600  INX600      0.0001
     19  C19       12.5180   16.2080    4.5230 C.3   600  INX600      0.0000
     20  O20        7.2300   20.3300    9.8120 O.2   600  INX600     -0.2715
     21  C21        5.6930   19.2860    8.4050 C.3   600  INX600      0.1770
     22  N22        4.6980   19.5130    9.4830 N.am  600  INX600     -0.1974
     23  C23       15.8550   17.5160   12.6150 C.3   600  INX600      0.3186
     24  C24       17.0120   16.7230   13.2630 C.2   600  INX600      0.4084
     25  O25       18.1040   17.4340   13.1640 O.co2 600  INX600     -0.2415
     26  O26       16.9160   15.6390   13.7600 O.co2 600  INX600     -0.2415
     27  C27       12.2000   17.5440   13.9700 C.2   600  INX600      0.3907
     28  O28       12.8050   17.0000   14.8380 O.co2 600  INX600     -0.2404
     29  O29       11.4270   18.5500   14.2120 O.co2 600  INX600     -0.2404
     30  C30        5.6450   20.4210    7.3610 C.3   600  INX600      0.0574
     31  C31        4.3310   20.2240    6.6120 C.ar  600  INX600     -0.0200
     32  C32        4.3460   19.4330    5.4000 C.ar  600  INX600     -0.0042
     33  C33        3.1080   19.2460    4.7040 C.ar  600  INX600     -0.0003
     34  C34        1.9280   19.8490    5.2140 C.ar  600  INX600     -0.0000
     35  C35        1.9270   20.6200    6.4150 C.ar  600  INX600     -0.0003
     36  C36        3.1560   20.8170    7.1510 C.ar  600  INX600     -0.0042
     37  C37        3.9130   18.5020    9.9000 C.2   600  INX600      0.2423
     38  C38        2.8130   18.7700   10.9250 C.3   600  INX600      0.0986
     39  C39        2.0150   17.4970   11.2970 C.3   600  INX600      0.1237
     40  C40        0.6860   17.3290   10.5150 C.2   600  INX600      0.3654
     41  O41       -0.0370   18.2250   10.1140 O.co2 600  INX600     -0.2456
     42  O42        0.3730   16.0180   10.2890 O.co2 600  INX600     -0.2456
     43  O43        4.0010   17.3730    9.3520 O.2   600  INX600     -0.2733
@<TRIPOS>BOND
     1    18    19    1
     2    18    17    1
     3    33    34   ar
     4    33    32   ar
     5    34    35   ar
     6    32    31   ar
     7    17    16    1
     8    16    15    1
     9    35    36   ar
    10    31    36   ar
    11    31    30    1
    12    15    13    1
    13    30    21    1
    14    13    11   am
    15    21    12    1
    16    21    22    1
    17    10    12   am
    18    10     8    1
    19    11     8    1
    20    11    14    2
    21    12    20    2
    22    43    37    2
    23    22    37   am
    24     7     8    1
    25     7     4    1
    26     3     4   ar
    27     3     2   ar
    28    37    38    1
    29    41    40   ar
    30    42    40   ar
    31     4     5   ar
    32     2     1   ar
    33    40    39    1
    34    38    39    1
    35     5     6   ar
    36     1     6   ar
    37     1     9    1
    38     6    27    1
    39     9    23    1
    40    23    24    1
    41    25    24   ar
    42    24    26   ar
    43    27    29   ar
    44    27    28   ar
