@<TRIPOS>MOLECULE
1g7p_FUC_A_1.pdb
 10 10 0 0 0
SMALL
GASTEIGER

@<TRIPOS>ATOM
      1  C1        61.0850   55.2560   18.6550 C.3   953  FUC953      0.1776
      2  C2        59.6650   54.7540   18.3540 C.3   953  FUC953      0.2141
      3  C3        58.6510   55.5250   19.2000 C.3   953  FUC953      0.2172
      4  C4        58.8040   57.0220   18.9400 C.3   953  FUC953      0.2116
      5  C5        60.2410   57.4420   19.2570 C.3   953  FUC953      0.1483
      6  C6        60.5080   58.9070   18.9720 C.3   953  FUC953      0.0349
      7  O2        59.5710   53.3650   18.6370 O.3   953  FUC953     -0.2176
      8  O3        57.3350   55.1110   18.8710 O.3   953  FUC953     -0.2175
      9  O4        58.5140   57.2950   17.5770 O.3   953  FUC953     -0.2177
     10  O5        61.1670   56.6690   18.4590 O.3   953  FUC953     -0.3508
@<TRIPOS>BOND
     1     9     4    1
     2     2     7    1
     3     2     1    1
     4     2     3    1
     5    10     1    1
     6    10     5    1
     7     8     3    1
     8     4     3    1
     9     4     5    1
    10     6     5    1
