@<TRIPOS>MOLECULE
1g7q_FUC_A_1.pdb
 10 10 0 0 0
SMALL
GASTEIGER

@<TRIPOS>ATOM
      1  C1        61.1730   55.8100   18.6660 C.3   953  FUC953      0.1776
      2  C2        59.7430   55.2960   18.4330 C.3   953  FUC953      0.2141
      3  C3        58.7510   56.1370   19.2360 C.3   953  FUC953      0.2172
      4  C4        58.9060   57.6090   18.8570 C.3   953  FUC953      0.2116
      5  C5        60.3560   58.0480   19.0940 C.3   953  FUC953      0.1483
      6  C6        60.6170   59.4780   18.6600 C.3   953  FUC953      0.0349
      7  O2        59.6420   53.9330   18.8220 O.3   953  FUC953     -0.2176
      8  O3        57.4270   55.7040   18.9670 O.3   953  FUC953     -0.2175
      9  O4        58.5700   57.7820   17.4870 O.3   953  FUC953     -0.2177
     10  O5        61.2580   57.2000   18.3460 O.3   953  FUC953     -0.3508
@<TRIPOS>BOND
     1     9     4    1
     2    10     1    1
     3    10     5    1
     4     2     1    1
     5     2     7    1
     6     2     3    1
     7     6     5    1
     8     4     5    1
     9     4     3    1
    10     8     3    1
