@<TRIPOS>MOLECULE
1g7s_GDP_A_1.pdb
 28 30 0 0 0
SMALL
GASTEIGER

@<TRIPOS>ATOM
      1  PB        11.6250   32.6460   22.2900 P.3   601  GDP601      0.5373
      2  O1B       11.5400   31.3020   22.7130 O.3   601  GDP601     -0.1143
      3  O2B       12.9800   32.9890   23.0360 O.3   601  GDP601     -0.1143
      4  O3B       12.0740   32.8020   20.7230 O.2   601  GDP601     -0.2221
      5  O3A       10.1560   33.0740   22.4770 O.3   601  GDP601     -0.2261
      6  PA         8.9350   32.3330   23.1080 P.3   601  GDP601      0.2231
      7  O1A        7.8000   33.2860   23.0340 O.2   601  GDP601     -0.5169
      8  O2A        9.2620   32.1150   24.6400 O.3   601  GDP601     -0.4370
      9  O5'        8.3330   31.1260   22.3470 O.3   601  GDP601     -0.3111
     10  C5'        7.5590   31.3050   21.1490 C.3   601  GDP601      0.1813
     11  C4'        6.0760   30.7850   21.1600 C.3   601  GDP601      0.1799
     12  O4'        5.9910   29.4400   21.7590 O.3   601  GDP601     -0.3326
     13  C3'        5.0460   31.5490   22.0080 C.3   601  GDP601      0.2158
     14  O3'        3.7950   31.5690   21.3150 O.3   601  GDP601     -0.2175
     15  C2'        4.8520   30.8140   23.3080 C.3   601  GDP601      0.2310
     16  O2'        3.5910   31.3020   23.8440 O.3   601  GDP601     -0.2158
     17  C1'        4.9700   29.3200   22.8350 C.3   601  GDP601      0.2293
     18  N9         5.4850   28.4320   23.9490 N.pl3 601  GDP601     -0.2354
     19  C8         6.6160   28.5150   24.7430 C.3   601  GDP601      0.2246
     20  N7         6.7720   27.5810   25.6240 N.2   601  GDP601     -0.2322
     21  C5         5.6430   26.8290   25.3690 C.2   601  GDP601      0.2182
     22  C6         5.1990   25.6470   25.9940 C.1   601  GDP601      0.2372
     23  O6         5.7310   25.0170   26.9110 O.2   601  GDP601     -0.2069
     24  N1         4.0210   25.2000   25.4500 N.2   601  GDP601     -0.2485
     25  C2         3.3250   25.8010   24.4330 C.1   601  GDP601      0.2531
     26  N2         2.1910   25.2020   24.0450 N.pl3 601  GDP601     -0.0226
     27  N3         3.7250   26.9150   23.8340 N.2   601  GDP601     -0.3074
     28  C4         4.8760   27.3560   24.3610 C.2   601  GDP601      0.2300
@<TRIPOS>BOND
     1     4     1    2
     2    10    11    1
     3    10     9    1
     4    11    12    1
     5    11    13    1
     6    14    13    1
     7    12    17    1
     8    13    15    1
     9     1     5    1
    10     1     2    1
    11     1     3    1
    12     9     6    1
    13     5     6    1
    14    17    15    1
    15    17    18    1
    16     7     6    2
    17     6     8    1
    18    15    16    1
    19    27    28    2
    20    27    25    2
    21    18    28    1
    22    18    19    1
    23    26    25    1
    24    28    21    1
    25    25    24    2
    26    19    20    1
    27    21    20    2
    28    21    22    1
    29    24    22    2
    30    22    23    2
