@<TRIPOS>MOLECULE
1g7t_GNP_A_1.pdb
 32 34 0 0 0
SMALL
GASTEIGER

@<TRIPOS>ATOM
      1  PG        -7.9280    3.1480  -11.1940 P.3   601  GNP601      0.4884
      2  O1G       -8.6270    4.0250  -12.1520 O.2   601  GNP601     -0.2331
      3  O2G       -6.7460    2.3180  -11.6640 O.3   601  GNP601     -0.1240
      4  O3G       -7.3890    3.8480   -9.9100 O.3   601  GNP601     -0.1240
      5  N3B       -8.8810    2.2960  -10.2810 N.3   601  GNP601     -0.0163
      6  PB        -8.9940    1.2490   -9.1250 P.3   601  GNP601      0.4669
      7  O1B       -8.2030    0.0130   -9.2700 O.2   601  GNP601     -0.2351
      8  O2B       -8.6760    2.0400   -7.8580 O.3   601  GNP601     -0.1253
      9  O3A      -10.4580    0.7930   -8.8710 O.3   601  GNP601     -0.2360
     10  PA       -11.6240    1.3850   -8.0980 P.3   601  GNP601      0.2220
     11  O1A      -11.7830    2.7690   -8.5480 O.2   601  GNP601     -0.5170
     12  O2A      -11.5280    1.2920   -6.6290 O.3   601  GNP601     -0.4370
     13  O5'      -12.8590    0.4360   -8.3280 O.3   601  GNP601     -0.3111
     14  C5'      -13.3040    0.2680   -9.6870 C.3   601  GNP601      0.1813
     15  C4'      -14.8010   -0.1840   -9.7780 C.3   601  GNP601      0.1799
     16  O4'      -14.9250   -1.4770   -9.2380 O.3   601  GNP601     -0.3326
     17  C3'      -15.7080    0.6030   -8.8960 C.3   601  GNP601      0.2158
     18  O3'      -16.9450    0.7890   -9.5400 O.3   601  GNP601     -0.2175
     19  C2'      -15.8400   -0.1820   -7.6440 C.3   601  GNP601      0.2310
     20  O2'      -17.0370    0.1430   -6.9470 O.3   601  GNP601     -0.2158
     21  C1'      -15.7990   -1.5340   -8.1230 C.3   601  GNP601      0.2293
     22  N9       -15.2690   -2.4380   -7.1030 N.pl3 601  GNP601     -0.2354
     23  C8       -14.1380   -2.4280   -6.3560 C.3   601  GNP601      0.2246
     24  N7       -13.9930   -3.4250   -5.5340 N.2   601  GNP601     -0.2322
     25  C5       -15.1530   -4.1590   -5.7800 C.2   601  GNP601      0.2182
     26  C6       -15.6280   -5.3890   -5.2110 C.1   601  GNP601      0.2372
     27  O6       -15.0720   -6.0710   -4.3470 O.2   601  GNP601     -0.2069
     28  N1       -16.8760   -5.8160   -5.7320 N.2   601  GNP601     -0.2485
     29  C2       -17.5910   -5.1300   -6.7080 C.1   601  GNP601      0.2531
     30  N2       -18.7430   -5.6670   -7.0890 N.pl3 601  GNP601     -0.0226
     31  N3       -17.1510   -3.9750   -7.2520 N.2   601  GNP601     -0.3074
     32  C4       -15.9250   -3.5540   -6.7340 C.2   601  GNP601      0.2300
@<TRIPOS>BOND
     1     2     1    2
     2     3     1    1
     3     1     5    1
     4     1     4    1
     5     5     6    1
     6    15    14    1
     7    15    16    1
     8    15    17    1
     9    14    13    1
    10    18    17    1
    11     7     6    2
    12    16    21    1
    13     6     9    1
    14     6     8    1
    15    17    19    1
    16     9    10    1
    17    11    10    2
    18    13    10    1
    19    21    19    1
    20    21    22    1
    21    10    12    1
    22    19    20    1
    23    31    32    2
    24    31    29    2
    25    22    32    1
    26    22    23    1
    27    30    29    1
    28    32    25    1
    29    29    28    2
    30    23    24    1
    31    25    24    2
    32    25    26    1
    33    28    26    2
    34    26    27    2
