@<TRIPOS>MOLECULE
1g7u_PEP_A_1.pdb
 10 9 0 0 0
SMALL
GASTEIGER

@<TRIPOS>ATOM
      1  C1         7.0860  109.5640   76.1370 C.2   300  PEP300      0.4216
      2  O1         7.4560  108.3990   75.7120 O.co2 300  PEP300     -0.2371
      3  O2'        7.5000  110.0420   77.1720 O.co2 300  PEP300     -0.2371
      4  C2         6.0900  110.2870   75.2190 C.2   300  PEP300      0.2283
      5  C3         5.5390  109.8720   74.0280 C.2   300  PEP300      0.0477
      6  O2         5.6880  111.5570   75.6980 O.2   300  PEP300     -0.3930
      7  P          6.0790  113.0000   75.0810 P.3   300  PEP300      0.5889
      8  O1P        6.4290  113.9040   76.3210 O.3   300  PEP300     -0.1039
      9  O2P        4.8180  113.4040   74.3340 O.3   300  PEP300     -0.1039
     10  O3P        7.3510  112.8370   74.2510 O.2   300  PEP300     -0.2114
@<TRIPOS>BOND
     1     5     4    2
     2    10     7    2
     3     9     7    1
     4     7     6    1
     5     7     8    1
     6     4     6    1
     7     4     1    1
     8     2     1   ar
     9     1     3   ar
