@<TRIPOS>MOLECULE
1g7v_PAI_A_1.pdb
 25 24 0 0 0
SMALL
GASTEIGER

@<TRIPOS>ATOM
      1  P1         7.5020  101.7470   79.8450 P.3   300  PAI300      0.5327
      2  O1P        6.3700  101.5580   81.0220 O.3   300  PAI300     -0.1145
      3  O2P        7.5090  100.4130   78.9330 O.2   300  PAI300     -0.2224
      4  O3P        7.1910  103.1300   78.8710 O.3   300  PAI300     -0.2674
      5  O4P        8.9520  101.9100   80.5560 O.3   300  PAI300     -0.1145
      6  C6         7.1240  104.5570   79.3780 C.3   300  PAI300      0.1892
      7  C5         6.5590  105.7140   78.3910 C.3   300  PAI300      0.2147
      8  O1         6.7970  106.9620   79.0640 O.3   300  PAI300     -0.2176
      9  C4         7.2140  105.7910   76.9190 C.3   300  PAI300      0.2173
     10  O4         6.9200  104.5030   76.3320 O.3   300  PAI300     -0.2175
     11  C3         6.7040  106.9460   75.8260 C.3   300  PAI300      0.2162
     12  O3         7.0740  106.3710   74.5370 O.3   300  PAI300     -0.2175
     13  C2         7.4580  108.3790   75.8270 C.3   300  PAI300      0.2006
     14  O2         7.1800  109.1160   77.0050 O.3   300  PAI300     -0.2188
     15  C1         7.1410  109.4070   74.6570 C.3   300  PAI300      0.1089
     16  N1         5.7140  109.7020   74.2780 N.3   300  PAI300     -0.2547
     17  C7         5.4600  110.1480   72.8380 C.3   300  PAI300      0.1882
     18  C8         5.1740  109.0060   71.8210 C.2   300  PAI300      0.3809
     19  O5         4.1300  108.2600   71.9520 O.co2 300  PAI300     -0.2441
     20  O6         5.9590  108.8750   70.8640 O.co2 300  PAI300     -0.2441
     21  C9         5.0530  110.6530   75.2690 C.3   300  PAI300      0.1323
     22  P2         5.5890  112.3360   75.0920 P.3   300  PAI300      0.1333
     23  O5P        4.5340  112.9810   74.0490 O.2   300  PAI300     -0.4587
     24  O6P        5.5880  113.1960   76.4670 O.3   300  PAI300     -0.3562
     25  O7P        7.0600  112.2980   74.4760 O.3   300  PAI300     -0.3562
@<TRIPOS>BOND
     1    20    18   ar
     2    18    19   ar
     3    18    17    1
     4    17    16    1
     5    23    22    2
     6    16    15    1
     7    16    21    1
     8    25    22    1
     9    12    11    1
    10    15    13    1
    11    22    21    1
    12    22    24    1
    13    11    13    1
    14    11     9    1
    15    13    14    1
    16    10     9    1
    17     9     7    1
    18     7     8    1
    19     7     6    1
    20     4     6    1
    21     4     1    1
    22     3     1    2
    23     1     5    1
    24     1     2    1
