@<TRIPOS>MOLECULE
1g7w_PLP_A_1.pdb
 15 15 0 0 0
SMALL
GASTEIGER

@<TRIPOS>ATOM
      1  N1        26.7080    5.1480  -14.4790 N.ar  413  PLP413     -0.2452
      2  C2        26.0960    6.0300  -15.3160 C.ar  413  PLP413      0.0978
      3  C2A       26.6690    6.2880  -16.7070 C.3   413  PLP413      0.0555
      4  C3        24.9460    6.6680  -14.9170 C.ar  413  PLP413      0.2049
      5  O3        24.3510    7.6270  -15.7340 O.3   413  PLP413     -0.2857
      6  C4        24.4210    6.4290  -13.6650 C.ar  413  PLP413      0.0182
      7  C4A       23.0970    7.0800  -13.2830 C.3   413  PLP413      0.0342
      8  C5        25.0270    5.5220  -12.8340 C.ar  413  PLP413      0.0261
      9  C6        26.1770    4.8930  -13.2420 C.ar  413  PLP413      0.0965
     10  C5A       24.5420    5.3510  -11.4000 C.3   413  PLP413      0.1815
     11  O4P       23.3380    4.6470  -11.1820 O.3   413  PLP413     -0.2653
     12  P         22.6610    4.7390   -9.7450 P.3   413  PLP413      0.5329
     13  O1P       21.7090    3.6240   -9.7080 O.3   413  PLP413     -0.1145
     14  O2P       21.9580    6.1170   -9.7170 O.2   413  PLP413     -0.2224
     15  O3P       23.7030    4.7730   -8.7210 O.3   413  PLP413     -0.1145
@<TRIPOS>BOND
     1     3     2    1
     2     5     4    1
     3     2     4   ar
     4     2     1   ar
     5     4     6   ar
     6     1     9   ar
     7     6     7    1
     8     6     8   ar
     9     9     8   ar
    10     8    10    1
    11    10    11    1
    12    11    12    1
    13    12    14    2
    14    12    13    1
    15    12    15    1
