@<TRIPOS>MOLECULE
1g7x_PLP_A_1.pdb
 15 15 0 0 0
SMALL
GASTEIGER

@<TRIPOS>ATOM
      1  N1        26.8740    5.2440  -14.5790 N.ar  413  PLP413     -0.2452
      2  C2        26.2570    6.1640  -15.3740 C.ar  413  PLP413      0.0978
      3  C2A       26.8590    6.5220  -16.7300 C.3   413  PLP413      0.0555
      4  C3        25.0970    6.7580  -14.9590 C.ar  413  PLP413      0.2049
      5  O3        24.5190    7.7350  -15.7420 O.3   413  PLP413     -0.2857
      6  C4        24.5400    6.4280  -13.7370 C.ar  413  PLP413      0.0182
      7  C4A       23.1990    7.0720  -13.3570 C.3   413  PLP413      0.0342
      8  C5        25.1680    5.4680  -12.9370 C.ar  413  PLP413      0.0261
      9  C6        26.3320    4.8990  -13.3760 C.ar  413  PLP413      0.0965
     10  C5A       24.6760    5.0660  -11.5190 C.3   413  PLP413      0.1815
     11  O4P       23.2860    5.1270  -11.1730 O.3   413  PLP413     -0.2653
     12  P         22.7200    4.7770   -9.7230 P.3   413  PLP413      0.5329
     13  O1P       21.9150    3.5630   -9.9080 O.2   413  PLP413     -0.2224
     14  O2P       21.8340    6.0390   -9.4290 O.3   413  PLP413     -0.1145
     15  O3P       23.8480    4.7280   -8.7790 O.3   413  PLP413     -0.1145
@<TRIPOS>BOND
     1     3     2    1
     2     5     4    1
     3     2     4   ar
     4     2     1   ar
     5     4     6   ar
     6     1     9   ar
     7     6     7    1
     8     6     8   ar
     9     9     8   ar
    10     8    10    1
    11    10    11    1
    12    11    12    1
    13    13    12    2
    14    12    14    1
    15    12    15    1
