@<TRIPOS>MOLECULE
1g8g_ADX_A_1.pdb
 27 29 0 0 0
SMALL
GASTEIGER

@<TRIPOS>ATOM
      1  SB        98.7780  193.3040  145.9150 S.3   635  ADX635      0.0049
      2  O1B       99.7000  193.2750  144.7570 O.2   635  ADX635     -0.3449
      3  O2B       97.5060  194.2280  145.6480 O.2   635  ADX635     -0.3449
      4  O3B       99.4610  193.7810  147.1470 O.3   635  ADX635     -0.2679
      5  PA        98.5700  190.6330  146.9620 P.3   635  ADX635      0.2383
      6  O1A       98.4630  191.0080  148.3720 O.3   635  ADX635     -0.4361
      7  O2A       97.6390  189.5570  146.5770 O.2   635  ADX635     -0.5161
      8  O3A       98.2020  191.8910  146.0820 O.3   635  ADX635     -0.1945
      9  O5'      100.0890  190.2450  146.6090 O.3   635  ADX635     -0.3102
     10  C5'      101.1980  191.1120  146.9450 C.3   635  ADX635      0.1814
     11  C4'      102.4350  190.7820  146.0610 C.3   635  ADX635      0.1821
     12  O4'      102.5380  189.3630  145.8260 O.3   635  ADX635     -0.3135
     13  C3'      102.3490  191.3900  144.6760 C.3   635  ADX635      0.2184
     14  O3'      103.6540  191.7150  144.1740 O.3   635  ADX635     -0.2174
     15  C2'      101.7660  190.2970  143.8080 C.3   635  ADX635      0.2570
     16  O2'      101.9300  190.5170  142.3890 O.3   635  ADX635     -0.2130
     17  C1'      102.5140  189.1170  144.3980 C.3   635  ADX635      0.3186
     18  N9       101.9340  187.7620  144.2320 N.pl3 635  ADX635     -0.1439
     19  C8       100.8800  187.2840  144.8930 C.3   635  ADX635      0.3377
     20  N7       100.6700  186.0290  144.5320 N.2   635  ADX635     -0.2095
     21  C5       101.5710  185.7010  143.6540 C.2   635  ADX635      0.2526
     22  C6       101.8810  184.5540  142.9380 C.2   635  ADX635      0.4393
     23  N6       101.1520  183.4460  143.1170 N.pl3 635  ADX635      0.2180
     24  N1       102.9400  184.5540  142.0550 N.2   635  ADX635      0.0021
     25  C2       103.6990  185.6570  141.8670 C.3   635  ADX635      0.5254
     26  N3       103.4100  186.7670  142.5690 N.2   635  ADX635     -0.0055
     27  C4       102.3830  186.8300  143.4470 C.2   635  ADX635      0.3518
@<TRIPOS>BOND
     1    25    24    1
     2    25    26    1
     3    24    22    2
     4    16    15    1
     5    26    27    2
     6    22    23    1
     7    22    21    1
     8    27    21    1
     9    27    18    1
    10    21    20    2
    11    15    17    1
    12    15    13    1
    13    14    13    1
    14    18    17    1
    15    18    19    1
    16    17    12    1
    17    20    19    1
    18    13    11    1
    19     2     1    2
    20     3     1    2
    21    12    11    1
    22     1     8    1
    23     1     4    1
    24    11    10    1
    25     8     5    1
    26     7     5    2
    27     9    10    1
    28     9     5    1
    29     5     6    1
