@<TRIPOS>MOLECULE
1g8h_ADX_A_1.pdb
 27 29 0 0 0
SMALL
GASTEIGER

@<TRIPOS>ATOM
      1  SB        98.7330  193.4390  145.8950 S.3   635  ADX635      0.0049
      2  O1B       99.7450  193.3810  144.8080 O.2   635  ADX635     -0.3449
      3  O2B       97.4660  194.3720  145.5140 O.2   635  ADX635     -0.3449
      4  O3B       99.3160  193.9200  147.1800 O.3   635  ADX635     -0.2679
      5  PA        98.5850  190.7440  146.8360 P.3   635  ADX635      0.2383
      6  O1A       98.4130  191.0260  148.2700 O.3   635  ADX635     -0.4361
      7  O2A       97.7330  189.6330  146.3510 O.2   635  ADX635     -0.5161
      8  O3A       98.1670  192.0280  146.0400 O.3   635  ADX635     -0.1945
      9  O5'      100.1230  190.4680  146.4800 O.3   635  ADX635     -0.3102
     10  C5'      101.1690  191.3760  146.8800 C.3   635  ADX635      0.1814
     11  C4'      102.4490  191.0680  146.0760 C.3   635  ADX635      0.1821
     12  O4'      102.5860  189.6440  145.8630 O.3   635  ADX635     -0.3135
     13  C3'      102.4330  191.6740  144.6790 C.3   635  ADX635      0.2184
     14  O3'      103.7440  192.0360  144.2140 O.3   635  ADX635     -0.2174
     15  C2'      101.9170  190.5570  143.8180 C.3   635  ADX635      0.2570
     16  O2'      102.0960  190.7400  142.4120 O.3   635  ADX635     -0.2130
     17  C1'      102.6700  189.4110  144.4380 C.3   635  ADX635      0.3186
     18  N9       102.1040  188.0800  144.1160 N.pl3 635  ADX635     -0.1439
     19  C8       101.0330  187.5500  144.6900 C.3   635  ADX635      0.3377
     20  N7       100.8170  186.3500  144.1790 N.2   635  ADX635     -0.2095
     21  C5       101.7290  186.0960  143.2860 C.2   635  ADX635      0.2526
     22  C6       102.0240  185.0240  142.4370 C.2   635  ADX635      0.4393
     23  N6       101.2550  183.9170  142.4480 N.pl3 635  ADX635      0.2180
     24  N1       103.1030  185.1030  141.5930 N.2   635  ADX635      0.0021
     25  C2       103.8990  186.2000  141.5580 C.3   635  ADX635      0.5254
     26  N3       103.6200  187.2280  142.3750 N.2   635  ADX635     -0.0055
     27  C4       102.5700  187.2200  143.2350 C.2   635  ADX635      0.3518
@<TRIPOS>BOND
     1    25    24    1
     2    25    26    1
     3    24    22    2
     4    26    27    2
     5    16    15    1
     6    22    23    1
     7    22    21    1
     8    27    21    1
     9    27    18    1
    10    21    20    2
    11    15    17    1
    12    15    13    1
    13    18    17    1
    14    18    19    1
    15    20    19    1
    16    14    13    1
    17    17    12    1
    18    13    11    1
    19     2     1    2
    20     3     1    2
    21    12    11    1
    22     1     8    1
    23     1     4    1
    24     8     5    1
    25    11    10    1
    26     7     5    2
    27     9     5    1
    28     9    10    1
    29     5     6    1
