@<TRIPOS>MOLECULE
1g8j_MGD_A_1.pdb
 47 52 0 0 0
SMALL
GASTEIGER

@<TRIPOS>ATOM
      1  PB        40.7150   -4.8460  -25.2510 P.3   2001  MGD2001     0.2189
      2  O1B       40.8400   -5.3850  -26.6270 O.2   2001  MGD2001    -0.5170
      3  O2B       41.2610   -5.6170  -24.1170 O.3   2001  MGD2001    -0.4371
      4  O3B       39.1570   -4.6280  -25.0040 O.3   2001  MGD2001    -0.2703
      5  O3A       37.4210   -4.6320  -23.1790 O.3   2001  MGD2001    -0.3112
      6  PA        38.5850   -3.7540  -23.8060 P.3   2001  MGD2001     0.2189
      7  O1A       39.5410   -3.6220  -22.7020 O.3   2001  MGD2001    -0.4371
      8  O2A       37.9660   -2.5400  -24.3710 O.2   2001  MGD2001    -0.5170
      9  O5'       41.3280   -3.3810  -25.2320 O.3   2001  MGD2001    -0.3112
     10  C5'       42.7220   -3.1460  -25.2580 C.3   2001  MGD2001     0.1813
     11  C4'       42.9910   -1.9030  -26.0560 C.3   2001  MGD2001     0.1799
     12  O4'       44.2280   -1.2880  -25.6300 O.3   2001  MGD2001    -0.3326
     13  C3'       43.0820   -2.0910  -27.5580 C.3   2001  MGD2001     0.2158
     14  O3'       42.4950   -0.9740  -28.2210 O.3   2001  MGD2001    -0.2175
     15  C2'       44.5920   -2.1700  -27.7940 C.3   2001  MGD2001     0.2310
     16  O2'       44.9440   -1.6940  -29.0750 O.3   2001  MGD2001    -0.2158
     17  C1'       45.1250   -1.2190  -26.7190 C.3   2001  MGD2001     0.2293
     18  N9        46.4480   -1.5320  -26.1810 N.pl3 2001  MGD2001    -0.2354
     19  C8        47.1480   -2.7170  -26.2430 C.3   2001  MGD2001     0.2246
     20  N7        48.2780   -2.6760  -25.5880 N.2   2001  MGD2001    -0.2322
     21  C5        48.3360   -1.3790  -25.0880 C.2   2001  MGD2001     0.2182
     22  C6        49.3330   -0.7250  -24.2980 C.1   2001  MGD2001     0.2372
     23  O6        50.4230   -1.1750  -23.8840 O.2   2001  MGD2001    -0.2069
     24  N1        48.9650    0.5860  -24.0020 N.2   2001  MGD2001    -0.2485
     25  C2        47.8020    1.2030  -24.4320 C.1   2001  MGD2001     0.2531
     26  N2        47.6050    2.4800  -24.0480 N.pl3 2001  MGD2001    -0.0226
     27  N3        46.8950    0.6130  -25.1800 N.2   2001  MGD2001    -0.3074
     28  C4        47.2170   -0.6640  -25.4600 C.2   2001  MGD2001     0.2300
     29  C10       37.6670   -5.9240  -22.6840 C.3   2001  MGD2001     0.1798
     30  C11       36.5020   -6.3980  -21.8580 C.3   2001  MGD2001     0.1623
     31  O11       35.3050   -6.5660  -22.6470 O.3   2001  MGD2001    -0.3309
     32  C12       36.7960   -7.6740  -21.0440 C.3   2001  MGD2001     0.1141
     33  S12       38.4400   -8.2420  -20.5690 S.3   2001  MGD2001    -0.0753
     34  C13       35.6720   -8.4280  -20.6300 C.2   2001  MGD2001     0.0309
     35  S13       35.9180   -9.8100  -19.6560 S.2   2001  MGD2001    -0.0569
     36  C14       34.2120   -8.0670  -20.9880 C.3   2001  MGD2001     0.1817
     37  N15       33.8340   -9.3040  -21.7010 N.2   2001  MGD2001    -0.2414
     38  C16       32.7450   -9.2600  -22.5470 C.2   2001  MGD2001     0.2467
     39  C17       31.9180  -10.4560  -22.7970 C.1   2001  MGD2001     0.2441
     40  O17       32.1570  -11.5710  -22.3200 O.2   2001  MGD2001    -0.2063
     41  N18       30.7430  -10.3110  -23.5340 N.2   2001  MGD2001    -0.2474
     42  C19       30.3470   -9.0840  -24.0250 C.1   2001  MGD2001     0.2608
     43  N19       29.1990   -9.0680  -24.7220 N.pl3 2001  MGD2001    -0.0220
     44  N20       31.1130   -7.9650  -23.7920 N.2   2001  MGD2001    -0.2682
     45  C21       32.3080   -8.0170  -23.0620 C.1   2001  MGD2001     0.1293
     46  N22       32.9080   -6.8210  -22.6990 N.2   2001  MGD2001    -0.1763
     47  C23       34.1230   -6.7900  -21.8370 C.3   2001  MGD2001     0.2567
@<TRIPOS>BOND
     1    16    15    1
     2    14    13    1
     3    15    13    1
     4    15    17    1
     5    13    11    1
     6    17    18    1
     7    17    12    1
     8     2     1    2
     9    19    18    1
    10    19    20    1
    11    18    28    1
    12    11    12    1
    13    11    10    1
    14    20    21    2
    15    28    27    2
    16    28    21    1
    17    10     9    1
    18     1     9    1
    19     1     4    1
    20     1     3    1
    21    27    25    2
    22    21    22    1
    23     4     6    1
    24    43    42    1
    25    25    26    1
    26    25    24    2
    27     8     6    2
    28    22    24    2
    29    22    23    2
    30    42    44    2
    31    42    41    2
    32     6     5    1
    33     6     7    1
    34    44    45    2
    35    41    39    2
    36     5    29    1
    37    45    46    2
    38    45    38    1
    39    39    38    1
    40    39    40    2
    41    46    47    1
    42    29    30    1
    43    31    30    1
    44    31    47    1
    45    38    37    2
    46    30    32    1
    47    47    36    1
    48    37    36    1
    49    32    34    1
    50    32    33    1
    51    36    34    1
    52    34    35    2
