@<TRIPOS>MOLECULE
1g8k_MGD_A_1.pdb
 47 52 0 0 0
SMALL
GASTEIGER

@<TRIPOS>ATOM
      1  PB        73.5250   14.1300   -5.2550 P.3   5001  MGD5001     0.2189
      2  O1B       73.5210   13.2000   -4.1040 O.3   5001  MGD5001    -0.4371
      3  O2B       74.0550   13.6330   -6.5130 O.2   5001  MGD5001    -0.5170
      4  O3B       74.1490   15.5180   -4.7650 O.3   5001  MGD5001    -0.2703
      5  O3A       75.6350   17.4380   -5.3410 O.3   5001  MGD5001    -0.3109
      6  PA        74.1050   16.9590   -5.4740 P.3   5001  MGD5001     0.2189
      7  O1A       73.7630   16.8110   -6.9120 O.2   5001  MGD5001    -0.5170
      8  O2A       73.4080   17.9040   -4.6320 O.3   5001  MGD5001    -0.4371
      9  O5'       72.0040   14.6170   -5.4660 O.3   5001  MGD5001    -0.3112
     10  C5'       71.0410   13.8160   -6.1290 C.3   5001  MGD5001     0.1813
     11  C4'       69.6870   14.1070   -5.4980 C.3   5001  MGD5001     0.1799
     12  O4'       68.6600   13.7490   -6.4410 O.3   5001  MGD5001    -0.3326
     13  C3'       69.3990   13.3590   -4.2020 C.3   5001  MGD5001     0.2158
     14  O3'       68.7010   14.1880   -3.2550 O.3   5001  MGD5001    -0.2175
     15  C2'       68.5670   12.1680   -4.6790 C.3   5001  MGD5001     0.2310
     16  O2'       67.6720   11.6950   -3.6860 O.3   5001  MGD5001    -0.2158
     17  C1'       67.8110   12.7780   -5.8660 C.3   5001  MGD5001     0.2293
     18  N9        67.5000   11.8500   -6.9240 N.pl3 5001  MGD5001    -0.2354
     19  C8        68.0520   10.6300   -7.1880 C.3   5001  MGD5001     0.2246
     20  N7        67.5970   10.0900   -8.2750 N.2   5001  MGD5001    -0.2322
     21  C5        66.6310   11.0070   -8.7260 C.2   5001  MGD5001     0.2182
     22  C6        65.7720   10.9690   -9.8630 C.1   5001  MGD5001     0.2372
     23  O6        65.6350   10.0800  -10.6790 O.2   5001  MGD5001    -0.2069
     24  N1        65.0250   12.1450   -9.9780 N.2   5001  MGD5001    -0.2485
     25  C2        65.0730   13.1990   -9.1090 C.1   5001  MGD5001     0.2531
     26  N2        64.3200   14.3230   -9.3970 N.pl3 5001  MGD5001    -0.0226
     27  N3        65.8250   13.2120   -8.0150 N.2   5001  MGD5001    -0.3074
     28  C4        66.5760   12.0850   -7.9110 C.2   5001  MGD5001     0.2300
     29  C10       76.6590   16.6180   -5.9090 C.3   5001  MGD5001     0.1837
     30  C11       77.8200   17.5220   -6.1970 C.3   5001  MGD5001     0.1762
     31  O11       78.4250   17.8960   -4.9810 O.3   5001  MGD5001    -0.3271
     32  C12       78.8210   16.8800   -7.1640 C.2   5001  MGD5001     0.0473
     33  S12       78.3540   15.7250   -8.3870 S.3   5001  MGD5001    -0.0526
     34  C13       80.1830   17.2870   -7.0310 C.2   5001  MGD5001     0.0449
     35  S13       81.3660   16.5980   -8.1320 S.3   5001  MGD5001    -0.0530
     36  C14       80.6200   18.2860   -5.9880 C.3   5001  MGD5001     0.1850
     37  N15       81.5330   17.4400   -5.1770 N.2   5001  MGD5001    -0.2411
     38  C16       81.9620   18.0980   -4.0170 C.2   5001  MGD5001     0.2467
     39  C17       83.2890   17.8870   -3.4170 C.1   5001  MGD5001     0.2441
     40  O17       84.1700   17.1840   -3.9230 O.2   5001  MGD5001    -0.2063
     41  N18       83.5540   18.5610   -2.2280 N.2   5001  MGD5001    -0.2474
     42  C19       82.6240   19.3950   -1.6300 C.1   5001  MGD5001     0.2608
     43  N19       82.9490   19.9840   -0.5050 N.pl3 5001  MGD5001    -0.0220
     44  N20       81.4320   19.5770   -2.1940 N.2   5001  MGD5001    -0.2682
     45  C21       81.0790   18.9650   -3.3480 C.1   5001  MGD5001     0.1293
     46  N22       79.8370   19.2910   -3.8470 N.2   5001  MGD5001    -0.1763
     47  C23       79.4350   18.8390   -5.1500 C.3   5001  MGD5001     0.2573
@<TRIPOS>BOND
     1    23    22    2
     2    24    22    2
     3    24    25    2
     4    22    21    1
     5    26    25    1
     6    25    27    2
     7    21    20    2
     8    21    28    1
     9    33    32    1
    10    20    19    1
    11    35    34    1
    12    27    28    2
    13    28    18    1
    14    19    18    1
    15    32    34    2
    16    32    30    1
    17    34    36    1
    18    18    17    1
    19     7     6    2
    20     3     1    2
    21    12    17    1
    22    12    11    1
    23    30    29    1
    24    30    31    1
    25    10    11    1
    26    10     9    1
    27    36    37    1
    28    36    47    1
    29    29     5    1
    30    17    15    1
    31    11    13    1
    32     6     5    1
    33     6     4    1
    34     6     8    1
    35     9     1    1
    36     1     4    1
    37     1     2    1
    38    37    38    2
    39    47    31    1
    40    47    46    1
    41    15    13    1
    42    15    16    1
    43    13    14    1
    44    38    39    1
    45    38    45    1
    46    40    39    2
    47    46    45    2
    48    39    41    2
    49    45    44    2
    50    41    42    2
    51    44    42    2
    52    42    43    1
