@<TRIPOS>MOLECULE
1g8o_U5P_A_1.pdb
 21 22 0 0 0
SMALL
GASTEIGER

@<TRIPOS>ATOM
      1  N1        84.8490   13.9900   47.7690 N.am  474  U5P474     -0.1766
      2  C2        84.8450   12.7090   48.3280 C.1   474  U5P474      0.2845
      3  N3        83.6380   12.0500   48.2480 N.2   474  U5P474     -0.2452
      4  C4        82.4380   12.5160   47.6780 C.1   474  U5P474      0.2182
      5  C5        82.5220   13.8300   47.1350 C.2   474  U5P474      0.1242
      6  C6        83.6560   14.4950   47.1880 C.2   474  U5P474      0.0929
      7  O2        85.8450   12.2500   48.8360 O.2   474  U5P474     -0.1918
      8  O4        81.4670   11.7890   47.6970 O.2   474  U5P474     -0.2085
      9  C1'       86.1230   14.8110   47.7890 C.3   474  U5P474      0.2401
     10  C2'       87.1440   14.2490   46.7810 C.3   474  U5P474      0.2319
     11  O2'       88.5420   14.4390   47.1850 O.3   474  U5P474     -0.2157
     12  C3'       86.7360   14.9610   45.5180 C.3   474  U5P474      0.2158
     13  C4'       86.5240   16.3720   46.0830 C.3   474  U5P474      0.1801
     14  O3'       87.6750   14.8110   44.4120 O.3   474  U5P474     -0.2175
     15  O4'       85.8310   16.1070   47.3510 O.3   474  U5P474     -0.3320
     16  C5'       85.5490   17.2550   45.2970 C.3   474  U5P474      0.1859
     17  O5'       85.4000   16.7890   43.9330 O.3   474  U5P474     -0.2675
     18  P         83.9730   16.4110   43.2900 P.3   474  U5P474      0.5327
     19  O1P       83.1510   15.3380   43.9360 O.3   474  U5P474     -0.1145
     20  O2P       84.1400   15.9290   41.8900 O.2   474  U5P474     -0.2224
     21  O3P       83.2800   17.9240   43.1240 O.3   474  U5P474     -0.1145
@<TRIPOS>BOND
     1    20    18    2
     2    21    18    1
     3    18    17    1
     4    18    19    1
     5    17    16    1
     6    14    12    1
     7    16    13    1
     8    12    13    1
     9    12    10    1
    10    13    15    1
    11    10    11    1
    12    10     9    1
    13     5     6    2
    14     5     4    1
    15     6     1    1
    16    15     9    1
    17     4     8    2
    18     4     3    2
    19     1     9    1
    20     1     2   am
    21     3     2    2
    22     2     7    2
