@<TRIPOS>MOLECULE
1g8x_ADP_A_1.pdb
 27 29 0 0 0
SMALL
GASTEIGER

@<TRIPOS>ATOM
      1  PB        51.2560   49.3540   47.6880 P.3   1100  ADP1100     0.5373
      2  O1B       52.3450   49.7300   46.7490 O.2   1100  ADP1100    -0.2221
      3  O2B       51.4540   49.6710   49.1040 O.3   1100  ADP1100    -0.1143
      4  O3B       50.0040   50.0470   47.1100 O.3   1100  ADP1100    -0.1143
      5  PA        50.7900   46.7900   48.9280 P.3   1100  ADP1100     0.2231
      6  O1A       51.9260   46.8510   49.8760 O.3   1100  ADP1100    -0.4370
      7  O2A       49.4590   47.0990   49.4710 O.2   1100  ADP1100    -0.5169
      8  O3A       50.9960   47.7840   47.6770 O.3   1100  ADP1100    -0.2261
      9  O5'       50.8020   45.3360   48.3050 O.3   1100  ADP1100    -0.3111
     10  C5'       49.6980   44.9610   47.4580 C.3   1100  ADP1100     0.1813
     11  C4'       49.5100   43.4860   47.5980 C.3   1100  ADP1100     0.1821
     12  O4'       50.6910   42.9480   47.0530 O.3   1100  ADP1100    -0.3135
     13  C3'       49.5510   42.9500   49.0000 C.3   1100  ADP1100     0.2184
     14  O3'       48.4820   43.2650   49.8910 O.3   1100  ADP1100    -0.2174
     15  C2'       49.8540   41.5240   48.7240 C.3   1100  ADP1100     0.2570
     16  O2'       48.7420   40.7960   48.3060 O.3   1100  ADP1100    -0.2130
     17  C1'       50.9660   41.7040   47.7200 C.3   1100  ADP1100     0.3186
     18  N9        52.3260   41.7820   48.3220 N.pl3 1100  ADP1100    -0.1439
     19  C8        53.1800   42.8300   48.3050 C.3   1100  ADP1100     0.3377
     20  N7        54.3140   42.5860   48.8400 N.2   1100  ADP1100    -0.2095
     21  C5        54.2260   41.2820   49.2490 C.2   1100  ADP1100     0.2526
     22  C6        55.1590   40.4690   49.8960 C.2   1100  ADP1100     0.4393
     23  N6        56.3390   40.9360   50.2030 N.pl3 1100  ADP1100     0.2180
     24  N1        54.7890   39.1320   50.2030 N.2   1100  ADP1100     0.0021
     25  C2        53.5020   38.6940   49.8370 C.3   1100  ADP1100     0.5254
     26  N3        52.5600   39.4350   49.2120 N.2   1100  ADP1100    -0.0055
     27  C4        53.0030   40.7450   48.9440 C.2   1100  ADP1100     0.3518
@<TRIPOS>BOND
     1     2     1    2
     2    12    11    1
     3    12    17    1
     4     4     1    1
     5    10    11    1
     6    10     9    1
     7    11    13    1
     8     8     1    1
     9     8     5    1
    10     1     3    1
    11    17    18    1
    12    17    15    1
    13    19    18    1
    14    19    20    1
    15     9     5    1
    16    16    15    1
    17    18    27    1
    18    15    13    1
    19    20    21    2
    20     5     7    2
    21     5     6    1
    22    27    26    2
    23    27    21    1
    24    13    14    1
    25    26    25    1
    26    21    22    1
    27    25    24    1
    28    22    23    1
    29    22    24    2
