@<TRIPOS>MOLECULE
1g8z_GAL_D_1.pdb
 12 12 0 0 0
SMALL
GASTEIGER

@<TRIPOS>ATOM
      1  C1        49.9960   43.7260   -8.5440 C.3   104  GAL104      0.3024
      2  C2        49.8640   45.2320   -8.6410 C.3   104  GAL104      0.2434
      3  C3        49.4460   45.7760   -7.2830 C.3   104  GAL104      0.2199
      4  C4        48.1070   45.0910   -6.8950 C.3   104  GAL104      0.2144
      5  C5        48.2740   43.5810   -6.9500 C.3   104  GAL104      0.1836
      6  C6        46.9520   42.8290   -6.7590 C.3   104  GAL104      0.2142
      7  O1        50.3440   43.2300   -9.8030 O.3   104  GAL104     -0.1869
      8  O2        51.1260   45.8290   -8.9830 O.3   104  GAL104     -0.2148
      9  O3        49.2130   47.1620   -7.4470 O.3   104  GAL104     -0.2174
     10  O4        47.1440   45.5040   -7.8370 O.3   104  GAL104     -0.2176
     11  O5        48.7020   43.1320   -8.2590 O.3   104  GAL104     -0.3236
     12  O6        47.1270   41.4090   -6.7990 O.3   104  GAL104     -0.2176
@<TRIPOS>BOND
     1     7     1    1
     2     8     2    1
     3     2     1    1
     4     2     3    1
     5     1    11    1
     6    11     5    1
     7    10     4    1
     8     9     3    1
     9     3     4    1
    10     5     4    1
    11     5     6    1
    12    12     6    1
