@<TRIPOS>MOLECULE
1g93_GAL_A_1.pdb
 11 11 0 0 0
SMALL
GASTEIGER

@<TRIPOS>ATOM
      1  C1        84.7410   24.2730   37.1210 C.3   502  GAL502      0.1777
      2  C2        84.9010   22.7630   37.4220 C.3   502  GAL502      0.2141
      3  C3        84.2880   21.7890   36.3910 C.3   502  GAL502      0.2173
      4  C4        82.9990   22.3100   35.7840 C.3   502  GAL502      0.2142
      5  C5        83.2770   23.7180   35.3160 C.3   502  GAL502      0.1810
      6  C6        82.1880   24.3460   34.4840 C.3   502  GAL502      0.2141
      7  O2        86.2780   22.4680   37.4990 O.3   502  GAL502     -0.2176
      8  O3        84.0100   20.5590   37.0350 O.3   502  GAL502     -0.2175
      9  O4        81.9830   22.3050   36.7760 O.3   502  GAL502     -0.2176
     10  O5        83.4910   24.5430   36.4670 O.3   502  GAL502     -0.3481
     11  O6        82.7460   25.1460   33.4520 O.3   502  GAL502     -0.2176
@<TRIPOS>BOND
     1    11     6    1
     2     6     5    1
     3     5     4    1
     4     5    10    1
     5     4     3    1
     6     4     9    1
     7     3     8    1
     8     3     2    1
     9    10     1    1
    10     1     2    1
    11     2     7    1
