@<TRIPOS>MOLECULE
1g93_UPG_A_1.pdb
 36 38 0 0 0
SMALL
GASTEIGER

@<TRIPOS>ATOM
      1  N1        84.7350   13.5800   46.1900 N.am  500  UPG500     -0.1766
      2  C2        84.5790   12.5780   47.1340 C.1   500  UPG500      0.2845
      3  N3        83.4210   11.8300   47.0190 N.2   500  UPG500     -0.2452
      4  C4        82.4320   11.9770   46.0510 C.1   500  UPG500      0.2182
      5  C5        82.6970   13.0400   45.1310 C.2   500  UPG500      0.1242
      6  C6        83.7810   13.7820   45.2310 C.2   500  UPG500      0.0929
      7  O2        85.3940   12.3630   48.0080 O.2   500  UPG500     -0.1918
      8  O4        81.4620   11.2400   46.0650 O.2   500  UPG500     -0.2085
      9  C1C       85.6750   14.6310   46.0620 C.3   500  UPG500      0.2401
     10  C2C       86.6880   14.1760   45.0310 C.3   500  UPG500      0.2319
     11  O2C       87.5570   13.1460   45.5240 O.3   500  UPG500     -0.2157
     12  C3C       87.4540   15.4800   44.7040 C.3   500  UPG500      0.2158
     13  C4C       86.3610   16.5110   44.8920 C.3   500  UPG500      0.1799
     14  O4C       85.3500   15.9310   45.7650 O.3   500  UPG500     -0.3320
     15  O3C       88.5280   15.7630   45.5870 O.3   500  UPG500     -0.2175
     16  C5C       85.6890   16.9550   43.6190 C.3   500  UPG500      0.1813
     17  O5C       85.2160   15.7850   42.9040 O.3   500  UPG500     -0.3112
     18  PA        84.2180   15.9590   41.6500 P.3   500  UPG500      0.2189
     19  O1A       83.0610   16.8190   41.9280 O.3   500  UPG500     -0.4371
     20  O2A       83.8680   14.6380   41.1030 O.2   500  UPG500     -0.5170
     21  O3A       85.0960   16.8460   40.5910 O.3   500  UPG500     -0.2703
     22  PB        84.4120   17.9780   39.5940 P.3   500  UPG500      0.2208
     23  O1B       82.9710   18.4120   39.4740 O.3   500  UPG500     -0.4371
     24  O2B       85.0470   17.9110   38.2100 O.2   500  UPG500     -0.5170
     25  O3B       85.0540   19.0790   40.5040 O.3   500  UPG500     -0.2857
     26  C1'       85.1950   20.4690   40.1440 C.3   500  UPG500      0.2742
     27  C2'       86.5160   21.0240   40.7880 C.3   500  UPG500      0.2409
     28  C3'       86.4580   20.6840   42.3310 C.3   500  UPG500      0.2198
     29  C4'       85.1770   21.2690   43.0010 C.3   500  UPG500      0.2144
     30  C5'       83.8810   20.9450   42.1670 C.3   500  UPG500      0.1835
     31  C6'       82.6460   21.8040   42.5090 C.3   500  UPG500      0.2142
     32  O2'       87.6800   20.3670   40.2080 O.3   500  UPG500     -0.2149
     33  O3'       87.6340   21.1930   43.0590 O.3   500  UPG500     -0.2174
     34  O4'       85.2820   22.7000   43.1050 O.3   500  UPG500     -0.2176
     35  O5'       84.0860   21.1500   40.7360 O.3   500  UPG500     -0.3254
     36  O6'       81.5280   21.3750   41.6400 O.3   500  UPG500     -0.2176
@<TRIPOS>BOND
     1    24    22    2
     2    23    22    1
     3    22    25    1
     4    22    21    1
     5    26    25    1
     6    26    35    1
     7    26    27    1
     8    32    27    1
     9    21    18    1
    10    35    30    1
    11    27    28    1
    12    20    18    2
    13    36    31    1
    14    18    19    1
    15    18    17    1
    16    30    31    1
    17    30    29    1
    18    28    29    1
    19    28    33    1
    20    17    16    1
    21    29    34    1
    22    16    13    1
    23    12    13    1
    24    12    10    1
    25    12    15    1
    26    13    14    1
    27    10    11    1
    28    10     9    1
    29     5     6    2
    30     5     4    1
    31     6     1    1
    32    14     9    1
    33     4     8    2
    34     4     3    2
    35     9     1    1
    36     1     2   am
    37     3     2    2
    38     2     7    2
