@<TRIPOS>MOLECULE
1g94_GLC_A_1.pdb
 11 11 0 0 0
SMALL
GASTEIGER

@<TRIPOS>ATOM
      1  C1        12.6370   35.2410    6.4560 C.3   599  GLC599      0.1777
      2  C2        11.1250   35.5190    6.5890 C.3   599  GLC599      0.2141
      3  C3        10.6850   36.7240    5.7480 C.3   599  GLC599      0.2173
      4  C4        11.5780   37.9150    6.0820 C.3   599  GLC599      0.2142
      5  C5        13.0120   37.5130    5.7190 C.3   599  GLC599      0.1810
      6  C6        14.0400   38.6310    5.8920 C.3   599  GLC599      0.2141
      7  O2        10.4070   34.3650    6.1620 O.3   599  GLC599     -0.2176
      8  O3         9.3280   37.0480    6.0300 O.3   599  GLC599     -0.2175
      9  O4        11.1570   39.0860    5.3520 O.3   599  GLC599     -0.2176
     10  O5        13.4150   36.4310    6.5740 O.3   599  GLC599     -0.3481
     11  O6        13.9940   39.1670    7.2090 O.3   599  GLC599     -0.2176
@<TRIPOS>BOND
     1     9     4    1
     2     5     6    1
     3     5     4    1
     4     5    10    1
     5     3     8    1
     6     3     4    1
     7     3     2    1
     8     6    11    1
     9     7     2    1
    10     1    10    1
    11     1     2    1
