@<TRIPOS>MOLECULE
1g94_DAF_A_1.pdb
 21 22 0 0 0
SMALL
GASTEIGER

@<TRIPOS>ATOM
      1  C1        11.0780   40.2760    6.1040 C.3   598  DAF598      0.1775
      2  C2         9.6460   40.8070    6.1200 C.3   598  DAF598      0.2129
      3  C3         9.2590   41.2550    4.7140 C.3   598  DAF598      0.2028
      4  C4        10.2440   42.3180    4.2290 C.3   598  DAF598      0.1331
      5  C5        11.6630   41.7470    4.2850 C.3   598  DAF598      0.1339
      6  C6        12.6920   42.8060    3.8750 C.3   598  DAF598      0.0336
      7  O2         8.7580   39.8010    6.5890 O.3   598  DAF598     -0.2177
      8  O3         7.9510   41.7970    4.7270 O.3   598  DAF598     -0.2187
      9  O5        11.9510   41.2910    5.6190 O.3   598  DAF598     -0.3519
     10  N4         9.9110   42.7230    2.8710 N.3   598  DAF598     -0.2087
     11  C1H        9.3230   44.0580    2.8600 C.3   598  DAF598      0.1273
     12  C2H        8.2230   44.1010    1.8050 C.3   598  DAF598      0.2049
     13  C3H        8.8560   43.9690    0.4180 C.3   598  DAF598      0.2179
     14  C4H        9.4720   45.2970    0.0090 C.3   598  DAF598      0.2053
     15  C5H       10.4240   45.7390    1.1080 C.2   598  DAF598      0.0180
     16  C6H       10.3480   45.1660    2.5210 C.2   598  DAF598     -0.0100
     17  C7H       11.4490   46.7920    0.7150 C.3   598  DAF598      0.2066
     18  O2H        7.3100   43.0350    2.0250 O.3   598  DAF598     -0.2184
     19  O3H        7.8870   43.5710   -0.5400 O.3   598  DAF598     -0.2172
     20  O4H       10.1350   45.1550   -1.2380 O.3   598  DAF598     -0.2157
     21  O7H       12.4090   47.0020    1.7420 O.3   598  DAF598     -0.2155
@<TRIPOS>BOND
     1    20    14    1
     2    19    13    1
     3    14    13    1
     4    14    15    1
     5    13    12    1
     6    17    15    1
     7    17    21    1
     8    15    16    2
     9    12    18    1
    10    12    11    1
    11    16    11    1
    12    11    10    1
    13    10     4    1
    14     6     5    1
    15     4     5    1
    16     4     3    1
    17     5     9    1
    18     3     8    1
    19     3     2    1
    20     9     1    1
    21     1     2    1
    22     2     7    1
