@<TRIPOS>MOLECULE
1g97_UD1_A_1.pdb
 39 41 0 0 0
SMALL
GASTEIGER

@<TRIPOS>ATOM
      1  C1'       26.0520    9.9340  -23.8160 C.3   500  UD1500      0.2633
      2  C2'       25.6220    9.8490  -25.2990 C.3   500  UD1500      0.1845
      3  C3'       26.7430   10.3920  -26.2000 C.3   500  UD1500      0.2094
      4  C4'       27.1220   11.7950  -25.7690 C.3   500  UD1500      0.2136
      5  C5'       27.4160   11.8870  -24.2550 C.3   500  UD1500      0.1834
      6  C6'       27.5900   13.3670  -23.8970 C.3   500  UD1500      0.2142
      7  C7'       24.0760    7.9070  -25.5900 C.2   500  UD1500      0.2420
      8  C8'       23.9030    6.4860  -26.0550 C.3   500  UD1500      0.0964
      9  N2'       25.3180    8.4520  -25.6890 N.am  500  UD1500     -0.1992
     10  O1'       27.2110    9.1080  -23.6570 O.3   500  UD1500     -0.2864
     11  O3'       26.3420   10.4270  -27.5720 O.3   500  UD1500     -0.2183
     12  O4'       28.2390   12.2330  -26.5490 O.3   500  UD1500     -0.2176
     13  O5'       26.3470   11.3080  -23.4620 O.3   500  UD1500     -0.3260
     14  O6'       27.9040   13.5710  -22.5160 O.3   500  UD1500     -0.2176
     15  O7'       23.1520    8.5780  -25.1570 O.2   500  UD1500     -0.2733
     16  N1        21.3800    6.8520  -18.1070 N.am  500  UD1500     -0.1766
     17  C2        20.1030    6.4570  -17.6300 C.1   500  UD1500      0.2845
     18  N3        19.7600    5.1020  -17.8550 N.2   500  UD1500     -0.2452
     19  C4        20.6130    4.2150  -18.5000 C.1   500  UD1500      0.2182
     20  C5        21.9050    4.6440  -18.9620 C.2   500  UD1500      0.1242
     21  C6        22.2630    5.9510  -18.7580 C.2   500  UD1500      0.0929
     22  O2        19.3120    7.2350  -17.0580 O.2   500  UD1500     -0.1918
     23  O4        20.3220    3.0410  -18.7410 O.2   500  UD1500     -0.2085
     24  C1B       21.7890    8.2690  -17.9130 C.3   500  UD1500      0.2401
     25  C2B       23.0420    8.5500  -17.0840 C.3   500  UD1500      0.2319
     26  O2'       22.6450    8.6380  -15.7270 O.3   500  UD1500     -0.2157
     27  C3B       23.4740    9.9320  -17.6060 C.3   500  UD1500      0.2158
     28  C4B       22.9340    9.9490  -19.0530 C.3   500  UD1500      0.1799
     29  O4B       21.8840    8.9740  -19.1480 O.3   500  UD1500     -0.3320
     30  O3B       22.8810   11.0180  -16.8920 O.3   500  UD1500     -0.2175
     31  C5B       24.0080    9.5400  -20.0610 C.3   500  UD1500      0.1813
     32  O5B       24.5120    8.2470  -19.7590 O.3   500  UD1500     -0.3112
     33  PA        26.1160    8.0140  -19.8540 P.3   500  UD1500      0.2189
     34  O1A       26.8420    9.0720  -19.0720 O.3   500  UD1500     -0.4371
     35  O2A       26.4310    6.6250  -19.4620 O.2   500  UD1500     -0.5170
     36  O3A       26.3720    8.2190  -21.4400 O.3   500  UD1500     -0.2703
     37  PB        27.7380    8.5910  -22.2170 P.3   500  UD1500      0.2208
     38  O1B       28.5560    7.3660  -22.4470 O.2   500  UD1500     -0.5170
     39  O2B       28.4160    9.7500  -21.5290 O.3   500  UD1500     -0.4371
@<TRIPOS>BOND
     1    11     3    1
     2    12     4    1
     3     3     4    1
     4     3     2    1
     5     8     7    1
     6     4     5    1
     7     9     7   am
     8     9     2    1
     9     7    15    2
    10     2     1    1
    11     5     6    1
    12     5    13    1
    13     6    14    1
    14     1    10    1
    15     1    13    1
    16    10    37    1
    17    38    37    2
    18    37    39    1
    19    37    36    1
    20    36    33    1
    21    31    32    1
    22    31    28    1
    23    33    32    1
    24    33    35    2
    25    33    34    1
    26    29    28    1
    27    29    24    1
    28    28    27    1
    29    20    21    2
    30    20    19    1
    31    21    16    1
    32    23    19    2
    33    19    18    2
    34    16    24    1
    35    16    17   am
    36    24    25    1
    37    18    17    2
    38    17    22    2
    39    27    25    1
    40    27    30    1
    41    25    26    1
