@<TRIPOS>MOLECULE
1g98_PA5_A_1.pdb
 15 14 0 0 0
SMALL
GASTEIGER

@<TRIPOS>ATOM
      1  O1A       13.8520    9.7460   28.4480 O.co2 558  PA5558     -0.2427
      2  C1        14.8530   10.4270   28.9870 C.2   558  PA5558      0.3973
      3  O1        15.2550   11.4550   28.4560 O.co2 558  PA5558     -0.2427
      4  C2        15.2620    9.6400   30.2750 C.3   558  PA5558      0.2865
      5  O2        14.5510    8.4270   30.6060 O.3   558  PA5558     -0.2080
      6  C3        16.7350    9.2390   29.9410 C.3   558  PA5558      0.2259
      7  O3        16.7520    8.3060   28.8820 O.3   558  PA5558     -0.2169
      8  C4        17.3870    8.4810   31.1480 C.3   558  PA5558      0.2152
      9  O4        17.3890    9.4260   32.2260 O.3   558  PA5558     -0.2176
     10  C5        18.8390    8.1100   30.7400 C.3   558  PA5558      0.1892
     11  O5        19.4830    9.4260   30.4310 O.3   558  PA5558     -0.2674
     12  P         21.0060    9.1200   29.9410 P.3   558  PA5558      0.5327
     13  O1P       21.7690    8.3250   31.0230 O.3   558  PA5558     -0.1145
     14  O2P       20.9980    8.2320   28.7070 O.2   558  PA5558     -0.2224
     15  O3P       21.6260   10.4930   29.6350 O.3   558  PA5558     -0.1145
@<TRIPOS>BOND
     1     1     2   ar
     2     3     2   ar
     3    14    12    2
     4     7     6    1
     5     2     4    1
     6    15    12    1
     7     6     4    1
     8     6     8    1
     9    12    11    1
    10    12    13    1
    11     4     5    1
    12    11    10    1
    13    10     8    1
    14     8     9    1
