@<TRIPOS>MOLECULE
1g99_ADP_A_1.pdb
 27 29 0 0 0
SMALL
GASTEIGER

@<TRIPOS>ATOM
      1  PB        42.0250   44.4440   64.0790 P.3   410  ADP410      0.5373
      2  O1B       42.9890   44.2010   62.9440 O.2   410  ADP410     -0.2221
      3  O2B       41.6420   43.0910   64.9250 O.3   410  ADP410     -0.1143
      4  O3B       42.5820   45.4650   65.0390 O.3   410  ADP410     -0.1143
      5  PA        39.2100   45.4070   63.8910 P.3   410  ADP410      0.2231
      6  O1A       38.7430   44.6050   65.0310 O.3   410  ADP410     -0.4370
      7  O2A       38.2600   45.3180   62.7670 O.2   410  ADP410     -0.5169
      8  O3A       40.6500   44.8780   63.4140 O.3   410  ADP410     -0.2261
      9  O5'       39.4660   46.9580   64.2210 O.3   410  ADP410     -0.3111
     10  C5'       40.3410   47.4320   65.2550 C.3   410  ADP410      0.1813
     11  C4'       39.6370   48.6390   65.8610 C.3   410  ADP410      0.1821
     12  O4'       39.5830   48.4380   67.2870 O.3   410  ADP410     -0.3135
     13  C3'       40.3590   49.9750   65.6280 C.3   410  ADP410      0.2184
     14  O3'       39.4720   51.0880   65.3670 O.3   410  ADP410     -0.2174
     15  C2'       41.0960   50.2200   66.9220 C.3   410  ADP410      0.2570
     16  O2'       41.3770   51.5970   67.1840 O.3   410  ADP410     -0.2130
     17  C1'       40.1820   49.5530   67.9390 C.3   410  ADP410      0.3186
     18  N9        40.9340   49.1350   69.1670 N.pl3 410  ADP410     -0.1439
     19  C8        41.8810   48.1760   69.2500 C.3   410  ADP410      0.3377
     20  N7        42.3270   48.1130   70.5090 N.2   410  ADP410     -0.2095
     21  C5        41.6810   49.0120   71.2200 C.2   410  ADP410      0.2526
     22  C6        41.6910   49.4400   72.5540 C.2   410  ADP410      0.4393
     23  N6        42.5290   48.8780   73.4430 N.pl3 410  ADP410      0.2180
     24  N1        40.8420   50.4450   72.9570 N.2   410  ADP410      0.0021
     25  C2        39.9770   51.0510   72.1030 C.3   410  ADP410      0.5254
     26  N3        39.9640   50.6500   70.8220 N.2   410  ADP410     -0.0055
     27  C4        40.7770   49.6630   70.3490 C.2   410  ADP410      0.3518
@<TRIPOS>BOND
     1     7     5    2
     2     2     1    2
     3     8     5    1
     4     8     1    1
     5     5     9    1
     6     5     6    1
     7     1     3    1
     8     1     4    1
     9     9    10    1
    10    10    11    1
    11    14    13    1
    12    13    11    1
    13    13    15    1
    14    11    12    1
    15    15    16    1
    16    15    17    1
    17    12    17    1
    18    17    18    1
    19    18    19    1
    20    18    27    1
    21    19    20    1
    22    27    26    2
    23    27    21    1
    24    20    21    2
    25    26    25    1
    26    21    22    1
    27    25    24    1
    28    22    24    2
    29    22    23    1
