@<TRIPOS>MOLECULE
1g9a_BAB_A_1.pdb
 25 28 0 0 0
SMALL
GASTEIGER

@<TRIPOS>ATOM
      1  C1        25.0410   -2.7530   29.3910 C.ar  1292  BAB1292     0.1002
      2  C2        25.6400   -3.8640   28.7560 C.ar  1292  BAB1292     0.0108
      3  C3        26.5940   -3.6620   27.7320 C.ar  1292  BAB1292     0.0359
      4  C4        26.9040   -2.3560   27.3920 C.ar  1292  BAB1292     0.1738
      5  C5        26.3290   -1.2940   28.0100 C.ar  1292  BAB1292     0.1740
      6  C6        25.4000   -1.4490   29.0090 C.ar  1292  BAB1292     0.0437
      7  C7        24.0000   -2.9640   30.4710 C.2   1292  BAB1292     0.4767
      8  C8        27.8070   -0.4010   26.3910 C.1   1292  BAB1292     0.1310
      9  C9        28.5880    0.5380   25.4950 C.3   1292  BAB1292     0.2484
     10  N1        24.0280   -2.1620   31.7450 N.pl3 1292  BAB1292     0.2047
     11  N2        22.8860   -3.9480   30.2370 N.pl3 1292  BAB1292     0.2047
     12  N3        27.8510   -1.8870   26.3510 N.2   1292  BAB1292    -0.3399
     13  N4        26.8440   -0.0180   27.4460 N.2   1292  BAB1292    -0.3399
     14  C1'       28.6900   -1.6570   19.7250 C.ar  1292  BAB1292     0.1002
     15  C2'       27.3120   -1.9590   19.9400 C.ar  1292  BAB1292     0.0108
     16  C3'       26.7250   -1.6280   21.1780 C.ar  1292  BAB1292     0.0359
     17  C4'       27.5350   -1.0170   22.1250 C.ar  1292  BAB1292     0.1738
     18  C5'       28.8420   -0.7410   21.8900 C.ar  1292  BAB1292     0.1740
     19  C6'       29.4440   -1.0360   20.7150 C.ar  1292  BAB1292     0.0437
     20  C7'       29.3680   -1.9990   18.4710 C.2   1292  BAB1292     0.4767
     21  C8'       28.4210   -0.0180   24.0840 C.1   1292  BAB1292     0.1310
     22  N1'       30.2510   -1.0180   17.8170 N.pl3 1292  BAB1292     0.2047
     23  N2'       29.2900   -3.3730   17.9260 N.pl3 1292  BAB1292     0.2047
     24  N3'       27.1790   -0.5960   23.4960 N.2   1292  BAB1292    -0.3399
     25  N4'       29.4630   -0.1050   23.0610 N.2   1292  BAB1292    -0.3399
@<TRIPOS>BOND
     1    22    20    2
     2    23    20    1
     3    20    14    1
     4    14    15   ar
     5    14    19   ar
     6    15    16   ar
     7    19    18   ar
     8    16    17   ar
     9    18    17   ar
    10    18    25    2
    11    17    24    2
    12    25    21    2
    13    24    21    2
    14    21     9    1
    15     9     8    1
    16    12     8    2
    17    12     4    2
    18     8    13    2
    19     4     3   ar
    20     4     5   ar
    21    13     5    2
    22     3     2   ar
    23     5     6   ar
    24     2     1   ar
    25     6     1   ar
    26     1     7    1
    27    11     7    2
    28     7    10    1
