@<TRIPOS>MOLECULE
1g9b_BAB_A_1.pdb
 25 28 0 0 0
SMALL
GASTEIGER

@<TRIPOS>ATOM
      1  C1        12.8410    1.3410   29.5740 C.ar  1292  BAB1292     0.1002
      2  C2        12.2500    2.4840   28.9790 C.ar  1292  BAB1292     0.0108
      3  C3        11.3140    2.3410   27.9310 C.ar  1292  BAB1292     0.0359
      4  C4        11.0030    1.0590   27.5180 C.ar  1292  BAB1292     0.1738
      5  C5        11.5710   -0.0410   28.0940 C.ar  1292  BAB1292     0.1740
      6  C6        12.4880    0.0580   29.1200 C.ar  1292  BAB1292     0.0437
      7  C7        13.8560    1.4900   30.6950 C.2   1292  BAB1292     0.4767
      8  C8        10.1100   -0.8360   26.4150 C.1   1292  BAB1292     0.1310
      9  C9         9.3320   -1.7390   25.4770 C.3   1292  BAB1292     0.2484
     10  N1        13.6800    0.7300   31.9790 N.pl3 1292  BAB1292     0.2047
     11  N2        15.0560    2.3680   30.5070 N.pl3 1292  BAB1292     0.2047
     12  N3        10.0650    0.6450   26.4440 N.2   1292  BAB1292    -0.3399
     13  N4        11.0590   -1.2770   27.4570 N.2   1292  BAB1292    -0.3399
     14  C1'        9.1900    0.3380   19.6430 C.ar  1292  BAB1292     0.1002
     15  C2'       10.5760    0.5930   19.8470 C.ar  1292  BAB1292     0.0108
     16  C3'       11.1740    0.2750   21.0890 C.ar  1292  BAB1292     0.0359
     17  C4'       10.3660   -0.2770   22.0660 C.ar  1292  BAB1292     0.1738
     18  C5'        9.0420   -0.5170   21.8530 C.ar  1292  BAB1292     0.1740
     19  C6'        8.4280   -0.2260   20.6680 C.ar  1292  BAB1292     0.0437
     20  C7'        8.5060    0.6840   18.3450 C.2   1292  BAB1292     0.4767
     21  C8'        9.4920   -1.2060   24.0610 C.1   1292  BAB1292     0.1310
     22  N1'        7.5130   -0.2280   17.7270 N.pl3 1292  BAB1292     0.2047
     23  N2'        8.7150    2.0060   17.7170 N.pl3 1292  BAB1292     0.2047
     24  N3'       10.7350   -0.6860   23.4410 N.2   1292  BAB1292    -0.3399
     25  N4'        8.4230   -1.1020   23.0540 N.2   1292  BAB1292    -0.3399
@<TRIPOS>BOND
     1    23    20    2
     2    22    20    1
     3    20    14    1
     4    14    15   ar
     5    14    19   ar
     6    15    16   ar
     7    19    18   ar
     8    16    17   ar
     9    18    17   ar
    10    18    25    2
    11    17    24    2
    12    25    21    2
    13    24    21    2
    14    21     9    1
    15     9     8    1
    16     8    12    2
    17     8    13    2
    18    12     4    2
    19    13     5    2
    20     4     3   ar
    21     4     5   ar
    22     3     2   ar
    23     5     6   ar
    24     2     1   ar
    25     6     1   ar
    26     1     7    1
    27    11     7    2
    28     7    10    1
