@<TRIPOS>MOLECULE
1g9c_BAB_A_1.pdb
 25 28 0 0 0
SMALL
GASTEIGER

@<TRIPOS>ATOM
      1  C1        12.0200    1.4170   29.7820 C.ar  1292  BAB1292     0.1002
      2  C2        11.3870    2.5150   29.1390 C.ar  1292  BAB1292     0.0108
      3  C3        10.5820    2.2990   28.0030 C.ar  1292  BAB1292     0.0359
      4  C4        10.4430    0.9980   27.5570 C.ar  1292  BAB1292     0.1738
      5  C5        11.0560   -0.0560   28.1860 C.ar  1292  BAB1292     0.1740
      6  C6        11.8460    0.1140   29.2930 C.ar  1292  BAB1292     0.0437
      7  C7        12.8900    1.6380   30.9990 C.2   1292  BAB1292     0.4767
      8  C8         9.8540   -0.9640   26.3700 C.1   1292  BAB1292     0.1310
      9  C9         9.2670   -1.9180   25.3660 C.3   1292  BAB1292     0.2484
     10  N1        12.2610    1.8600   32.3390 N.pl3 1292  BAB1292     0.2047
     11  N2        14.3860    1.6250   30.8600 N.pl3 1292  BAB1292     0.2047
     12  N3         9.6610    0.5070   26.3940 N.2   1292  BAB1292    -0.3399
     13  N4        10.7320   -1.3300   27.4960 N.2   1292  BAB1292    -0.3399
     14  C1'        9.4270    0.2550   19.5910 C.ar  1292  BAB1292     0.1002
     15  C2'       10.7520    0.6470   19.9300 C.ar  1292  BAB1292     0.0108
     16  C3'       11.2540    0.3690   21.2070 C.ar  1292  BAB1292     0.0359
     17  C4'       10.4270   -0.2820   22.0920 C.ar  1292  BAB1292     0.1738
     18  C5'        9.1580   -0.6550   21.7560 C.ar  1292  BAB1292     0.1740
     19  C6'        8.6230   -0.4050   20.5190 C.ar  1292  BAB1292     0.0437
     20  C7'        8.8840    0.5520   18.2400 C.2   1292  BAB1292     0.4767
     21  C8'        9.4890   -1.3390   23.9830 C.1   1292  BAB1292     0.1310
     22  N1'        8.4020   -0.5450   17.3800 N.pl3 1292  BAB1292     0.2047
     23  N2'        8.8580    1.9460   17.7280 N.pl3 1292  BAB1292     0.2047
     24  N3'       10.7200   -0.6800   23.4880 N.2   1292  BAB1292    -0.3399
     25  N4'        8.5050   -1.3250   22.8870 N.2   1292  BAB1292    -0.3399
@<TRIPOS>BOND
     1    22    20    2
     2    23    20    1
     3    20    14    1
     4    14    15   ar
     5    14    19   ar
     6    15    16   ar
     7    19    18   ar
     8    16    17   ar
     9    18    17   ar
    10    18    25    2
    11    17    24    2
    12    25    21    2
    13    24    21    2
    14    21     9    1
    15     9     8    1
    16     8    12    2
    17     8    13    2
    18    12     4    2
    19    13     5    2
    20     4     3   ar
    21     4     5   ar
    22     3     2   ar
    23     5     6   ar
    24     2     1   ar
    25     6     1   ar
    26     1     7    1
    27    11     7    2
    28     7    10    1
