@<TRIPOS>MOLECULE
1g9d_BAB_A_1.pdb
 25 28 0 0 0
SMALL
GASTEIGER

@<TRIPOS>ATOM
      1  C1        12.7970    1.5250   29.4220 C.ar  1292  BAB1292     0.1002
      2  C2        11.8870    2.5410   29.0520 C.ar  1292  BAB1292     0.0108
      3  C3        10.8570    2.2640   28.1380 C.ar  1292  BAB1292     0.0359
      4  C4        10.7790    0.9870   27.6320 C.ar  1292  BAB1292     0.1738
      5  C5        11.6580    0.0090   27.9890 C.ar  1292  BAB1292     0.1740
      6  C6        12.6750    0.2370   28.8790 C.ar  1292  BAB1292     0.0437
      7  C7        13.9050    1.8240   30.3980 C.2   1292  BAB1292     0.4767
      8  C8        10.1600   -0.9540   26.4540 C.1   1292  BAB1292     0.1310
      9  C9         9.4500   -1.9130   25.5320 C.3   1292  BAB1292     0.2484
     10  N1        13.6980    1.6090   31.8620 N.pl3 1292  BAB1292     0.2047
     11  N2        15.2140    2.3330   29.8950 N.pl3 1292  BAB1292     0.2047
     12  N3         9.8020    0.4580   26.6640 N.2   1292  BAB1292    -0.3399
     13  N4        11.3340   -1.2520   27.2890 N.2   1292  BAB1292    -0.3399
     14  C1'        9.3870    0.3060   19.7780 C.ar  1292  BAB1292     0.1002
     15  C2'       10.7920    0.3040   19.9170 C.ar  1292  BAB1292     0.0108
     16  C3'       11.3810   -0.1450   21.1150 C.ar  1292  BAB1292     0.0359
     17  C4'       10.5410   -0.5680   22.1170 C.ar  1292  BAB1292     0.1738
     18  C5'        9.1910   -0.5640   21.9720 C.ar  1292  BAB1292     0.1740
     19  C6'        8.5810   -0.1360   20.8260 C.ar  1292  BAB1292     0.0437
     20  C7'        8.7440    0.7940   18.5110 C.2   1292  BAB1292     0.4767
     21  C8'        9.6230   -1.3810   24.1270 C.1   1292  BAB1292     0.1310
     22  N1'        7.9710   -0.1130   17.6350 N.pl3 1292  BAB1292     0.2047
     23  N2'        8.8370    2.2230   18.1440 N.pl3 1292  BAB1292     0.2047
     24  N3'       10.9020   -1.0750   23.4540 N.2   1292  BAB1292    -0.3399
     25  N4'        8.5440   -1.0610   23.1900 N.2   1292  BAB1292    -0.3399
@<TRIPOS>BOND
     1    22    20    2
     2    23    20    1
     3    20    14    1
     4    14    15   ar
     5    14    19   ar
     6    15    16   ar
     7    19    18   ar
     8    16    17   ar
     9    18    17   ar
    10    18    25    2
    11    17    24    2
    12    25    21    2
    13    24    21    2
    14    21     9    1
    15     9     8    1
    16     8    12    2
    17     8    13    2
    18    12     4    2
    19    13     5    2
    20     4     5   ar
    21     4     3   ar
    22     5     6   ar
    23     3     2   ar
    24     6     1   ar
    25     2     1   ar
    26     1     7    1
    27    11     7    2
    28     7    10    1
