@<TRIPOS>MOLECULE
1g9f_GAL_A_1.pdb
 11 11 0 0 0
SMALL
GASTEIGER

@<TRIPOS>ATOM
      1  C1       101.3420   28.1430   17.4090 C.3   260  GAL260      0.1777
      2  C2       101.6790   26.7710   17.9920 C.3   260  GAL260      0.2141
      3  C3       102.0430   26.9450   19.4670 C.3   260  GAL260      0.2173
      4  C4       103.1950   27.9490   19.6140 C.3   260  GAL260      0.2142
      5  C5       102.8580   29.2640   18.8810 C.3   260  GAL260      0.1810
      6  C6       104.0180   30.2370   18.8500 C.3   260  GAL260      0.2141
      7  O2       100.5590   25.9060   17.8640 O.3   260  GAL260     -0.2176
      8  O3       102.4110   25.6940   20.0270 O.3   260  GAL260     -0.2175
      9  O4       104.3940   27.3960   19.0920 O.3   260  GAL260     -0.2176
     10  O5       102.4860   29.0040   17.5070 O.3   260  GAL260     -0.3481
     11  O6       103.5600   31.5660   18.6500 O.3   260  GAL260     -0.2176
@<TRIPOS>BOND
     1     1    10    1
     2     1     2    1
     3    10     5    1
     4     7     2    1
     5     2     3    1
     6    11     6    1
     7     6     5    1
     8     5     4    1
     9     9     4    1
    10     3     4    1
    11     3     8    1
