@<TRIPOS>MOLECULE
1g9h_DAF_A_1.pdb
 21 22 0 0 0
SMALL
GASTEIGER

@<TRIPOS>ATOM
      1  C1        10.9100   31.4060   -0.2050 C.3   600  DAF600      0.1775
      2  C2        12.3970   31.1120   -0.4150 C.3   600  DAF600      0.2129
      3  C3        12.9950   30.3820    0.7940 C.3   600  DAF600      0.2028
      4  C4        12.6500   31.0980    2.0960 C.3   600  DAF600      0.1331
      5  C5        11.1400   31.2970    2.1720 C.3   600  DAF600      0.1339
      6  C6        10.7470   32.0100    3.4650 C.3   600  DAF600      0.0336
      7  O2        12.5530   30.3020   -1.5780 O.3   600  DAF600     -0.2177
      8  O3        14.4010   30.3370    0.6530 O.3   600  DAF600     -0.2187
      9  O5        10.7100   32.0640    1.0340 O.3   600  DAF600     -0.3519
     10  N4        13.0800   30.4400    3.3250 N.3   600  DAF600     -0.2087
     11  C1H       14.4220   30.8200    3.7480 C.3   600  DAF600      0.1273
     12  C2H       14.5560   30.8310    5.2730 C.3   600  DAF600      0.2049
     13  C3H       13.6990   31.9920    5.8350 C.3   600  DAF600      0.2179
     14  C4H       14.4880   33.2980    5.6510 C.3   600  DAF600      0.2053
     15  C5H       14.9850   33.3940    4.2120 C.2   600  DAF600      0.0180
     16  C6H       14.9390   32.2130    3.2630 C.2   600  DAF600     -0.0100
     17  C7H       15.6030   34.6820    3.6870 C.3   600  DAF600      0.2066
     18  O2H       14.1780   29.5710    5.8180 O.3   600  DAF600     -0.2184
     19  O3H       13.4090   31.8070    7.2090 O.3   600  DAF600     -0.2172
     20  O4H       13.6780   34.4110    5.9880 O.3   600  DAF600     -0.2157
     21  O7H       16.8990   34.5790    4.2660 O.3   600  DAF600     -0.2155
@<TRIPOS>BOND
     1     7     2    1
     2     2     1    1
     3     2     3    1
     4     1     9    1
     5     8     3    1
     6     3     4    1
     7     9     5    1
     8     4     5    1
     9     4    10    1
    10     5     6    1
    11    16    11    1
    12    16    15    2
    13    10    11    1
    14    17    15    1
    15    17    21    1
    16    11    12    1
    17    15    14    1
    18    12    18    1
    19    12    13    1
    20    14    13    1
    21    14    20    1
    22    13    19    1
