@<TRIPOS>MOLECULE
1g9h_BGC_A_1.pdb
 12 12 0 0 0
SMALL
GASTEIGER

@<TRIPOS>ATOM
      1  C2         8.1950   28.6840   -3.0220 C.3   601  BGC601      0.2434
      2  C3         9.3700   28.8670   -2.0780 C.3   601  BGC601      0.2199
      3  C4         9.1750   30.1490   -1.2720 C.3   601  BGC601      0.2144
      4  C5         7.8110   30.1660   -0.5820 C.3   601  BGC601      0.1836
      5  C6         7.4870   31.5120    0.0300 C.3   601  BGC601      0.2142
      6  C1         6.9410   28.6320   -2.1910 C.3   601  BGC601      0.3024
      7  O1         5.8580   28.4300   -3.0210 O.3   601  BGC601     -0.1869
      8  O2         8.3250   27.4790   -3.7510 O.3   601  BGC601     -0.2148
      9  O3        10.5800   28.9320   -2.8100 O.3   601  BGC601     -0.2174
     10  O4        10.1920   30.2100   -0.2710 O.3   601  BGC601     -0.2176
     11  O5         6.7590   29.8810   -1.5220 O.3   601  BGC601     -0.3236
     12  O6         6.2830   31.4490    0.7790 O.3   601  BGC601     -0.2176
@<TRIPOS>BOND
     1     8     1    1
     2     1     6    1
     3     1     2    1
     4     7     6    1
     5     9     2    1
     6     6    11    1
     7     2     3    1
     8    11     4    1
     9     3     4    1
    10     3    10    1
    11     4     5    1
    12     5    12    1
