@<TRIPOS>MOLECULE
1g9j_BGC_A_1.pdb
 11 11 0 0 0
SMALL
GASTEIGER

@<TRIPOS>ATOM
      1  C2        60.2910   75.3800   58.4510 C.3   632  BGC632      0.2141
      2  C3        59.3880   75.1780   59.6600 C.3   632  BGC632      0.2173
      3  C4        60.0260   75.7650   60.9240 C.3   632  BGC632      0.2142
      4  C5        60.5190   77.1980   60.6890 C.3   632  BGC632      0.1810
      5  C6        61.3160   77.7410   61.8590 C.3   632  BGC632      0.2141
      6  C1        60.7250   76.8350   58.3440 C.3   632  BGC632      0.1777
      7  O2        59.6010   75.0080   57.2660 O.3   632  BGC632     -0.2176
      8  O3        59.1660   73.7900   59.8410 O.3   632  BGC632     -0.2175
      9  O4        59.0500   75.7830   61.9740 O.3   632  BGC632     -0.2176
     10  O5        61.3820   77.2470   59.5440 O.3   632  BGC632     -0.3481
     11  O6        60.5400   78.6500   62.6240 O.3   632  BGC632     -0.2176
@<TRIPOS>BOND
     1     7     1    1
     2     6     1    1
     3     6    10    1
     4     1     2    1
     5    10     4    1
     6     2     8    1
     7     2     3    1
     8     4     3    1
     9     4     5    1
    10     3     9    1
    11     5    11    1
