@<TRIPOS>MOLECULE
1g9j_SGC_A_1.pdb
 11 11 0 0 0
SMALL
GASTEIGER

@<TRIPOS>ATOM
      1  C1        59.2310   74.8730   62.9880 C.3   631  SGC631      0.1776
      2  C2        58.4360   75.3220   64.2030 C.3   631  SGC631      0.2124
      3  O2        58.9260   76.5770   64.6530 O.3   631  SGC631     -0.2177
      4  C3        58.5670   74.2870   65.3130 C.3   631  SGC631      0.1977
      5  O3        57.7140   74.6470   66.3900 O.3   631  SGC631     -0.2193
      6  C4        58.2040   72.8780   64.8120 C.3   631  SGC631      0.1206
      7  C5        58.9470   72.5630   63.5000 C.3   631  SGC631      0.1614
      8  O5        58.7460   73.6110   62.5320 O.3   631  SGC631     -0.3498
      9  C6        58.4640   71.2730   62.8610 C.3   631  SGC631      0.2124
     10  O6        58.8970   71.1700   61.5120 O.3   631  SGC631     -0.2177
     11  S4        58.5900   71.6060   66.0680 S.3   631  SGC631     -0.0777
@<TRIPOS>BOND
     1    10     9    1
     2     8     1    1
     3     8     7    1
     4     9     7    1
     5     1     2    1
     6     7     6    1
     7     2     3    1
     8     2     4    1
     9     6     4    1
    10     6    11    1
    11     4     5    1
