@<TRIPOS>MOLECULE
1g9q_APR_B_1.pdb
 36 39 0 0 0
SMALL
GASTEIGER

@<TRIPOS>ATOM
      1  N1        57.3040   21.6770    3.1260 N.2   301  APR301      0.0021
      2  C2        58.3330   20.7800    2.7800 C.3   301  APR301      0.5254
      3  N3        58.8150   19.7830    3.5230 N.2   301  APR301     -0.0055
      4  C4        58.1610   19.6550    4.7740 C.2   301  APR301      0.3518
      5  C5        57.1000   20.4410    5.2670 C.2   301  APR301      0.2526
      6  C6        56.6840   21.5620    4.3960 C.2   301  APR301      0.4393
      7  N6        55.8370   22.5310    4.7670 N.pl3 301  APR301      0.2180
      8  N7        56.7140   19.9870    6.5210 N.2   301  APR301     -0.2095
      9  C8        57.5920   19.0160    6.8140 C.3   301  APR301      0.3377
     10  N9        58.5230   18.8310    5.8250 N.pl3 301  APR301     -0.1439
     11  C1'       59.9250   18.0130    5.7990 C.3   301  APR301      0.3186
     12  C2'       60.8730   18.5770    6.8830 C.3   301  APR301      0.2570
     13  O2'       62.1590   18.7400    6.3230 O.3   301  APR301     -0.2130
     14  C3'       60.9310   17.4880    8.0190 C.3   301  APR301      0.2184
     15  O3'       62.2740   17.2370    8.4160 O.3   301  APR301     -0.2174
     16  O4'       59.7140   16.6950    6.1610 O.3   301  APR301     -0.3135
     17  C4'       60.3200   16.2700    7.4700 C.3   301  APR301      0.1821
     18  C5'       59.2490   15.8470    8.3930 C.3   301  APR301      0.1813
     19  O5'       58.0710   15.5480    7.6360 O.3   301  APR301     -0.3112
     20  PA        56.7780   15.0380    8.3300 P.3   301  APR301      0.2189
     21  O1A       56.7090   13.6690    8.1780 O.3   301  APR301     -0.4371
     22  O2A       55.7110   15.6570    7.7050 O.2   301  APR301     -0.5170
     23  O3A       56.7270   15.4430    9.9830 O.3   301  APR301     -0.2703
     24  PB        56.5850   16.8540   10.7520 P.3   301  APR301      0.2189
     25  O1B       57.1850   17.9400    9.9290 O.2   301  APR301     -0.5170
     26  O2B       57.2570   16.7950   12.0710 O.3   301  APR301     -0.4371
     27  O5D       54.9380   17.1950   10.9040 O.3   301  APR301     -0.3112
     28  C5D       54.3430   16.6280   12.1670 C.3   301  APR301      0.1813
     29  O4D       54.1070   19.1290   12.8190 O.3   301  APR301     -0.3237
     30  O1D       52.8620   20.4380   11.3860 O.3   301  APR301     -0.1869
     31  C1D       52.8340   19.7590   12.6100 C.3   301  APR301      0.3023
     32  O2D       50.5420   19.0750   13.1370 O.3   301  APR301     -0.2148
     33  C2D       51.7790   18.6290   12.5530 C.3   301  APR301      0.2433
     34  O3D       51.9510   17.5950   14.8160 O.3   301  APR301     -0.2175
     35  C3D       52.3640   17.4650   13.3670 C.3   301  APR301      0.2168
     36  C4D       53.8420   17.6230   13.2610 C.3   301  APR301      0.1807
@<TRIPOS>BOND
     1     2     1    1
     2     2     3    1
     3     1     6    2
     4     3     4    2
     5     6     7    1
     6     6     5    1
     7     4     5    1
     8     4    10    1
     9     5     8    2
    10    11    10    1
    11    11    16    1
    12    11    12    1
    13    10     9    1
    14    16    17    1
    15    13    12    1
    16     8     9    1
    17    12    14    1
    18    17    14    1
    19    17    18    1
    20    19    20    1
    21    19    18    1
    22    22    20    2
    23    14    15    1
    24    21    20    1
    25    20    23    1
    26    25    24    2
    27    23    24    1
    28    24    27    1
    29    24    26    1
    30    27    28    1
    31    30    31    1
    32    28    36    1
    33    33    31    1
    34    33    32    1
    35    33    35    1
    36    31    29    1
    37    29    36    1
    38    36    35    1
    39    35    34    1
