@<TRIPOS>MOLECULE
1g9r_UPF_A_1.pdb
 36 38 0 0 0
SMALL
GASTEIGER

@<TRIPOS>ATOM
      1  N1        27.1630   44.4560   57.5030 N.am  401  UPF401     -0.1766
      2  C2        27.5340   43.7960   56.3230 C.1   401  UPF401      0.2845
      3  N3        26.6600   44.0740   55.2470 N.2   401  UPF401     -0.2452
      4  C4        25.5010   44.9260   55.2740 C.1   401  UPF401      0.2182
      5  C5        25.2030   45.5630   56.5200 C.2   401  UPF401      0.1242
      6  C6        25.9940   45.3320   57.5600 C.2   401  UPF401      0.0929
      7  O2        28.5080   43.0600   56.2490 O.2   401  UPF401     -0.1918
      8  O4        24.8430   45.0630   54.2610 O.2   401  UPF401     -0.2085
      9  C1D       27.8490   44.3980   58.8810 C.3   401  UPF401      0.2401
     10  C2D       29.1310   45.2080   58.7930 C.3   401  UPF401      0.2319
     11  O2'       30.2360   44.4440   59.2660 O.3   401  UPF401     -0.2157
     12  C3D       28.8440   46.4400   59.6380 C.3   401  UPF401      0.2158
     13  C4D       28.0680   45.8110   60.7880 C.3   401  UPF401      0.1799
     14  O4D       27.2480   44.7610   60.1030 O.3   401  UPF401     -0.3320
     15  O3D       29.9230   47.2210   60.1170 O.3   401  UPF401     -0.2175
     16  C5D       26.7540   46.2280   61.3700 C.3   401  UPF401      0.1813
     17  O5D       26.1960   47.5730   61.0630 O.3   401  UPF401     -0.3112
     18  PA        26.6690   49.0830   60.7750 P.3   401  UPF401      0.2189
     19  O1A       28.1310   49.3020   60.7700 O.3   401  UPF401     -0.4371
     20  O2A       25.9930   49.6170   59.5510 O.2   401  UPF401     -0.5170
     21  O3A       25.9380   49.2600   62.1840 O.3   401  UPF401     -0.2703
     22  PB        25.6800   50.4760   63.1700 P.3   401  UPF401      0.2208
     23  O1B       27.0200   51.0960   63.2630 O.3   401  UPF401     -0.4371
     24  O2B       24.7090   51.3580   62.5300 O.2   401  UPF401     -0.5170
     25  O3B       25.2160   49.9670   64.5840 O.3   401  UPF401     -0.2856
     26  C1'       25.5920   49.8060   66.1370 C.3   401  UPF401      0.2764
     27  C2'       27.0680   49.2640   66.1080 C.3   401  UPF401      0.2498
     28  C3'       27.3880   48.0340   65.1120 C.3   401  UPF401      0.2220
     29  C4'       26.3550   46.8930   65.3890 C.3   401  UPF401      0.2146
     30  C5'       24.9230   47.5850   65.3610 C.3   401  UPF401      0.1835
     31  C6'       23.9020   46.5550   65.8390 C.3   401  UPF401      0.2142
     32  F2'       27.9950   50.2870   65.8600 F     401  UPF401     -0.2290
     33  O3'       28.6640   47.5300   65.3880 O.3   401  UPF401     -0.2172
     34  O4'       26.6420   46.3020   66.6940 O.3   401  UPF401     -0.2176
     35  O5'       24.7110   48.6960   66.3740 O.3   401  UPF401     -0.3253
     36  O6'       23.6600   45.3090   65.2480 O.3   401  UPF401     -0.2176
@<TRIPOS>BOND
     1     8     4    2
     2     3     4    2
     3     3     2    2
     4     4     5    1
     5     7     2    2
     6     2     1   am
     7     5     6    2
     8     1     6    1
     9     1     9    1
    10    10     9    1
    11    10    11    1
    12    10    12    1
    13     9    14    1
    14    20    18    2
    15    12    15    1
    16    12    13    1
    17    14    13    1
    18    19    18    1
    19    18    17    1
    20    18    21    1
    21    13    16    1
    22    17    16    1
    23    21    22    1
    24    24    22    2
    25    22    23    1
    26    22    25    1
    27    25    26    1
    28    28    33    1
    29    28    29    1
    30    28    27    1
    31    36    31    1
    32    30    29    1
    33    30    31    1
    34    30    35    1
    35    29    34    1
    36    32    27    1
    37    27    26    1
    38    26    35    1
