@<TRIPOS>MOLECULE
1g9s_N_B_1.pdb
 13 13 0 0 0
SMALL
GASTEIGER

@<TRIPOS>ATOM
      1  OP3       10.7690   87.7270   67.5090 O.3   490  N490       -0.1145
      2  P         10.0200   86.9470   66.5130 P.3   490  N490        0.5327
      3  OP1        8.5680   87.2310   66.5950 O.3   490  N490       -0.1145
      4  OP2       10.5320   87.0480   65.1450 O.2   490  N490       -0.2224
      5  O5'       10.2340   85.4980   67.0840 O.3   490  N490       -0.2675
      6  C5'        9.2200   84.5640   67.4640 C.3   490  N490        0.1858
      7  C4'        9.7170   83.1870   67.1920 C.3   490  N490        0.1782
      8  O4'       10.9080   82.8780   67.9340 O.3   490  N490       -0.3482
      9  C3'        8.6730   82.1860   67.5730 C.3   490  N490        0.2140
     10  O3'        8.2160   81.5210   66.3830 O.3   490  N490       -0.2176
     11  C2'        9.3420   81.2410   68.5260 C.3   490  N490        0.2140
     12  O2'        9.3280   79.9060   68.0270 O.3   490  N490       -0.2176
     13  C1'       10.7800   81.7220   68.7640 C.3   490  N490        0.1777
@<TRIPOS>BOND
     1     4     2    2
     2    10     9    1
     3     2     3    1
     4     2     5    1
     5     2     1    1
     6     5     6    1
     7     7     6    1
     8     7     9    1
     9     7     8    1
    10     9    11    1
    11     8    13    1
    12    12    11    1
    13    11    13    1
