@<TRIPOS>MOLECULE
1g9s_IMP_A_1.pdb
 23 25 0 0 0
SMALL
GASTEIGER

@<TRIPOS>ATOM
      1  P        -12.5130   60.0120   68.3460 P.3   190  IMP190      0.5327
      2  O1P      -13.1720   59.2860   69.4480 O.3   190  IMP190     -0.1145
      3  O2P      -11.0570   59.9200   68.4150 O.3   190  IMP190     -0.1145
      4  O3P      -13.0830   59.6210   67.0510 O.2   190  IMP190     -0.2224
      5  O5'      -13.0160   61.5120   68.4380 O.3   190  IMP190     -0.2675
      6  C5'      -12.4970   62.5320   69.3080 C.3   190  IMP190      0.1860
      7  C4'      -12.8210   63.8950   68.7740 C.3   190  IMP190      0.1823
      8  O4'      -14.2440   64.1630   68.7120 O.3   190  IMP190     -0.3135
      9  C3'      -12.2660   64.9390   69.6840 C.3   190  IMP190      0.2184
     10  O3'      -10.9650   65.3270   69.2350 O.3   190  IMP190     -0.2174
     11  C2'      -13.2150   66.0740   69.5600 C.3   190  IMP190      0.2570
     12  O2'      -12.7610   67.0150   68.6010 O.3   190  IMP190     -0.2130
     13  C1'      -14.5840   65.4960   69.1700 C.3   190  IMP190      0.3186
     14  N9       -15.5280   65.4610   70.3990 N.pl3 190  IMP190     -0.1435
     15  C8       -15.7950   64.3630   71.2310 C.3   190  IMP190      0.3382
     16  N7       -16.6410   64.6000   72.2210 N.2   190  IMP190     -0.2054
     17  C5       -16.9870   65.9490   72.0820 C.2   190  IMP190      0.2446
     18  C6       -17.8820   66.7720   72.8830 C.1   190  IMP190      0.1792
     19  O6       -18.5230   66.4290   73.8780 O.2   190  IMP190     -0.2203
     20  N1       -17.9770   68.1040   72.4250 N.2   190  IMP190     -0.1458
     21  C2       -17.2920   68.6180   71.3020 C.3   190  IMP190      0.4017
     22  N3       -16.4430   67.8450   70.5360 N.2   190  IMP190     -0.0334
     23  C4       -16.3240   66.5120   70.9710 C.2   190  IMP190      0.3528
@<TRIPOS>BOND
     1     4     1    2
     2     1     3    1
     3     1     5    1
     4     1     2    1
     5     5     6    1
     6    12    11    1
     7     8     7    1
     8     8    13    1
     9     7     6    1
    10     7     9    1
    11    13    11    1
    12    13    14    1
    13    10     9    1
    14    11     9    1
    15    14    23    1
    16    14    15    1
    17    22    23    2
    18    22    21    1
    19    23    17    1
    20    15    16    1
    21    21    20    1
    22    17    16    2
    23    17    18    1
    24    20    18    2
    25    18    19    2
