@<TRIPOS>MOLECULE
1g9t_N_B_1.pdb
 13 13 0 0 0
SMALL
GASTEIGER

@<TRIPOS>ATOM
      1  OP3       10.7610   86.9550   65.1970 O.2   490  N490       -0.2224
      2  P         10.1420   87.0860   66.5310 P.3   490  N490        0.5327
      3  OP1       10.8470   88.0900   67.3470 O.3   490  N490       -0.1145
      4  OP2        8.6920   87.2830   66.5120 O.3   490  N490       -0.1145
      5  O5'       10.5380   85.7200   67.1760 O.3   490  N490       -0.2675
      6  C5'        9.6660   84.7810   67.7910 C.3   490  N490        0.1858
      7  C4'       10.0020   83.4430   67.2420 C.3   490  N490        0.1782
      8  O4'       11.3640   83.0720   67.5080 O.3   490  N490       -0.3482
      9  C3'        9.1280   82.3970   67.8410 C.3   490  N490        0.2140
     10  O3'        8.6110   81.5620   66.7900 O.3   490  N490       -0.2176
     11  C2'       10.0230   81.6300   68.7620 C.3   490  N490        0.2140
     12  O2'        9.7980   80.2290   68.6470 O.3   490  N490       -0.2176
     13  C1'       11.4790   81.9770   68.4190 C.3   490  N490        0.1777
@<TRIPOS>BOND
     1     1     2    2
     2     4     2    1
     3     2     5    1
     4     2     3    1
     5    10     9    1
     6     5     6    1
     7     7     8    1
     8     7     6    1
     9     7     9    1
    10     8    13    1
    11     9    11    1
    12    13    11    1
    13    12    11    1
