@<TRIPOS>MOLECULE
1g9t_5GP_A_1.pdb
 24 26 0 0 0
SMALL
GASTEIGER

@<TRIPOS>ATOM
      1  P        -12.6100   60.0160   68.2760 P.3   190  5GP190      0.5327
      2  O1P      -13.4690   59.4640   69.3430 O.3   190  5GP190     -0.1145
      3  O2P      -11.1820   59.7300   68.4920 O.3   190  5GP190     -0.1145
      4  O3P      -13.1170   59.6270   66.9510 O.2   190  5GP190     -0.2224
      5  O5'      -12.9030   61.5710   68.2460 O.3   190  5GP190     -0.2675
      6  C5'      -12.3610   62.5600   69.1390 C.3   190  5GP190      0.1859
      7  C4'      -12.6760   63.9310   68.6280 C.3   190  5GP190      0.1801
      8  O4'      -14.0930   64.1910   68.5590 O.3   190  5GP190     -0.3326
      9  C3'      -12.1110   64.9600   69.5520 C.3   190  5GP190      0.2158
     10  O3'      -10.8520   65.4190   69.0440 O.3   190  5GP190     -0.2175
     11  C2'      -13.0980   66.0650   69.5290 C.3   190  5GP190      0.2310
     12  O2'      -12.6680   67.1090   68.6670 O.3   190  5GP190     -0.2158
     13  C1'      -14.4500   65.4860   69.0770 C.3   190  5GP190      0.2293
     14  N9       -15.4130   65.3710   70.2790 N.pl3 190  5GP190     -0.2354
     15  C8       -15.9280   64.1980   70.8480 C.3   190  5GP190      0.2246
     16  N7       -16.7380   64.3870   71.8790 N.2   190  5GP190     -0.2322
     17  C5       -16.7880   65.7810   72.0470 C.2   190  5GP190      0.2182
     18  C6       -17.5210   66.5890   73.0160 C.1   190  5GP190      0.2372
     19  O6       -18.2530   66.1900   73.9270 O.2   190  5GP190     -0.2069
     20  N1       -17.3170   67.9800   72.8550 N.2   190  5GP190     -0.2485
     21  C2       -16.5010   68.5570   71.8550 C.1   190  5GP190      0.2531
     22  N2       -16.4110   69.8930   71.8240 N.pl3 190  5GP190     -0.0226
     23  N3       -15.8060   67.8020   70.9340 N.2   190  5GP190     -0.3074
     24  C4       -15.9940   66.4150   71.0690 C.2   190  5GP190      0.2300
@<TRIPOS>BOND
     1     4     1    2
     2     5     1    1
     3     5     6    1
     4     1     3    1
     5     1     2    1
     6     8     7    1
     7     8    13    1
     8     7     6    1
     9     7     9    1
    10    12    11    1
    11    10     9    1
    12    13    11    1
    13    13    14    1
    14    11     9    1
    15    14    15    1
    16    14    24    1
    17    15    16    1
    18    23    24    2
    19    23    21    2
    20    24    17    1
    21    22    21    1
    22    21    20    2
    23    16    17    2
    24    17    18    1
    25    20    18    2
    26    18    19    2
