@<TRIPOS>MOLECULE
1g9v_HEM_A_1.pdb
 43 50 0 0 0
SMALL
GASTEIGER

@<TRIPOS>ATOM
      1 FE         18.4400   18.5070   23.8940 Fe    143  HEM143      0.0000
      2  CHA       18.8980   18.5920   20.4390 C.2   143  HEM143      0.0000
      3  CHB       21.1190   20.7400   24.1810 C.2   143  HEM143      0.0000
      4  CHC       18.7760   17.7590   27.2660 C.2   143  HEM143      0.0000
      5  CHD       16.7330   15.4620   23.5150 C.2   143  HEM143      0.0000
      6  NA        19.7310   19.5200   22.5530 N.2   143  HEM143      0.0000
      7  C1A       19.7090   19.4640   21.1550 C.2   143  HEM143      0.0000
      8  C2A       20.6970   20.4040   20.6050 C.2   143  HEM143      0.0000
      9  C3A       21.3170   21.0170   21.6580 C.2   143  HEM143      0.0000
     10  C4A       20.7210   20.4460   22.8690 C.2   143  HEM143      0.0000
     11  CMA       22.4200   22.0550   21.6760 C.3   143  HEM143      0.0000
     12  CAA       20.9740   20.5730   19.1190 C.3   143  HEM143      0.0000
     13  CBA       20.0960   21.6530   18.5180 C.3   143  HEM143      0.0000
     14  CGA       20.3280   21.8480   17.0120 C.2   143  HEM143      0.0000
     15  O1A       20.0360   22.9580   16.5230 O.co2 143  HEM143      0.0000
     16  O2A       20.7920   20.9060   16.3230 O.co2 143  HEM143      0.0000
     17  NB        19.7110   19.1510   25.4120 N.ar  143  HEM143      0.0000
     18  C1B       20.6650   20.1360   25.3660 C.ar  143  HEM143      0.0000
     19  C2B       21.1720   20.4390   26.7140 C.ar  143  HEM143      0.0000
     20  C3B       20.5490   19.6220   27.6030 C.ar  143  HEM143      0.0000
     21  C4B       19.6270   18.7870   26.7830 C.ar  143  HEM143      0.0000
     22  CMB       22.2250   21.4920   26.9980 C.3   143  HEM143      0.0000
     23  CAB       20.6670   19.6160   29.0300 C.3   143  HEM143      0.0000
     24  CBB       21.8840   19.8790   29.7860 C.3   143  HEM143      0.0000
     25  NC        17.7870   16.9720   25.1450 N.2   143  HEM143      0.0000
     26  C1C       17.9650   16.8860   26.5150 C.2   143  HEM143      0.0000
     27  C2C       17.3880   15.6600   27.0250 C.2   143  HEM143      0.0000
     28  C3C       16.8930   14.9680   25.9790 C.2   143  HEM143      0.0000
     29  C4C       17.1440   15.7970   24.8150 C.2   143  HEM143      0.0000
     30  CMC       17.2700   15.2480   28.4920 C.3   143  HEM143      0.0000
     31  CAC       16.1000   13.7950   25.9900 C.3   143  HEM143      0.0000
     32  CBC       16.2460   12.5620   26.7260 C.3   143  HEM143      0.0000
     33  ND        17.8030   17.3280   22.3190 N.ar  143  HEM143      0.0000
     34  C1D       17.0150   16.1820   22.3500 C.ar  143  HEM143      0.0000
     35  C2D       16.6940   15.7130   20.9950 C.ar  143  HEM143      0.0000
     36  C3D       17.3250   16.5730   20.1540 C.ar  143  HEM143      0.0000
     37  C4D       18.0480   17.5760   20.9530 C.ar  143  HEM143      0.0000
     38  CMD       15.9000   14.4750   20.5550 C.3   143  HEM143      0.0000
     39  CAD       17.2720   16.4750   18.6470 C.3   143  HEM143      0.0000
     40  CBD       18.5270   15.7610   18.1970 C.3   143  HEM143      0.0000
     41  CGD       18.6220   15.6410   16.6900 C.2   143  HEM143      0.0000
     42  O1D       19.5800   16.1730   16.1070 O.co2 143  HEM143      0.0000
     43  O2D       17.7330   15.0050   16.0930 O.co2 143  HEM143      0.0000
@<TRIPOS>BOND
     1    43    41   ar
     2    42    41   ar
     3    16    14   ar
     4    15    14   ar
     5    41    40    1
     6    14    13    1
     7    40    39    1
     8    13    12    1
     9    39    36    1
    10    12     8    1
    11    36    37   ar
    12    36    35   ar
    13     2    37    2
    14     2     7    1
    15    38    35    1
    16     8     7    1
    17     8     9    2
    18    37    33   ar
    19    35    34   ar
    20     7     6    2
    21     9    11    1
    22     9    10    1
    23    33    34   ar
    24    33     1    1
    25    34     5    2
    26     6    10    1
    27     6     1    1
    28    10     3    2
    29     5    29    1
    30     1    25    1
    31     1    17    1
    32     3    18    1
    33    29    25    2
    34    29    28    1
    35    25    26    1
    36    18    17   ar
    37    18    19   ar
    38    17    21   ar
    39    28    31    1
    40    28    27    2
    41    31    32    1
    42    26    27    1
    43    26     4    2
    44    19    22    1
    45    19    20   ar
    46    21     4    1
    47    21    20   ar
    48    27    30    1
    49    20    23    1
    50    23    24    1
