@<TRIPOS>MOLECULE
1g9v_RQ3_A_1.pdb
 25 26 0 0 0
SMALL
GASTEIGER

@<TRIPOS>ATOM
      1  C1        16.1500   22.3350   42.8110 C.2   801  RQ3801      0.4000
      2  O2        15.3160   21.8930   41.9800 O.co2 801  RQ3801     -0.2418
      3  O3        16.9980   23.2070   42.5060 O.co2 801  RQ3801     -0.2418
      4  C4        16.1410   21.7710   44.2030 C.3   801  RQ3801      0.2253
      5  C5        15.1160   22.5540   45.0230 C.3   801  RQ3801      0.0554
      6  C6        17.5310   21.9290   44.8610 C.3   801  RQ3801      0.0554
      7  O7        15.7170   20.3840   44.1390 O.3   801  RQ3801     -0.4718
      8  C8        16.5230   19.2430   43.6250 C.ar  801  RQ3801      0.1390
      9  C9        16.2460   17.9700   44.1170 C.ar  801  RQ3801      0.0366
     10  C10       16.9520   16.8770   43.6600 C.ar  801  RQ3801     -0.0007
     11  C11       17.9400   17.0290   42.7100 C.ar  801  RQ3801     -0.0128
     12  C12       17.5250   19.4050   42.6630 C.ar  801  RQ3801      0.0366
     13  C13       18.2350   18.2860   42.2070 C.ar  801  RQ3801     -0.0007
     14  C14       18.6450   15.8760   42.2400 C.3   801  RQ3801      0.1135
     15  C15       17.8550   15.0410   41.2140 C.2   801  RQ3801      0.2500
     16  O16       16.7450   15.4130   40.8360 O.2   801  RQ3801     -0.2726
     17  N17       18.2860   13.8040   41.0020 N.am  801  RQ3801     -0.1789
     18  C18       17.7310   12.8920   40.1270 C.ar  801  RQ3801      0.0727
     19  C19       16.3370   12.7960   39.9850 C.ar  801  RQ3801      0.0123
     20  C20       15.7870   11.7440   39.2710 C.ar  801  RQ3801     -0.0209
     21  C21       16.6210   10.7910   38.7010 C.ar  801  RQ3801     -0.0084
     22  C22       18.5490   11.9350   39.5470 C.ar  801  RQ3801      0.0123
     23  C23       18.0040   10.8950   38.8420 C.ar  801  RQ3801     -0.0209
     24  C24       14.3030   11.6400   39.1100 C.3   801  RQ3801      0.0311
     25  C25       18.9090    9.8760   38.2190 C.3   801  RQ3801      0.0311
@<TRIPOS>BOND
     1    25    23    1
     2    21    23   ar
     3    21    20   ar
     4    23    22   ar
     5    24    20    1
     6    20    19   ar
     7    22    18   ar
     8    19    18   ar
     9    18    17    1
    10    16    15    2
    11    17    15   am
    12    15    14    1
    13     2     1   ar
    14    13    12   ar
    15    13    11   ar
    16    14    11    1
    17     3     1   ar
    18    12     8   ar
    19    11    10   ar
    20     1     4    1
    21     8     9   ar
    22     8     7    1
    23    10     9   ar
    24     7     4    1
    25     4     6    1
    26     4     5    1
