@<TRIPOS>MOLECULE
1g9x_ADP_A_1.pdb
 27 29 0 0 0
SMALL
GASTEIGER

@<TRIPOS>ATOM
      1  PB        23.5650   41.9010    6.1200 P.3   300  ADP300      0.5373
      2  O1B       22.9420   43.0250    5.3540 O.2   300  ADP300     -0.2221
      3  O2B       22.8290   40.4680    5.8810 O.3   300  ADP300     -0.1143
      4  O3B       25.0120   41.7460    5.7600 O.3   300  ADP300     -0.1143
      5  PA        22.1610   42.0280    8.6890 P.3   300  ADP300      0.2231
      6  O1A       21.2890   40.9480    8.2220 O.2   300  ADP300     -0.5169
      7  O2A       21.4010   43.2730    8.8500 O.3   300  ADP300     -0.4370
      8  O3A       23.3570   42.2000    7.6530 O.3   300  ADP300     -0.2261
      9  O5'       22.9190   41.6530   10.0330 O.3   300  ADP300     -0.3111
     10  C5'       23.7360   40.4780   10.1020 C.3   300  ADP300      0.1813
     11  C4'       23.3230   39.6320   11.3080 C.3   300  ADP300      0.1821
     12  O4'       22.3530   40.3150   12.1720 O.3   300  ADP300     -0.3135
     13  C3'       22.6400   38.3330   10.9180 C.3   300  ADP300      0.2184
     14  O3'       22.9650   37.2890   11.8430 O.3   300  ADP300     -0.2174
     15  C2'       21.1830   38.6980   10.9790 C.3   300  ADP300      0.2570
     16  O2'       20.2680   37.5950   10.8520 O.3   300  ADP300     -0.2130
     17  C1'       21.2110   39.4310   12.2870 C.3   300  ADP300      0.3186
     18  N9        19.9340   40.1600   12.5160 N.pl3 300  ADP300     -0.1439
     19  C8        19.3890   41.0440   11.6880 C.3   300  ADP300      0.3377
     20  N7        18.2440   41.4860   12.2140 N.2   300  ADP300     -0.2095
     21  C5        18.0640   40.8930   13.3620 C.2   300  ADP300      0.2526
     22  C6        17.0960   40.9340   14.3450 C.2   300  ADP300      0.4393
     23  N6        16.0260   41.7410   14.2140 N.pl3 300  ADP300      0.2180
     24  N1        17.2300   40.1550   15.4530 N.2   300  ADP300      0.0021
     25  C2        18.2860   39.3400   15.6140 C.3   300  ADP300      0.5254
     26  N3        19.2220   39.2960   14.6730 N.2   300  ADP300     -0.0055
     27  C4        19.1560   40.0360   13.5580 C.2   300  ADP300      0.3518
@<TRIPOS>BOND
     1     2     1    2
     2     4     1    1
     3     3     1    1
     4     1     8    1
     5     8     5    1
     6     6     5    2
     7     5     7    1
     8     5     9    1
     9     9    10    1
    10    10    11    1
    11    16    15    1
    12    13    15    1
    13    13    11    1
    14    13    14    1
    15    15    17    1
    16    11    12    1
    17    19    20    1
    18    19    18    1
    19    12    17    1
    20    20    21    2
    21    17    18    1
    22    18    27    1
    23    21    27    1
    24    21    22    1
    25    27    26    2
    26    23    22    1
    27    22    24    2
    28    26    25    1
    29    24    25    1
