@<TRIPOS>MOLECULE
1ga0_DVR_A_1.pdb
 26 27 0 0 0
SMALL
GASTEIGER

@<TRIPOS>ATOM
      1  S1        22.3270   19.0640    8.7370 S.3   400  DVR400     -0.0141
      2  C2        22.6740   20.3880    7.5370 C.3   400  DVR400      0.1715
      3  C3        22.4460   21.7520    8.2000 C.2   400  DVR400      0.0016
      4  C4        21.1110   22.1790    8.6970 C.3   400  DVR400      0.1968
      5  N5        19.8230   21.4290    8.5500 N.3   400  DVR400     -0.1892
      6  C6        19.4760   20.9380    7.2250 C.3   400  DVR400      0.1405
      7  C7        18.9840   19.7270    7.0250 C.3   400  DVR400      0.0975
      8  C8        19.0170   18.6410    8.0520 C.2   400  DVR400      0.2098
      9  C9        18.4920   19.6160    5.6350 C.3   400  DVR400      0.0270
     10  C10       23.6100   22.6600    8.3860 C.2   400  DVR400     -0.0214
     11  C11       24.8300   22.3690    7.9930 C.3   400  DVR400      0.1140
     12  C12       25.9250   22.3540    8.9630 C.2   400  DVR400      0.2651
     13  N12       26.6110   21.2620    9.1260 N.am  400  DVR400     -0.0875
     14  O12       26.2170   23.3650    9.6300 O.2   400  DVR400     -0.2713
     15  O8        18.9330   18.9240    9.2510 O.2   400  DVR400     -0.2882
     16  C4A       20.9300   23.5150    9.4640 C.2   400  DVR400      0.3842
     17  O4A       21.7030   23.8440   10.3970 O.co2 400  DVR400     -0.2437
     18  O4B       19.9760   24.2810    9.1620 O.co2 400  DVR400     -0.2437
     19  O1A       23.3530   19.0540    9.7920 O.3   400  DVR400     -0.0779
     20  O1B       22.3630   17.7440    8.0690 O.3   400  DVR400     -0.0779
     21  CG        18.9280   20.7460    5.0440 C.3   400  DVR400      0.0638
     22  CD1       18.6720   21.2010    3.6600 C.3   400  DVR400      0.0417
     23  ND2       19.6950   21.5460    5.9590 N.3   400  DVR400     -0.2570
     24  CE1       18.7480   22.5630    3.4470 C.2   400  DVR400     -0.0279
     25  CE2       19.3020   22.9720    5.8420 C.3   400  DVR400      0.0995
     26  CZ        19.1540   23.5020    4.5840 C.2   400  DVR400     -0.0133
@<TRIPOS>BOND
     1    24    22    1
     2    24    26    2
     3    22    21    1
     4    26    25    1
     5    21     9    1
     6    21    23    1
     7     9     7    1
     8    25    23    1
     9    23     6    1
    10     7     6    1
    11     7     8    1
    12     6     5    1
    13     2     3    1
    14     2     1    1
    15    11    10    1
    16    11    12    1
    17     8    15    2
    18    20     1    1
    19     3    10    2
    20     3     4    1
    21     5     4    1
    22     4    16    1
    23     1    19    1
    24    12    13   am
    25    12    14    2
    26    18    16   ar
    27    16    17   ar
