@<TRIPOS>MOLECULE
1ga1_III_I_1.pdb
 20 20 0 0 0
SMALL
GASTEIGER

@<TRIPOS>ATOM
      1  N         22.4370   14.5470   17.1180 N.3     1  UNK1       -0.1210
      2  CA        23.6840   13.7810   17.1250 C.3     1  UNK1        0.1956
      3  C         23.5120   12.4380   17.8030 C.2     1  UNK1        0.2612
      4  O         22.7900   11.5520   17.3340 O.2     1  UNK1       -0.2717
      5  N         24.1780   12.2400   18.9450 N.am    2  PHE2       -0.1962
      6  CA        23.7890   11.1100   19.7830 C.3     2  PHE2        0.1771
      7  CB        24.9360   10.2210   20.2010 C.3     2  PHE2        0.0574
      8  CG        24.6630    8.8870   20.8210 C.ar    2  PHE2       -0.0199
      9  CD1       25.6340    8.2490   21.5860 C.ar    2  PHE2       -0.0038
     10  CD2       23.4550    8.2200   20.6540 C.ar    2  PHE2       -0.0038
     11  CE1       25.4180    7.0170   22.1780 C.ar    2  PHE2        0.0055
     12  CE2       23.2540    6.9750   21.2450 C.ar    2  PHE2        0.0055
     13  CZ        24.2190    6.3420   22.0230 C.ar    2  PHE2        0.0300
     14  I         24.2160    4.6480   22.9210 I       2  PHE2       -0.0425
     15  C         23.1870   11.6350   21.0840 C.2     2  PHE2        0.2620
     16  O         23.8750   12.3450   21.8230 O.2     2  PHE2       -0.2715
     17  N         21.9370   11.2710   21.3560 N.am    3  UNK3       -0.1954
     18  CA        21.3240   11.7420   22.5800 C.3     3  UNK3        0.1869
     19  C         21.1120   10.6570   23.6070 C.2     3  UNK3        0.2309
     20  O         20.7640   10.9750   24.7460 O.2     3  UNK3       -0.2863
@<TRIPOS>BOND
     1     1     2    1
     2     2     3    1
     3     4     3    2
     4     3     5   am
     5     5     6    1
     6     6     7    1
     7     6    15    1
     8     7     8    1
     9    10     8   ar
    10    10    12   ar
    11     8     9   ar
    12    15    17   am
    13    15    16    2
    14    12    13   ar
    15    17    18    1
    16     9    11   ar
    17    13    11   ar
    18    13    14    1
    19    18    19    1
    20    19    20    2
