@<TRIPOS>MOLECULE
1ga2_BGC_A_1.pdb
 11 11 0 0 0
SMALL
GASTEIGER

@<TRIPOS>ATOM
      1  C2         1.2050    5.3720   73.0210 C.3   775  BGC775      0.2141
      2  C3         2.6200    5.1400   73.5430 C.3   775  BGC775      0.2173
      3  C4         2.8980    3.6350   73.6280 C.3   775  BGC775      0.2142
      4  C5         2.6280    2.9750   72.2640 C.3   775  BGC775      0.1810
      5  C6         2.7630    1.4630   72.3010 C.3   775  BGC775      0.2141
      6  C1         1.0190    4.6660   71.6840 C.3   775  BGC775      0.1777
      7  O2         0.9820    6.7620   72.8540 O.3   775  BGC775     -0.2176
      8  O3         2.7500    5.7320   74.8280 O.3   775  BGC775     -0.2175
      9  O4         4.2500    3.4200   74.0150 O.3   775  BGC775     -0.2176
     10  O5         1.2790    3.2600   71.8220 O.3   775  BGC775     -0.3481
     11  O6         3.8840    1.0630   73.0720 O.3   775  BGC775     -0.2176
@<TRIPOS>BOND
     1     6    10    1
     2     6     1    1
     3    10     4    1
     4     4     5    1
     5     4     3    1
     6     5    11    1
     7     7     1    1
     8     1     2    1
     9     2     3    1
    10     2     8    1
    11     3     9    1
