@<TRIPOS>MOLECULE
1ga4_III_I_1.pdb
 30 31 0 0 0
SMALL
GASTEIGER

@<TRIPOS>ATOM
      1  CA        23.0620   12.2550    7.5530 C.3     1  IVA1        0.0868
      2  CB        23.5530   12.7240    6.1780 C.3     1  IVA1        0.0091
      3  CG1       22.9980   11.8400    5.0590 C.3     1  IVA1        0.0005
      4  CG2       23.1710   14.1630    5.8730 C.3     1  IVA1        0.0005
      5  C         23.8220   12.8870    8.7250 C.2     1  IVA1        0.2418
      6  O         25.0240   12.9730    8.7580 O.2     1  IVA1       -0.2733
      7  N         23.0600   13.3480    9.7320 N.am    2  PHE2       -0.1974
      8  CA        23.6800   14.1060   10.8390 C.3     2  PHE2        0.1770
      9  CB        22.6370   14.7960   11.7670 C.3     2  PHE2        0.0574
     10  CG        21.4930   15.4090   10.9990 C.ar    2  PHE2       -0.0199
     11  CD1       21.7640   16.1430    9.8670 C.ar    2  PHE2       -0.0038
     12  CD2       20.1620   15.2680   11.3550 C.ar    2  PHE2       -0.0038
     13  CE1       20.7780   16.7360    9.1100 C.ar    2  PHE2        0.0055
     14  CE2       19.1850   15.8500   10.5830 C.ar    2  PHE2        0.0055
     15  CZ        19.4610   16.5930    9.4560 C.ar    2  PHE2        0.0300
     16  I         18.1250   17.4170    8.3600 I       2  PHE2       -0.0425
     17  C         24.5790   13.1930   11.6610 C.2     2  PHE2        0.2616
     18  O         24.3030   11.9990   11.8850 O.2     2  PHE2       -0.2715
     19  N         25.6810   13.7660   12.1360 N.am    3  TYR3       -0.2027
     20  CA        26.6010   13.0610   13.0290 C.3     3  TYR3        0.1325
     21  C         26.7420   13.7310   14.4160 C.3     3  TYR3        0.2039
     22  O         27.2870   13.0710   15.5280 O.3     3  TYR3       -0.2185
     23  CB        27.9920   12.9980   12.4180 C.3     3  TYR3        0.0507
     24  CG        28.2510   12.0400   11.3210 C.ar    3  TYR3       -0.0202
     25  CD1       27.5690   10.8630   11.3140 C.ar    3  TYR3       -0.0009
     26  CD2       29.2280   12.2800   10.3590 C.ar    3  TYR3       -0.0009
     27  CE1       27.7790    9.9370   10.3910 C.ar    3  TYR3        0.0417
     28  CE2       29.4150   11.3410    9.3930 C.ar    3  TYR3        0.0417
     29  CZ        28.7020   10.1830    9.3820 C.ar    3  TYR3        0.1957
     30  OH        28.7470    9.1820    8.5190 O.3     3  TYR3       -0.2866
@<TRIPOS>BOND
     1     3     2    1
     2     4     2    1
     3     2     1    1
     4     1     5    1
     5    16    15    1
     6    30    29    1
     7     5     6    2
     8     5     7   am
     9    13    15   ar
    10    13    11   ar
    11    29    28   ar
    12    29    27   ar
    13    28    26   ar
    14    15    14   ar
    15     7     8    1
    16    11    10   ar
    17    26    24   ar
    18    27    25   ar
    19    14    12   ar
    20     8    17    1
    21     8     9    1
    22    10    12   ar
    23    10     9    1
    24    25    24   ar
    25    24    23    1
    26    17    18    2
    27    17    19   am
    28    19    20    1
    29    23    20    1
    30    20    21    1
    31    21    22    1
