@<TRIPOS>MOLECULE
1ga6_III_I_1.pdb
 16 16 0 0 0
SMALL
GASTEIGER

@<TRIPOS>ATOM
      1  N         21.0910   13.3040    3.6270 N.3     2  TYR2       -0.1227
      2  CA        22.0990   14.2510    3.1560 C.3     2  TYR2        0.1736
      3  C         21.5490   15.0350    1.9850 C.2     2  TYR2        0.2596
      4  O         22.1370   15.2390    0.9130 O.2     2  TYR2       -0.2718
      5  CB        23.3680   13.4500    2.8740 C.3     2  TYR2        0.0548
      6  CG        23.1650   11.9610    2.6390 C.ar    2  TYR2       -0.0200
      7  CD1       22.9980   10.9990    3.6270 C.ar    2  TYR2       -0.0009
      8  CD2       23.1480   11.4910    1.3310 C.ar    2  TYR2       -0.0009
      9  CE1       22.8210    9.6640    3.2950 C.ar    2  TYR2        0.0417
     10  CE2       22.9810   10.1880    0.9610 C.ar    2  TYR2        0.0417
     11  CZ        22.8120    9.2550    1.9750 C.ar    2  TYR2        0.1957
     12  OH        22.6420    7.9150    1.6930 O.3     2  TYR2       -0.2866
     13  N         20.3170   15.5210    2.1430 N.am    3  UNK3       -0.1957
     14  CA        19.3910   15.3240    3.2330 C.3     3  UNK3        0.1869
     15  C         18.0690   16.0240    2.9250 C.2     3  UNK3        0.2309
     16  O         18.0340   16.9550    2.0900 O.2     3  UNK3       -0.2863
@<TRIPOS>BOND
     1     4     3    2
     2    10     8   ar
     3    10    11   ar
     4     8     6   ar
     5    12    11    1
     6    11     9   ar
     7     3    13   am
     8     3     2    1
     9    16    15    2
    10    13    14    1
    11     6     5    1
    12     6     7   ar
    13     5     2    1
    14    15    14    1
    15     2     1    1
    16     9     7   ar
