@<TRIPOS>MOLECULE
1ga8_DEL_A_1.pdb
 22 23 0 0 0
SMALL
GASTEIGER

@<TRIPOS>ATOM
      1  C1        22.0250   53.8210   65.7730 C.3   500  DEL500      0.2694
      2  C2        22.2850   52.4600   65.2110 C.3   500  DEL500      0.2380
      3  C3        22.3020   51.4870   66.3830 C.3   500  DEL500      0.1897
      4  C4        23.4690   51.8960   67.3350 C.3   500  DEL500      0.0681
      5  C5        23.3490   53.1940   67.9100 C.3   500  DEL500      0.1533
      6  C6        24.3150   53.6290   68.7050 C.3   500  DEL500      0.2116
      7  O1        21.7810   55.0960   65.1450 O.3   500  DEL500     -0.3257
      8  O2        21.2400   52.1370   64.3110 O.3   500  DEL500     -0.2150
      9  O3        22.5470   50.2100   65.8510 O.3   500  DEL500     -0.2201
     10  O5        23.0970   54.1580   66.7490 O.3   500  DEL500     -0.3283
     11  O6        24.6960   52.8350   69.8700 O.3   500  DEL500     -0.2177
     12  C1'       21.0220   59.1670   65.1150 C.3   500  DEL500      0.3023
     13  C2'       22.2330   58.7350   66.0030 C.3   500  DEL500      0.2433
     14  C3'       22.7010   57.3390   65.5460 C.3   500  DEL500      0.2168
     15  C4'       21.5020   56.4040   65.7220 C.3   500  DEL500      0.1804
     16  C5'       20.2600   56.8190   64.8730 C.3   500  DEL500      0.1804
     17  C6'       19.0260   55.9150   65.0600 C.3   500  DEL500      0.2141
     18  O1'       20.5870   60.4390   65.5360 O.3   500  DEL500     -0.1869
     19  O2'       23.2910   59.6660   65.8500 O.3   500  DEL500     -0.2148
     20  O3'       23.8170   56.9390   66.3790 O.3   500  DEL500     -0.2175
     21  O5'       19.9380   58.1860   65.2550 O.3   500  DEL500     -0.3237
     22  O6'       18.1150   56.1080   63.9880 O.3   500  DEL500     -0.2176
@<TRIPOS>BOND
     1    22    17    1
     2     8     2    1
     3    16    17    1
     4    16    21    1
     5    16    15    1
     6    12    21    1
     7    12    18    1
     8    12    13    1
     9     7    15    1
    10     7     1    1
    11     2     1    1
    12     2     3    1
    13    14    15    1
    14    14    13    1
    15    14    20    1
    16     1    10    1
    17    19    13    1
    18     9     3    1
    19     3     4    1
    20    10     5    1
    21     4     5    1
    22     5     6    1
    23     6    11    1
