@<TRIPOS>MOLECULE
1ga8_UPF_A_1.pdb
 36 38 0 0 0
SMALL
GASTEIGER

@<TRIPOS>ATOM
      1  N1        27.2460   44.4760   57.8590 N.am  501  UPF501     -0.1766
      2  C2        27.6320   43.8440   56.6640 C.1   501  UPF501      0.2845
      3  N3        26.7360   44.0950   55.6100 N.2   501  UPF501     -0.2452
      4  C4        25.5430   44.9050   55.6530 C.1   501  UPF501      0.2182
      5  C5        25.2330   45.5200   56.9100 C.2   501  UPF501      0.1242
      6  C6        26.0520   45.3090   57.9420 C.2   501  UPF501      0.0929
      7  O2        28.6330   43.1380   56.5650 O.2   501  UPF501     -0.1918
      8  O4        24.8680   45.0220   54.6450 O.2   501  UPF501     -0.2085
      9  C1D       27.9460   44.4270   59.2220 C.3   501  UPF501      0.2401
     10  C2D       29.2130   45.2450   59.1230 C.3   501  UPF501      0.2319
     11  O2'       30.3250   44.4900   59.5910 O.3   501  UPF501     -0.2157
     12  C3D       28.9280   46.4700   59.9740 C.3   501  UPF501      0.2158
     13  C4D       28.1770   45.8250   61.1350 C.3   501  UPF501      0.1799
     14  O4D       27.3570   44.7760   60.4510 O.3   501  UPF501     -0.3320
     15  O3D       30.0090   47.2470   60.4500 O.3   501  UPF501     -0.2175
     16  C5D       26.8690   46.2250   61.7450 C.3   501  UPF501      0.1813
     17  O5D       26.2980   47.5780   61.4830 O.3   501  UPF501     -0.3112
     18  PA        26.7660   49.0990   61.2490 P.3   501  UPF501      0.2189
     19  O1A       28.2220   49.2720   61.2610 O.3   501  UPF501     -0.4371
     20  O2A       26.1060   49.6940   60.0590 O.2   501  UPF501     -0.5170
     21  O3A       26.0110   49.2790   62.6430 O.3   501  UPF501     -0.2703
     22  PB        25.7370   50.5070   63.6150 P.3   501  UPF501      0.2208
     23  O1B       27.0730   51.1400   63.7230 O.3   501  UPF501     -0.4371
     24  O2B       24.7520   51.3970   62.9590 O.2   501  UPF501     -0.5170
     25  O3B       25.2830   49.9760   64.9890 O.3   501  UPF501     -0.2856
     26  C1'       25.6630   49.7820   66.5260 C.3   501  UPF501      0.2764
     27  C2'       27.1420   49.3490   66.4990 C.3   501  UPF501      0.2498
     28  C3'       27.5700   48.1620   65.5000 C.3   501  UPF501      0.2220
     29  C4'       26.5800   46.9420   65.6870 C.3   501  UPF501      0.2146
     30  C5'       25.0910   47.5580   65.6700 C.3   501  UPF501      0.1835
     31  C6'       24.0670   46.5000   66.1240 C.3   501  UPF501      0.2142
     32  F2'       28.0070   50.4450   66.3030 F     501  UPF501     -0.2290
     33  O3'       28.8620   47.7560   65.8700 O.3   501  UPF501     -0.2172
     34  O4'       26.8780   46.2870   66.9490 O.3   501  UPF501     -0.2176
     35  O5'       24.8230   48.6270   66.7070 O.3   501  UPF501     -0.3253
     36  O6'       23.7800   45.2490   65.5530 O.3   501  UPF501     -0.2176
@<TRIPOS>BOND
     1     8     4    2
     2     3     4    2
     3     3     2    2
     4     4     5    1
     5     7     2    2
     6     2     1   am
     7     5     6    2
     8     1     6    1
     9     1     9    1
    10    10     9    1
    11    10    11    1
    12    10    12    1
    13     9    14    1
    14    12    15    1
    15    12    13    1
    16    20    18    2
    17    14    13    1
    18    13    16    1
    19    18    19    1
    20    18    17    1
    21    18    21    1
    22    17    16    1
    23    21    22    1
    24    24    22    2
    25    22    23    1
    26    22    25    1
    27    25    26    1
    28    28    29    1
    29    28    33    1
    30    28    27    1
    31    36    31    1
    32    30    29    1
    33    30    31    1
    34    30    35    1
    35    29    34    1
    36    32    27    1
    37    27    26    1
    38    26    35    1
