@<TRIPOS>MOLECULE
1ga9_ETP_A_1.pdb
 27 29 0 0 0
SMALL
GASTEIGER

@<TRIPOS>ATOM
      1  B         26.7620    4.8970   16.3880 B     964  ETP964      0.0000
      2  O1        25.7110    3.8660   16.7220 O.3   964  ETP964      0.0000
      3  O2        27.0100    5.7500   17.5590 O.3   964  ETP964      0.0000
      4  C1        26.2640    5.8100   15.1730 C.ar  964  ETP964      0.0000
      5  C2        25.9200    5.2430   13.9180 C.ar  964  ETP964      0.0000
      6  C3        25.3620    6.0620   12.8890 C.ar  964  ETP964      0.0000
      7  N1        24.9320    5.4810   11.5860 N.pl3 964  ETP964      0.0000
      8  C4        25.1620    7.4400   13.1240 C.ar  964  ETP964      0.0000
      9  C5        25.5040    8.0130   14.3480 C.ar  964  ETP964      0.0000
     10  C6        26.0570    7.2030   15.3740 C.ar  964  ETP964      0.0000
     11  S1        23.5540    4.4990   11.4300 S.O2  964  ETP964      0.0000
     12  O3        23.6900    3.3850   12.3890 O.2   964  ETP964      0.0000
     13  O4        23.0900    4.3340   10.1060 O.2   964  ETP964      0.0000
     14  S3        21.1630    6.4410   11.1290 S.2   964  ETP964      0.0000
     15  C7        20.3820    7.0000   12.6240 C.ar  964  ETP964      0.0000
     16  C8        20.9390    6.4850   13.7420 C.ar  964  ETP964      0.0000
     17  C9        22.0490    5.5730   13.4700 C.ar  964  ETP964      0.0000
     18  C10       22.2730    5.4670   12.1420 C.ar  964  ETP964      0.0000
     19  S2        20.4500    6.9110   15.3600 S.O2  964  ETP964      0.0000
     20  O6        19.0880    7.2290   15.4500 O.2   964  ETP964      0.0000
     21  O5        21.1590    6.0370   16.3140 O.2   964  ETP964      0.0000
     22  C11       21.2220    8.4710   15.6220 C.ar  964  ETP964      0.0000
     23  C16       22.2980    8.5920   16.5420 C.ar  964  ETP964      0.0000
     24  C15       22.9550    9.8310   16.7090 C.ar  964  ETP964      0.0000
     25  C14       22.5410   10.9640   15.9570 C.ar  964  ETP964      0.0000
     26  C13       21.4730   10.8590   15.0440 C.ar  964  ETP964      0.0000
     27  C12       20.8100    9.6210   14.8740 C.ar  964  ETP964      0.0000
@<TRIPOS>BOND
     1    13    11    2
     2    14    18   ar
     3    14    15   ar
     4    11     7    1
     5    11    18    1
     6    11    12    2
     7     7     6    1
     8    18    17   ar
     9    15    16   ar
    10     6     8   ar
    11     6     5   ar
    12     8     9   ar
    13    17    16   ar
    14    16    19    1
    15     5     4   ar
    16     9    10   ar
    17    27    26   ar
    18    27    22   ar
    19    26    25   ar
    20     4    10   ar
    21     4     1    1
    22    19    20    2
    23    19    22    1
    24    19    21    2
    25    22    23   ar
    26    25    24   ar
    27     1     2    1
    28     1     3    1
    29    23    24   ar
