@<TRIPOS>MOLECULE
1gad_NAD_O_1.pdb
 44 48 0 0 0
SMALL
GASTEIGER

@<TRIPOS>ATOM
      1  PA         7.6170   81.4080   22.9960 P.3   336  NAD336      0.2189
      2  O1A        6.5290   82.0780   23.7480 O.3   336  NAD336     -0.4371
      3  O2A        8.3810   80.2810   23.5840 O.2   336  NAD336     -0.5170
      4  O5B        8.7190   82.5170   22.6140 O.3   336  NAD336     -0.3112
      5  C5B        8.4200   83.9050   22.6120 C.3   336  NAD336      0.1813
      6  C4B        9.6200   84.5600   23.2630 C.3   336  NAD336      0.1821
      7  O4B        9.6580   85.9390   22.8590 O.3   336  NAD336     -0.3135
      8  C3B        9.5490   84.5360   24.7880 C.3   336  NAD336      0.2184
      9  O3B       10.7520   84.0370   25.3970 O.3   336  NAD336     -0.2174
     10  C2B        9.3550   86.0060   25.1570 C.3   336  NAD336      0.2570
     11  O2B       10.0560   86.3510   26.3540 O.3   336  NAD336     -0.2130
     12  C1B        9.9840   86.7380   24.0020 C.3   336  NAD336      0.3186
     13  N9A        9.5140   88.1290   23.8760 N.pl3 336  NAD336     -0.1439
     14  C8A        8.2510   88.5800   23.9910 C.3   336  NAD336      0.3377
     15  N7A        8.1840   89.8920   23.7190 N.2   336  NAD336     -0.2095
     16  C5A        9.4380   90.2090   23.4370 C.2   336  NAD336      0.2526
     17  C6A        9.8550   91.4580   23.0370 C.2   336  NAD336      0.4393
     18  N6A        8.9880   92.4420   22.8820 N.pl3 336  NAD336      0.2180
     19  N1A       11.1590   91.5940   22.7550 N.2   336  NAD336      0.0021
     20  C2A       11.9950   90.5570   22.8580 C.3   336  NAD336      0.5254
     21  N3A       11.5820   89.3510   23.2370 N.2   336  NAD336     -0.0055
     22  C4A       10.2920   89.1460   23.5310 C.2   336  NAD336      0.3518
     23  O3         7.0390   80.8970   21.5920 O.3   336  NAD336     -0.2703
     24  PN         7.6600   80.1210   20.3510 P.3   336  NAD336      0.2189
     25  O1N        7.0890   78.7520   20.2960 O.2   336  NAD336     -0.5170
     26  O2N        9.1310   80.2970   20.3120 O.3   336  NAD336     -0.4371
     27  O5D        7.0830   80.9760   19.1310 O.3   336  NAD336     -0.3112
     28  C5D        7.6790   82.2200   18.7000 C.3   336  NAD336      0.1813
     29  C4D        7.4970   82.3490   17.1770 C.3   336  NAD336      0.1799
     30  O4D        7.9600   81.1310   16.5210 O.3   336  NAD336     -0.3327
     31  C3D        6.0230   82.4910   16.7630 C.3   336  NAD336      0.2158
     32  O3D        5.8430   83.2800   15.5650 O.3   336  NAD336     -0.2175
     33  C2D        5.5890   81.0450   16.5270 C.3   336  NAD336      0.2309
     34  O2D        4.4330   81.0160   15.6780 O.3   336  NAD336     -0.2158
     35  C1D        6.8330   80.5060   15.8420 C.3   336  NAD336      0.2263
     36  N1N        6.8880   79.0290   15.6640 N.pl3 336  NAD336     -0.2787
     37  C2N        6.7140   78.1460   16.7510 C.3   336  NAD336      0.1244
     38  C3N        6.8130   76.7660   16.5580 C.2   336  NAD336      0.0544
     39  C7N        6.7230   75.7850   17.7450 C.2   336  NAD336      0.2818
     40  O7N        6.2340   74.6620   17.6170 O.2   336  NAD336     -0.2670
     41  N7N        7.1920   76.2250   18.9100 N.am  336  NAD336     -0.0839
     42  C4N        7.0760   76.2790   15.2640 C.2   336  NAD336      0.0033
     43  C5N        7.2470   77.1380   14.1790 C.2   336  NAD336      0.0157
     44  C6N        7.1550   78.5120   14.3800 C.2   336  NAD336      0.0633
@<TRIPOS>BOND
     1    43    44    2
     2    43    42    1
     3    44    36    1
     4    42    38    2
     5    32    31    1
     6    36    35    1
     7    36    37    1
     8    34    33    1
     9    35    30    1
    10    35    33    1
    11    30    29    1
    12    33    31    1
    13    38    37    1
    14    38    39    1
    15    31    29    1
    16    29    28    1
    17    40    39    2
    18    39    41   am
    19    28    27    1
    20    27    24    1
    21    25    24    2
    22    26    24    1
    23    24    23    1
    24    23     1    1
    25     5     4    1
    26     5     6    1
    27     4     1    1
    28    19    20    1
    29    19    17    2
    30    20    21    1
    31     7     6    1
    32     7    12    1
    33    18    17    1
    34     1     3    2
    35     1     2    1
    36    17    16    1
    37    21    22    2
    38     6     8    1
    39    16    22    1
    40    16    15    2
    41    22    13    1
    42    15    14    1
    43    13    14    1
    44    13    12    1
    45    12    10    1
    46     8    10    1
    47     8     9    1
    48    10    11    1
