@<TRIPOS>MOLECULE
1gae_NAD_O_1.pdb
 44 48 0 0 0
SMALL
GASTEIGER

@<TRIPOS>ATOM
      1  PA         8.2000   82.2040   23.1030 P.3   336  NAD336      0.2189
      2  O1A        7.2350   83.1060   23.7860 O.2   336  NAD336     -0.5170
      3  O2A        8.7960   81.0410   23.8430 O.3   336  NAD336     -0.4371
      4  O5B        9.3870   83.1460   22.5360 O.3   336  NAD336     -0.3112
      5  C5B        9.2010   84.5580   22.4140 C.3   336  NAD336      0.1813
      6  C4B       10.3940   85.1000   23.1680 C.3   336  NAD336      0.1821
      7  O4B       10.5480   86.4740   22.8000 O.3   336  NAD336     -0.3135
      8  C3B       10.2260   85.0160   24.6790 C.3   336  NAD336      0.2184
      9  O3B       11.3850   84.5220   25.3620 O.3   336  NAD336     -0.2174
     10  C2B       10.0680   86.4660   25.1040 C.3   336  NAD336      0.2570
     11  O2B       10.6930   86.6910   26.3760 O.3   336  NAD336     -0.2130
     12  C1B       10.8010   87.1950   24.0000 C.3   336  NAD336      0.3186
     13  N9A       10.3690   88.5970   23.8730 N.pl3 336  NAD336     -0.1439
     14  C8A        9.1300   89.0710   24.0800 C.3   336  NAD336      0.3377
     15  N7A        9.0510   90.3670   23.7510 N.2   336  NAD336     -0.2095
     16  C5A       10.2770   90.6590   23.3400 C.2   336  NAD336      0.2526
     17  C6A       10.6780   91.9030   22.8650 C.2   336  NAD336      0.4393
     18  N6A        9.8280   92.9250   22.7830 N.pl3 336  NAD336      0.2180
     19  N1A       11.9720   91.9930   22.4850 N.2   336  NAD336      0.0021
     20  C2A       12.8040   90.9480   22.5680 C.3   336  NAD336      0.5254
     21  N3A       12.4130   89.7500   23.0210 N.2   336  NAD336     -0.0055
     22  C4A       11.1330   89.5810   23.4130 C.2   336  NAD336      0.3518
     23  O3         7.5490   81.6260   21.7280 O.3   336  NAD336     -0.2703
     24  PN         7.9600   80.5830   20.5480 P.3   336  NAD336      0.2189
     25  O1N        7.1470   79.3380   20.7370 O.3   336  NAD336     -0.4371
     26  O2N        9.4330   80.4340   20.4420 O.2   336  NAD336     -0.5170
     27  O5D        7.3920   81.3620   19.2440 O.3   336  NAD336     -0.3112
     28  C5D        8.1070   82.4310   18.5770 C.3   336  NAD336      0.1813
     29  C4D        7.8970   82.3180   17.0590 C.3   336  NAD336      0.1799
     30  O4D        8.2230   80.9550   16.6460 O.3   336  NAD336     -0.3327
     31  C3D        6.4350   82.5510   16.6420 C.3   336  NAD336      0.2158
     32  O3D        6.2840   83.3730   15.4630 O.3   336  NAD336     -0.2175
     33  C2D        5.9170   81.1310   16.3770 C.3   336  NAD336      0.2309
     34  O2D        4.7940   81.0740   15.4800 O.3   336  NAD336     -0.2158
     35  C1D        7.1600   80.4950   15.7750 C.3   336  NAD336      0.2263
     36  N1N        7.0610   79.0260   15.5730 N.pl3 336  NAD336     -0.2787
     37  C2N        7.0320   78.1840   16.7020 C.3   336  NAD336      0.1244
     38  C3N        6.9580   76.7920   16.5530 C.2   336  NAD336      0.0544
     39  C7N        6.9780   75.8910   17.8120 C.2   336  NAD336      0.2818
     40  O7N        6.7140   74.6920   17.7680 O.2   336  NAD336     -0.2670
     41  N7N        7.2950   76.4700   18.9750 N.am  336  NAD336     -0.0839
     42  C4N        6.9040   76.2570   15.2440 C.2   336  NAD336      0.0033
     43  C5N        6.9270   77.0980   14.1160 C.2   336  NAD336      0.0157
     44  C6N        7.0060   78.4870   14.2670 C.2   336  NAD336      0.0633
@<TRIPOS>BOND
     1    43    44    2
     2    43    42    1
     3    44    36    1
     4    42    38    2
     5    32    31    1
     6    34    33    1
     7    36    35    1
     8    36    37    1
     9    35    33    1
    10    35    30    1
    11    33    31    1
    12    38    37    1
    13    38    39    1
    14    31    29    1
    15    30    29    1
    16    29    28    1
    17    40    39    2
    18    39    41   am
    19    28    27    1
    20    27    24    1
    21    26    24    2
    22    24    25    1
    23    24    23    1
    24    23     1    1
    25     5     4    1
    26     5     6    1
    27    19    20    1
    28    19    17    2
    29     4     1    1
    30    20    21    1
    31    18    17    1
    32     7     6    1
    33     7    12    1
    34    17    16    1
    35    21    22    2
    36     1     2    2
    37     1     3    1
    38     6     8    1
    39    16    22    1
    40    16    15    2
    41    22    13    1
    42    15    14    1
    43    13    12    1
    44    13    14    1
    45    12    10    1
    46     8    10    1
    47     8     9    1
    48    10    11    1
