@<TRIPOS>MOLECULE
1gaf_NPE_H_1.pdb
 32 32 0 0 0
SMALL
GASTEIGER

@<TRIPOS>ATOM
      1  C1        56.6270   -8.8760   14.9510 C.ar  218  NPE218      0.1264
      2  N1        55.8220   -9.0340   16.1330 N.pl3 218  NPE218      0.0564
      3  O1N       54.7280   -8.1710   16.2520 O.2   218  NPE218     -0.1261
      4  O2N       56.2280  -10.0260   17.0340 O.2   218  NPE218     -0.1261
      5  C2        57.7690   -9.7050   14.7610 C.ar  218  NPE218     -0.0280
      6  C3        58.5610   -9.5750   13.6020 C.ar  218  NPE218     -0.0173
      7  C4        58.2200   -8.6220   12.6230 C.ar  218  NPE218      0.1301
      8  C5        57.0880   -7.7900   12.7920 C.ar  218  NPE218     -0.0173
      9  C6        56.2940   -7.9110   13.9500 C.ar  218  NPE218     -0.0280
     10  O3P       58.9990   -8.5680   11.4520 O.3   218  NPE218     -0.4225
     11  P         60.1210   -7.6010   11.1200 P.3   218  NPE218      0.4084
     12  O1P       60.0150   -7.3190    9.7280 O.2   218  NPE218     -0.2417
     13  O2P       59.9220   -6.3840   11.8450 O.3   218  NPE218     -0.1301
     14  C7        61.6850   -8.3030   11.6030 C.3   218  NPE218      0.0629
     15  C8        61.8180   -9.7050   11.0300 C.3   218  NPE218     -0.0405
     16  C9        63.2580  -10.1960   11.2010 C.3   218  NPE218     -0.0422
     17  C10       63.2590  -11.6660   11.6240 C.3   218  NPE218      0.0492
     18  C11       64.7000  -12.0870   11.9020 C.2   218  NPE218      0.3560
     19  O1        65.1660  -12.2230   12.9960 O.co2 218  NPE218     -0.2464
     20  O2        65.3340  -12.2730   10.7200 O.co2 218  NPE218     -0.2464
     21  H2        58.1640  -10.2610   15.5900 H     218  NPE218      0.0641
     22  H3        59.6000   -9.8310   13.6820 H     218  NPE218      0.0655
     23  H5        56.9920   -6.9080   12.1880 H     218  NPE218      0.0655
     24  H6        55.5020   -7.2050   14.1250 H     218  NPE218      0.0641
     25  H71       61.7290   -8.3500   12.6800 H     218  NPE218      0.0399
     26  H72       62.4790   -7.6750   11.2320 H     218  NPE218      0.0399
     27  H81       61.5640   -9.6760    9.9800 H     218  NPE218      0.0271
     28  H82       61.1330  -10.3640   11.5430 H     218  NPE218      0.0271
     29  H91       63.7660   -9.6070   11.9500 H     218  NPE218      0.0271
     30  H92       63.7840  -10.1040   10.2630 H     218  NPE218      0.0271
     31 H101       62.8480  -12.2780   10.8340 H     218  NPE218      0.0379
     32 H102       62.6750  -11.7900   12.5220 H     218  NPE218      0.0379
@<TRIPOS>BOND
     1    12    11    2
     2    27    15    1
     3    30    16    1
     4    20    18   ar
     5    31    17    1
     6    15    16    1
     7    15    28    1
     8    15    14    1
     9    11    10    1
    10    11    14    1
    11    11    13    1
    12    16    17    1
    13    16    29    1
    14    26    14    1
    15    10     7    1
    16    14    25    1
    17    17    18    1
    18    17    32    1
    19    18    19   ar
    20    23     8    1
    21     7     8   ar
    22     7     6   ar
    23     8     9   ar
    24     6    22    1
    25     6     5   ar
    26     9    24    1
    27     9     1   ar
    28     5     1   ar
    29     5    21    1
    30     1     2    1
    31     2     3    2
    32     2     4    2
