@<TRIPOS>MOLECULE
1gag_112_B_1.pdb
 35 37 0 0 0
SMALL
GASTEIGER

@<TRIPOS>ATOM
      1  NS       -25.1110   29.8040   16.3780 N.am  101  112101     -0.0870
      2  C2S      -25.0760   29.4630   15.0900 C.2   101  112101      0.2723
      3  O2S      -25.1490   30.3920   14.2790 O.2   101  112101     -0.2707
      4  C1S      -24.9490   28.0230   14.5940 C.3   101  112101      0.1571
      5  PG       -22.8370   27.8150   12.4340 P.3   101  112101      0.4244
      6  S1G      -23.2520   27.4030   14.3690 S.3   101  112101     -0.0186
      7  O2G      -22.9250   29.2640   12.1880 O.3   101  112101     -0.1310
      8  O3G      -21.5690   27.1950   11.9950 O.2   101  112101     -0.2432
      9  PB       -25.2900   27.5650   10.9980 P.3   101  112101      0.2262
     10  O1B      -26.3130   26.5380   11.2980 O.2   101  112101     -0.5168
     11  O2B      -25.5780   28.9650   11.3340 O.3   101  112101     -0.4369
     12  O3B      -23.8870   27.2020   11.5020 O.3   101  112101     -0.2410
     13  PA       -25.6870   27.8330    8.2620 P.3   101  112101      0.2189
     14  O1A      -26.6450   26.7110    8.0610 O.2   101  112101     -0.5170
     15  O2A      -26.1710   29.2420    8.3280 O.3   101  112101     -0.4371
     16  O3A      -24.9020   27.5060    9.5250 O.3   101  112101     -0.2701
     17  O5'      -24.5450   27.7900    7.0920 O.3   101  112101     -0.3112
     18  C5'      -23.2750   27.0900    7.2080 C.3   101  112101      0.1813
     19  C4'      -22.1040   27.6590    6.4400 C.3   101  112101      0.1821
     20  O4'      -22.4810   27.8060    5.0430 O.3   101  112101     -0.3135
     21  C3'      -21.6520   29.0540    6.8480 C.3   101  112101      0.2184
     22  O3'      -20.7530   29.0240    7.9550 O.3   101  112101     -0.2174
     23  C2'      -20.9480   29.5370    5.5890 C.3   101  112101      0.2570
     24  O2'      -19.6460   28.9950    5.4800 O.3   101  112101     -0.2130
     25  C1'      -21.8440   28.9510    4.4900 C.3   101  112101      0.3186
     26  N9       -22.8700   29.8780    3.9820 N.pl3 101  112101     -0.1439
     27  C8       -24.1040   30.1540    4.5240 C.3   101  112101      0.3377
     28  N7       -24.7950   31.0410    3.8440 N.2   101  112101     -0.2095
     29  C5       -23.9670   31.3730    2.7840 C.2   101  112101      0.2526
     30  C6       -24.1210   32.2660    1.7030 C.2   101  112101      0.4393
     31  N6       -25.2060   33.0210    1.5100 N.pl3 101  112101      0.2180
     32  N1       -23.1090   32.3610    0.8170 N.2   101  112101      0.0021
     33  C2       -22.0190   31.6080    1.0140 C.3   101  112101      0.5254
     34  N3       -21.7540   30.7370    1.9870 N.2   101  112101     -0.0055
     35  C4       -22.7790   30.6640    2.8520 C.2   101  112101      0.3518
@<TRIPOS>BOND
     1    32    33    1
     2    32    30    2
     3    33    34    1
     4    31    30    1
     5    30    29    1
     6    34    35    2
     7    29    35    1
     8    29    28    2
     9    35    26    1
    10    28    27    1
    11    26    25    1
    12    26    27    1
    13    25    20    1
    14    25    23    1
    15    20    19    1
    16    24    23    1
    17    23    21    1
    18    19    21    1
    19    19    18    1
    20    21    22    1
    21    17    18    1
    22    17    13    1
    23    14    13    2
    24    13    15    1
    25    13    16    1
    26    16     9    1
    27     9    10    2
    28     9    11    1
    29     9    12    1
    30    12     5    1
    31     8     5    2
    32     7     5    1
    33     5     6    1
    34     3     2    2
    35     6     4    1
    36     4     2    1
    37     2     1   am
