@<TRIPOS>MOLECULE
1gah_MAN_A_10.pdb
 22 22 0 0 0
SMALL
GASTEIGER

@<TRIPOS>ATOM
      1  C1        14.9470   11.3010   37.9580 C.3   482  MAN482      0.1161
      2  C2        15.5920   10.2020   37.0740 C.3   482  MAN482      0.1121
      3  C3        14.6320    9.0420   36.7380 C.3   482  MAN482      0.1118
      4  C4        13.8210    8.5970   37.9560 C.3   482  MAN482      0.1117
      5  C5        13.1720    9.8030   38.6420 C.3   482  MAN482      0.1105
      6  C6        12.4060    9.4250   39.9090 C.3   482  MAN482      0.0729
      7  O2        16.7720    9.6860   37.6840 O.3   482  MAN482     -0.3865
      8  O3        15.3840    7.9280   36.2630 O.3   482  MAN482     -0.3865
      9  O4        12.8230    7.6740   37.5400 O.3   482  MAN482     -0.3865
     10  O5        14.1950   10.7430   39.0370 O.3   482  MAN482     -0.3631
     11  O6        11.3300    8.5330   39.6320 O.3   482  MAN482     -0.3924
     12  H1        15.7480   11.8900   38.4570 H     482  MAN482      0.0650
     13  H2        15.8590   10.6490   36.1090 H     482  MAN482      0.0647
     14  H3        13.9130    9.3630   35.9610 H     482  MAN482      0.0647
     15  H4        14.5150    8.1050   38.6560 H     482  MAN482      0.0647
     16  H5        12.4840   10.3130   37.9420 H     482  MAN482      0.0646
     17  H61       12.0100   10.3430   40.3710 H     482  MAN482      0.0584
     18  H62       13.0960    8.9680   40.6340 H     482  MAN482      0.0584
     19  HO2       17.4590   10.3640   37.6310 H     482  MAN482      0.2100
     20  HO3       16.2210    7.9660   36.7560 H     482  MAN482      0.2100
     21  HO4       13.1030    7.3870   36.6500 H     482  MAN482      0.2100
     22  HO6       11.5370    8.0460   38.8210 H     482  MAN482      0.2095
@<TRIPOS>BOND
     1    14     3    1
     2    13     2    1
     3     8     3    1
     4     8    20    1
     5    21     9    1
     6     3     2    1
     7     3     4    1
     8     2     7    1
     9     2     1    1
    10     9     4    1
    11    19     7    1
    12    16     5    1
    13     4     5    1
    14     4    15    1
    15     1    12    1
    16     1    10    1
    17     5    10    1
    18     5     6    1
    19    22    11    1
    20    11     6    1
    21     6    17    1
    22     6    18    1
