@<TRIPOS>MOLECULE
1gah_NAG_A_1.pdb
 27 27 0 0 0
SMALL
GASTEIGER

@<TRIPOS>ATOM
      1  C1        44.6140   -1.3690   16.1470 C.3   483  NAG483      0.1078
      2  C2        44.9990   -0.5330   14.9210 C.3   483  NAG483      0.0802
      3  C3        46.2430   -1.1080   14.2780 C.3   483  NAG483      0.1076
      4  C4        47.3620   -1.1870   15.3040 C.3   483  NAG483      0.1493
      5  C5        46.8940   -1.9980   16.5000 C.3   483  NAG483      0.1137
      6  C6        47.9510   -2.0700   17.5980 C.3   483  NAG483      0.0730
      7  C7        43.0320    0.4710   13.9500 C.2   483  NAG483      0.2103
      8  C8        41.9960    0.4560   12.8320 C.3   483  NAG483      0.0122
      9  N2        43.9430   -0.4950   13.9230 N.am  483  NAG483     -0.3075
     10  O3        46.6250   -0.2930   13.1870 O.3   483  NAG483     -0.3871
     11  O4        48.4970   -1.8400   14.7170 O.3   483  NAG483     -0.2256
     12  O5        45.7100   -1.4040   17.0680 O.3   483  NAG483     -0.3638
     13  O6        48.4010   -0.7810   17.9750 O.3   483  NAG483     -0.3924
     14  O7        42.9810    1.3040   14.8630 O.2   483  NAG483     -0.2761
     15  H1        44.4010   -2.4170   15.8520 H     483  NAG483      0.0642
     16  H2        45.2530    0.4810   15.2690 H     483  NAG483      0.0551
     17  H3        46.0280   -2.1230   13.9090 H     483  NAG483      0.0641
     18  H4        47.5820   -0.1850   15.6900 H     483  NAG483      0.0682
     19  H5        46.6630   -3.0320   16.1960 H     483  NAG483      0.0647
     20  H61       48.8060   -2.6720   17.2560 H     483  NAG483      0.0584
     21  H62       47.5390   -2.5680   18.4800 H     483  NAG483      0.0584
     22  H81       41.2840   -0.3650   12.9770 H     483  NAG483      0.0322
     23  H82       42.4980    0.3300   11.8640 H     483  NAG483      0.0322
     24  H83       41.4600    1.4150   12.8070 H     483  NAG483      0.0322
     25  HN2       43.9390   -1.1530   13.1910 H     483  NAG483      0.1491
     26  HO3       47.4200   -0.7010   12.8150 H     483  NAG483      0.2100
     27  HO6       47.9760   -0.5350   18.8160 H     483  NAG483      0.2095
@<TRIPOS>BOND
     1    23     8    1
     2    24     8    1
     3    26    10    1
     4     8    22    1
     5     8     7    1
     6    10     3    1
     7    25     9    1
     8    17     3    1
     9     9     7   am
    10     9     2    1
    11     7    14    2
    12     3     2    1
    13     3     4    1
    14    11     4    1
    15     2    16    1
    16     2     1    1
    17     4    18    1
    18     4     5    1
    19    15     1    1
    20     1    12    1
    21    19     5    1
    22     5    12    1
    23     5     6    1
    24    20     6    1
    25     6    13    1
    26     6    21    1
    27    13    27    1
