@<TRIPOS>MOLECULE
1gai_NAG_A_1.pdb
 27 27 0 0 0
SMALL
GASTEIGER

@<TRIPOS>ATOM
      1  C1        44.6360   -1.3910   16.1330 C.3   484  NAG484      0.1078
      2  C2        45.0140   -0.5560   14.9110 C.3   484  NAG484      0.0802
      3  C3        46.2670   -1.1330   14.2620 C.3   484  NAG484      0.1076
      4  C4        47.3910   -1.2120   15.2830 C.3   484  NAG484      0.1493
      5  C5        46.9200   -2.0170   16.4890 C.3   484  NAG484      0.1137
      6  C6        47.9670   -2.0960   17.5950 C.3   484  NAG484      0.0730
      7  C7        43.0450    0.4680   13.9290 C.2   484  NAG484      0.2103
      8  C8        42.0010    0.4520   12.8200 C.3   484  NAG484      0.0122
      9  N2        43.9470   -0.5150   13.9170 N.am  484  NAG484     -0.3075
     10  O3        46.6500   -0.3130   13.1690 O.3   484  NAG484     -0.3871
     11  O4        48.5320   -1.8710   14.6970 O.3   484  NAG484     -0.2256
     12  O5        45.7330   -1.4210   17.0530 O.3   484  NAG484     -0.3638
     13  O6        48.4420   -0.8100   17.9570 O.3   484  NAG484     -0.3924
     14  O7        43.0040    1.3130   14.8230 O.2   484  NAG484     -0.2761
     15  H1        44.4190   -2.4380   15.8370 H     484  NAG484      0.0642
     16  H2        45.2650    0.4600   15.2610 H     484  NAG484      0.0551
     17  H3        46.0580   -2.1460   13.8890 H     484  NAG484      0.0641
     18  H4        47.6170   -0.2090   15.6640 H     484  NAG484      0.0682
     19  H5        46.6830   -3.0520   16.1870 H     484  NAG484      0.0647
     20  H61       48.8060   -2.7260   17.2720 H     484  NAG484      0.0584
     21  H62       47.5310   -2.5680   18.4820 H     484  NAG484      0.0584
     22  H81       42.4880    0.3540   11.8410 H     484  NAG484      0.0322
     23  H82       41.4300    1.3950   12.8240 H     484  NAG484      0.0322
     24  H83       41.3060   -0.3880   12.9520 H     484  NAG484      0.0322
     25  HN2       43.9170   -1.2120   13.2280 H     484  NAG484      0.1491
     26  HO3       47.4850   -0.6620   12.8280 H     484  NAG484      0.2100
     27  HO6       48.0900   -0.5980   18.8390 H     484  NAG484      0.2095
@<TRIPOS>BOND
     1    22     8    1
     2     8    23    1
     3     8    24    1
     4     8     7    1
     5    26    10    1
     6    10     3    1
     7    25     9    1
     8    17     3    1
     9     9     7   am
    10     9     2    1
    11     7    14    2
    12     3     2    1
    13     3     4    1
    14    11     4    1
    15     2    16    1
    16     2     1    1
    17     4    18    1
    18     4     5    1
    19    15     1    1
    20     1    12    1
    21    19     5    1
    22     5    12    1
    23     5     6    1
    24    20     6    1
    25     6    13    1
    26     6    21    1
    27    13    27    1
