@<TRIPOS>MOLECULE
1gai_MAN_A_10.pdb
 22 22 0 0 0
SMALL
GASTEIGER

@<TRIPOS>ATOM
      1  C1        14.9430   11.3820   37.9570 C.3   483  MAN483      0.1161
      2  C2        15.4570   10.1980   37.1040 C.3   483  MAN483      0.1121
      3  C3        14.3630    9.1510   36.8370 C.3   483  MAN483      0.1118
      4  C4        13.6560    8.7700   38.1340 C.3   483  MAN483      0.1117
      5  C5        13.1300   10.0280   38.8340 C.3   483  MAN483      0.1105
      6  C6        12.4580    9.7190   40.1720 C.3   483  MAN483      0.0729
      7  O2        16.5690    9.5710   37.7350 O.3   483  MAN483     -0.3865
      8  O3        14.9460    7.9820   36.2680 O.3   483  MAN483     -0.3865
      9  O4        12.5860    7.8740   37.8560 O.3   483  MAN483     -0.3865
     10  O5        14.2270   10.9300   39.1100 O.3   483  MAN483     -0.3631
     11  O6        11.3190    8.8770   40.0150 O.3   483  MAN483     -0.3924
     12  H1        15.8090   11.9430   38.3760 H     483  MAN483      0.0650
     13  H2        15.7870   10.5880   36.1330 H     483  MAN483      0.0647
     14  H3        13.6420    9.5890   36.1230 H     483  MAN483      0.0647
     15  H4        14.3730    8.2810   38.8170 H     483  MAN483      0.0647
     16  H5        12.4070   10.5490   38.1820 H     483  MAN483      0.0646
     17  H61       12.1480   10.6600   40.6520 H     483  MAN483      0.0584
     18  H62       13.1840    9.2360   40.8460 H     483  MAN483      0.0584
     19  HO2       16.7850    8.8430   37.1300 H     483  MAN483      0.2100
     20  HO3       14.2100    7.4960   35.8590 H     483  MAN483      0.2100
     21  HO4       12.9690    6.9870   37.8030 H     483  MAN483      0.2100
     22  HO6       11.4140    8.3690   39.1940 H     483  MAN483      0.2095
@<TRIPOS>BOND
     1    20     8    1
     2    14     3    1
     3    13     2    1
     4     8     3    1
     5     3     2    1
     6     3     4    1
     7     2     7    1
     8     2     1    1
     9    19     7    1
    10    21     9    1
    11     9     4    1
    12     1    12    1
    13     1    10    1
    14     4    15    1
    15     4     5    1
    16    16     5    1
    17     5    10    1
    18     5     6    1
    19    22    11    1
    20    11     6    1
    21     6    17    1
    22     6    18    1
