@<TRIPOS>MOLECULE
1gal_NAG_A_1.pdb
 14 14 0 0 0
SMALL
GASTEIGER

@<TRIPOS>ATOM
      1  C1        54.6650  -11.1790   67.6710 C.3   601  NAG601      0.1665
      2  C2        56.1620  -10.9250   67.4350 C.3   601  NAG601      0.1576
      3  C3        56.7120  -12.1880   66.8080 C.3   601  NAG601      0.2069
      4  C4        56.4920  -13.3790   67.7950 C.3   601  NAG601      0.2134
      5  C5        54.9730  -13.5190   68.1180 C.3   601  NAG601      0.1809
      6  C6        54.6710  -14.6110   69.1260 C.3   601  NAG601      0.2141
      7  C7        56.9850   -8.5820   67.0400 C.2   601  NAG601      0.2420
      8  C8        57.0830   -7.4970   66.0300 C.3   601  NAG601      0.0964
      9  N2        56.3710   -9.7230   66.6110 N.am  601  NAG601     -0.2019
     10  O3        58.0820  -12.0430   66.5100 O.3   601  NAG601     -0.2184
     11  O4        56.9610  -14.5680   67.1630 O.3   601  NAG601     -0.2176
     12  O5        54.5060  -12.2570   68.6100 O.3   601  NAG601     -0.3489
     13  O6        53.3650  -14.5880   69.6250 O.3   601  NAG601     -0.2176
     14  O7        57.4070   -8.4580   68.1110 O.2   601  NAG601     -0.2733
@<TRIPOS>BOND
     1     8     7    1
     2    10     3    1
     3     9     7   am
     4     9     2    1
     5     3     2    1
     6     3     4    1
     7     7    14    2
     8    11     4    1
     9     2     1    1
    10     1    12    1
    11     4     5    1
    12     5    12    1
    13     5     6    1
    14     6    13    1
