@<TRIPOS>MOLECULE
1gan_GAL_A_1.pdb
 11 11 0 0 0
SMALL
GASTEIGER

@<TRIPOS>ATOM
      1  C1        44.2410   34.3720   92.3440 C.3   136  GAL136      0.1777
      2  C2        45.4270   33.7300   91.6080 C.3   136  GAL136      0.2141
      3  C3        44.9630   32.5670   90.7260 C.3   136  GAL136      0.2173
      4  C4        44.1900   31.5710   91.5720 C.3   136  GAL136      0.2142
      5  C5        43.0420   32.2890   92.2840 C.3   136  GAL136      0.1810
      6  C6        42.2540   31.3930   93.1810 C.3   136  GAL136      0.2141
      7  O2        46.1080   34.6950   90.8250 O.3   136  GAL136     -0.2176
      8  O3        46.0870   31.9070   90.1730 O.3   136  GAL136     -0.2175
      9  O4        45.0690   30.9810   92.5210 O.3   136  GAL136     -0.2176
     10  O5        43.5460   33.3680   93.1040 O.3   136  GAL136     -0.3481
     11  O6        41.1430   32.0950   93.7000 O.3   136  GAL136     -0.2176
@<TRIPOS>BOND
     1     8     3    1
     2     3     4    1
     3     3     2    1
     4     7     2    1
     5     4     5    1
     6     4     9    1
     7     2     1    1
     8     5    10    1
     9     5     6    1
    10     1    10    1
    11     6    11    1
