@<TRIPOS>MOLECULE
1gar_U89_A_1.pdb
 48 49 0 0 0
SMALL
GASTEIGER

@<TRIPOS>ATOM
      1  N         50.7900    2.4340  -12.2400 N.am  213  U89213     -0.1918
      2  CA        51.9970    1.8220  -12.8110 C.3   213  U89213      0.1986
      3  CB        51.7570    0.3080  -12.7750 C.3   213  U89213      0.0451
      4  CG        51.8850   -0.0440  -11.3210 C.3   213  U89213      0.1164
      5  CD        51.6320   -1.4890  -11.0180 C.2   213  U89213      0.3649
      6  OE1       50.4620   -1.8520  -10.9900 O.co2 213  U89213     -0.2457
      7  OE2       52.5840   -2.2340  -10.7630 O.co2 213  U89213     -0.2457
      8  C         52.5050    2.3010  -14.1960 C.2   213  U89213      0.3842
      9  OT1       52.6710    3.5180  -14.3420 O.co2 213  U89213     -0.2437
     10  OT2       52.7870    1.5120  -15.1190 O.co2 213  U89213     -0.2437
     11  C1        49.6120   12.0610   -4.0070 C.3   213  U89213      0.1538
     12  C2        48.0770   12.0260   -3.9520 C.3   213  U89213      0.0345
     13  C3        47.4720   12.8230   -5.0800 C.3   213  U89213      0.0260
     14  C4        47.6320   12.0900   -6.4010 C.3   213  U89213      0.1153
     15  N5        46.8850   10.8430   -6.4250 N.am  213  U89213     -0.2047
     16  C6        46.5720   10.2380   -7.5760 C.2   213  U89213      0.2524
     17  O6        46.8360   10.7430   -8.6710 O.2   213  U89213     -0.2724
     18  C7        45.8490    8.9010   -7.5170 C.3   213  U89213      0.1446
     19  S         47.0590    7.5730   -7.5910 S.3   213  U89213     -0.1208
     20  C8        46.8540    7.0820   -9.3210 C.3   213  U89213      0.1434
     21  C9        45.5940    6.3190   -9.7940 C.2   213  U89213      0.2403
     22  O9        44.5840    6.9980  -10.0500 O.2   213  U89213     -0.2736
     23  N10       45.5890    4.9790  -10.0710 N.am  213  U89213     -0.2579
     24  C11       44.3220    4.2550  -10.2850 C.3   213  U89213      0.0983
     25  C12       43.3810    4.2990   -9.0680 C.3   213  U89213      0.0235
     26  C13       43.5480    3.3080   -7.9030 C.3   213  U89213      0.0282
     27  C14       43.2250    1.8410   -8.1970 C.3   213  U89213      0.1895
     28  C15       41.9510    1.4720   -8.6470 C.1   213  U89213      0.1990
     29  O15       40.9940    2.2330   -8.8170 O.2   213  U89213     -0.2129
     30  N16       41.8130    0.1090   -8.9020 N.2   213  U89213     -0.2539
     31  C17       42.8430   -0.7910   -8.7360 C.1   213  U89213      0.2525
     32  N18       42.6310   -2.0710   -9.0150 N.pl3 213  U89213     -0.0226
     33  N19       44.0290   -0.3880   -8.2860 N.2   213  U89213     -0.3102
     34  C20       44.1920    0.9090   -7.9930 C.2   213  U89213      0.2263
     35  N21       45.3770    1.2690   -7.5220 N.pl3 213  U89213     -0.0958
     36  C22       46.6040    4.3540  -10.7300 C.ar  213  U89213      0.0538
     37  C23       47.3400    4.9970  -11.6590 C.ar  213  U89213      0.0150
     38  C24       48.3380    4.3660  -12.3090 C.ar  213  U89213      0.0058
     39  C25       48.6130    3.0830  -12.0410 C.ar  213  U89213      0.0551
     40  C26       47.8990    2.4350  -11.1110 C.ar  213  U89213      0.0058
     41  C27       46.8970    3.0640  -10.4560 C.ar  213  U89213      0.0150
     42  C28       49.5680    2.4140  -12.8040 C.2   213  U89213      0.2652
     43  O28       49.2690    1.8740  -13.8850 O.2   213  U89213     -0.2684
     44  OP4       50.1590   13.2090   -3.3470 O.3   213  U89213     -0.2703
     45  P         50.6640   13.1070   -1.8350 P.3   213  U89213      0.5326
     46  OP1       51.7400   11.9150   -1.8660 O.2   213  U89213     -0.2224
     47  OP2       49.5270   12.7230   -0.9690 O.3   213  U89213     -0.1145
     48  OP3       51.3900   14.3420   -1.4820 O.3   213  U89213     -0.1145
@<TRIPOS>BOND
     1    10     8   ar
     2     9     8   ar
     3     8     2    1
     4    43    42    2
     5     2     3    1
     6     2     1    1
     7    42     1   am
     8    42    39    1
     9     3     4    1
    10    38    39   ar
    11    38    37   ar
    12    39    40   ar
    13    37    36   ar
    14     4     5    1
    15    40    41   ar
    16     5     6   ar
    17     5     7   ar
    18    36    41   ar
    19    36    23    1
    20    24    23    1
    21    24    25    1
    22    23    21   am
    23    22    21    2
    24    21    20    1
    25    20    19    1
    26    25    26    1
    27    32    31    1
    28    30    31    2
    29    30    28    2
    30    29    28    2
    31    31    33    2
    32    17    16    2
    33    28    27    1
    34    33    34    2
    35    27    34    1
    36    27    26    1
    37    34    35    1
    38    19    18    1
    39    16    18    1
    40    16    15   am
    41    15    14    1
    42    14    13    1
    43    13    12    1
    44    11    12    1
    45    11    44    1
    46    44    45    1
    47    46    45    2
    48    45    48    1
    49    45    47    1
