@<TRIPOS>MOLECULE
1gax_VAA_A_1.pdb
 30 32 0 0 0
SMALL
GASTEIGER

@<TRIPOS>ATOM
      1  N         87.2650   34.9220   23.5740 N.3   990  VAA990     -0.1230
      2  CA        88.3160   35.5730   24.4170 C.3   990  VAA990      0.1709
      3  CB        89.7910   35.2990   23.8420 C.3   990  VAA990      0.0266
      4  CG1       90.0530   35.9460   22.4320 C.3   990  VAA990      0.0020
      5  CG2       90.0290   33.8480   23.7130 C.3   990  VAA990      0.0020
      6  C         88.1580   37.0910   24.5210 C.2   990  VAA990      0.2809
      7  O         89.1230   37.7690   24.9560 O.2   990  VAA990     -0.2701
      8  S         86.7410   39.3470   24.2210 S.O2  990  VAA990      0.1490
      9  O1S       85.3470   39.7610   23.7780 O.2   990  VAA990     -0.1350
     10  O2S       87.0480   39.8770   25.5440 O.2   990  VAA990     -0.1350
     11  N3S       86.9450   37.6210   24.1250 N.am  990  VAA990     -0.0456
     12  N5'       87.7240   40.1880   23.1390 N.3   990  VAA990     -0.0594
     13  C5'       88.8290   40.4710   23.7840 C.3   990  VAA990      0.1492
     14  C4'       89.7970   40.9040   22.8590 C.3   990  VAA990      0.1716
     15  O4'       89.5560   42.2790   22.6670 O.3   990  VAA990     -0.3146
     16  C1'       90.5590   43.0370   23.4420 C.3   990  VAA990      0.3186
     17  N9        89.8830   43.9850   24.3260 N.pl3 990  VAA990     -0.1439
     18  C4        90.3270   45.3390   24.5150 C.2   990  VAA990      0.3518
     19  N3        91.4290   45.9670   23.9290 N.2   990  VAA990     -0.0055
     20  C2        91.5550   47.2580   24.3290 C.3   990  VAA990      0.5254
     21  N1        90.7520   47.9310   25.1880 N.2   990  VAA990      0.0021
     22  C6        89.6490   47.2690   25.7600 C.2   990  VAA990      0.4393
     23  N6        88.8510   47.9500   26.6180 N.pl3 990  VAA990      0.2180
     24  C5        89.4010   45.8960   25.4220 C.2   990  VAA990      0.2526
     25  N7        88.4340   44.9570   25.7880 N.2   990  VAA990     -0.2095
     26  C8        88.7560   43.9060   25.1430 C.3   990  VAA990      0.3377
     27  C2'       91.4140   41.9800   24.1580 C.3   990  VAA990      0.2569
     28  O2'       92.7820   42.4600   24.1560 O.3   990  VAA990     -0.2130
     29  C3'       91.1730   40.7610   23.3590 C.3   990  VAA990      0.2174
     30  O3'       92.0070   40.6660   22.1860 O.3   990  VAA990     -0.2175
@<TRIPOS>BOND
     1    30    29    1
     2     4     3    1
     3    15    14    1
     4    15    16    1
     5    14    29    1
     6    14    13    1
     7    12    13    1
     8    12     8    1
     9    29    27    1
    10    16    27    1
    11    16    17    1
    12     1     2    1
    13     5     3    1
    14     9     8    2
    15     3     2    1
    16    19    20    1
    17    19    18    2
    18    11     8    1
    19    11     6   am
    20    28    27    1
    21     8    10    2
    22    17    18    1
    23    17    26    1
    24    20    21    1
    25     2     6    1
    26    18    24    1
    27     6     7    2
    28    26    25    1
    29    21    22    2
    30    24    22    1
    31    24    25    2
    32    22    23    1
