@<TRIPOS>MOLECULE
1gbb_III_P_1.pdb
 23 23 0 0 0
SMALL
GASTEIGER

@<TRIPOS>ATOM
      1  N         14.3900   41.9950   18.2560 N.3     4  ALA4        0.0000
      2  CA        14.8800   40.7600   17.6570 C.3     4  ALA4        0.0000
      3  C         13.9840   39.6320   18.1640 C.2     4  ALA4        0.0000
      4  O         13.4840   39.7270   19.2840 O.2     4  ALA4        0.0000
      5  CB        16.3250   40.4300   18.0770 C.3     4  ALA4        0.0000
      6  N         13.7240   38.5990   17.3830 N.am    3  ALA3        0.0000
      7  CA        12.8740   37.4990   17.8190 C.3     3  ALA3        0.0000
      8  C         13.6330   36.2260   17.4520 C.2     3  ALA3        0.0000
      9  O         14.5190   36.3340   16.5900 O.2     3  ALA3        0.0000
     10  CB        11.5660   37.5370   17.0640 C.3     3  ALA3        0.0000
     11  N         13.4140   35.0460   18.0540 N.am    2  PRO2        0.0000
     12  CA        14.0970   33.8060   17.6960 C.3     2  PRO2        0.0000
     13  C         13.9050   33.4600   16.2180 C.2     2  PRO2        0.0000
     14  O         12.8540   33.7430   15.6330 O.2     2  PRO2        0.0000
     15  CB        13.4800   32.7430   18.5690 C.3     2  PRO2        0.0000
     16  CG        12.8400   33.4810   19.7150 C.3     2  PRO2        0.0000
     17  CD        12.3290   34.7440   18.9960 C.3     2  PRO2        0.0000
     18  N         14.8650   32.7440   15.6400 N.am    1  ALA1        0.0000
     19  CA        14.6770   32.2290   14.3160 C.3     1  ALA1        0.0000
     20  CB        15.4230   33.3240   13.5500 C.3     1  ALA1        0.0000
     21  B         15.0880   30.7120   14.3400 B       1  ALA1        0.0000
     22  O1        15.0120   30.2910   12.9570 O.3     1  ALA1        0.0000
     23  O2        13.9580   30.1070   14.9830 O.3     1  ALA1        0.0000
@<TRIPOS>BOND
     1    22    21    1
     2    20    19    1
     3    19    21    1
     4    19    18    1
     5    21    23    1
     6    14    13    2
     7    18    13   am
     8    13    12    1
     9     9     8    2
    10    10     7    1
    11     6     7    1
    12     6     3   am
    13     8     7    1
    14     8    11   am
    15     2     5    1
    16     2     3    1
    17     2     1    1
    18    12    11    1
    19    12    15    1
    20    11    17    1
    21     3     4    2
    22    15    16    1
    23    17    16    1
