@<TRIPOS>MOLECULE
1gbc_III_P_1.pdb
 26 26 0 0 0
SMALL
GASTEIGER

@<TRIPOS>ATOM
      1  N         14.2210   41.7930   18.2920 N.3     4  ALA4        0.0000
      2  CA        14.7570   40.6150   17.6760 C.3     4  ALA4        0.0000
      3  C         13.9020   39.4540   18.1640 C.2     4  ALA4        0.0000
      4  O         13.4570   39.4890   19.3150 O.2     4  ALA4        0.0000
      5  CB        16.2140   40.3690   18.1020 C.3     4  ALA4        0.0000
      6  N         13.6370   38.4610   17.3350 N.am    3  ALA3        0.0000
      7  CA        12.8010   37.3310   17.7140 C.3     3  ALA3        0.0000
      8  C         13.6100   36.0900   17.3810 C.2     3  ALA3        0.0000
      9  O         14.4980   36.2180   16.5280 O.2     3  ALA3        0.0000
     10  CB        11.5460   37.2870   16.8730 C.3     3  ALA3        0.0000
     11  N         13.4040   34.9330   18.0390 N.am    2  PRO2        0.0000
     12  CA        14.1180   33.6960   17.7370 C.3     2  PRO2        0.0000
     13  C         13.8310   33.3030   16.2850 C.2     2  PRO2        0.0000
     14  O         12.7200   33.5520   15.7900 O.2     2  PRO2        0.0000
     15  CB        13.5730   32.6720   18.7040 C.3     2  PRO2        0.0000
     16  CG        12.8060   33.4450   19.7450 C.3     2  PRO2        0.0000
     17  CD        12.2910   34.6280   18.9390 C.3     2  PRO2        0.0000
     18  CA        14.5520   32.1600   14.2770 C.3     1  LEU1        0.0000
     19  CB        15.4110   33.0150   13.3390 C.3     1  LEU1        0.0000
     20  CG        15.4410   34.5320   13.3020 C.3     1  LEU1        0.0000
     21  CD1       16.4400   35.0050   12.2760 C.3     1  LEU1        0.0000
     22  CD2       14.1070   35.0570   12.8990 C.3     1  LEU1        0.0000
     23  N         14.7930   32.6860   15.6040 N.am    1  LEU1        0.0000
     24  B         14.8730   30.6090   14.3160 B       1  LEU1        0.0000
     25  O1        14.8840   30.1520   12.9370 O.3     1  LEU1        0.0000
     26  O2        13.6460   30.1310   14.8290 O.3     1  LEU1        0.0000
@<TRIPOS>BOND
     1    21    20    1
     2    22    20    1
     3    25    24    1
     4    20    19    1
     5    19    18    1
     6    18    24    1
     7    18    23    1
     8    24    26    1
     9    23    13   am
    10    14    13    2
    11    13    12    1
    12     9     8    2
    13    10     7    1
    14     6     7    1
    15     6     3   am
    16     8     7    1
    17     8    11   am
    18     2     5    1
    19     2     3    1
    20     2     1    1
    21    12    11    1
    22    12    15    1
    23    11    17    1
    24     3     4    2
    25    15    16    1
    26    17    16    1
