@<TRIPOS>MOLECULE
1gbd_III_P_1.pdb
 29 30 0 0 0
SMALL
GASTEIGER

@<TRIPOS>ATOM
      1  N         13.9670   41.8480   18.3390 N.3     4  ALA4        0.0000
      2  CA        14.6450   40.6980   17.7690 C.3     4  ALA4        0.0000
      3  C         13.7570   39.5490   18.2040 C.2     4  ALA4        0.0000
      4  O         13.1460   39.6700   19.2690 O.2     4  ALA4        0.0000
      5  CB        16.0390   40.4740   18.3600 C.3     4  ALA4        0.0000
      6  N         13.6290   38.5130   17.3960 N.am    3  ALA3        0.0000
      7  CA        12.7700   37.3850   17.7130 C.3     3  ALA3        0.0000
      8  C         13.5670   36.1280   17.3860 C.2     3  ALA3        0.0000
      9  O         14.4410   36.2350   16.5110 O.2     3  ALA3        0.0000
     10  CB        11.5430   37.4590   16.8460 C.3     3  ALA3        0.0000
     11  N         13.3780   34.9620   18.0520 N.am    2  PRO2        0.0000
     12  CA        14.1030   33.7110   17.7900 C.3     2  PRO2        0.0000
     13  C         13.8880   33.2350   16.3510 C.2     2  PRO2        0.0000
     14  O         12.7930   33.4020   15.7940 O.2     2  PRO2        0.0000
     15  CB        13.5600   32.7120   18.7820 C.3     2  PRO2        0.0000
     16  CG        12.8640   33.5290   19.8160 C.3     2  PRO2        0.0000
     17  CD        12.2920   34.6830   18.9880 C.3     2  PRO2        0.0000
     18  N         14.9090   32.6290   15.7460 N.am    1  PHE1        0.0000
     19  CA        14.8650   32.1240   14.3940 C.3     1  PHE1        0.0000
     20  CB        15.9940   32.8250   13.6080 C.3     1  PHE1        0.0000
     21  CG        15.6390   34.2140   13.1380 C.ar    1  PHE1        0.0000
     22  CD1       16.3970   34.7600   12.1200 C.ar    1  PHE1        0.0000
     23  CD2       14.5790   34.9440   13.6910 C.ar    1  PHE1        0.0000
     24  CE1       16.0840   36.0410   11.6510 C.ar    1  PHE1        0.0000
     25  CE2       14.2700   36.2160   13.2260 C.ar    1  PHE1        0.0000
     26  CZ        15.0250   36.7680   12.1970 C.ar    1  PHE1        0.0000
     27  B         14.9890   30.5690   14.3800 B       1  PHE1        0.0000
     28  O1        14.8180   30.1570   13.0120 O.3     1  PHE1        0.0000
     29  O2        13.8040   30.0950   14.9990 O.3     1  PHE1        0.0000
@<TRIPOS>BOND
     1    24    22   ar
     2    24    26   ar
     3    22    21   ar
     4    26    25   ar
     5    28    27    1
     6    21    20    1
     7    21    23   ar
     8    25    23   ar
     9    20    19    1
    10    27    19    1
    11    27    29    1
    12    19    18    1
    13    18    13   am
    14    14    13    2
    15    13    12    1
    16     9     8    2
    17    10     7    1
    18     8     7    1
    19     8    11   am
    20     6     7    1
    21     6     3   am
    22     2     3    1
    23     2     1    1
    24     2     5    1
    25    12    11    1
    26    12    15    1
    27    11    17    1
    28     3     4    2
    29    15    16    1
    30    17    16    1
