@<TRIPOS>MOLECULE
1gbf_III_P_1.pdb
 23 23 0 0 0
SMALL
GASTEIGER

@<TRIPOS>ATOM
      1  N         13.8440   41.8450   18.8290 N.3     4  ALA4        0.0000
      2  CA        14.4690   40.7040   18.1900 C.3     4  ALA4        0.0000
      3  C         13.6120   39.5090   18.5310 C.2     4  ALA4        0.0000
      4  O         13.0510   39.5020   19.6290 O.2     4  ALA4        0.0000
      5  CB        15.8600   40.3790   18.7300 C.3     4  ALA4        0.0000
      6  N         13.5140   38.5200   17.6580 N.am    3  ALA3        0.0000
      7  CA        12.7290   37.3370   17.9440 C.3     3  ALA3        0.0000
      8  C         13.5380   36.1210   17.5270 C.2     3  ALA3        0.0000
      9  O         14.4250   36.3050   16.6930 O.2     3  ALA3        0.0000
     10  CB        11.4660   37.4250   17.1520 C.3     3  ALA3        0.0000
     11  N         13.3780   34.9010   18.0680 N.am    2  PRO2        0.0000
     12  CA        14.0850   33.6980   17.6130 C.3     2  PRO2        0.0000
     13  C         13.8470   33.3640   16.1300 C.2     2  PRO2        0.0000
     14  O         12.7430   33.6460   15.6350 O.2     2  PRO2        0.0000
     15  CB        13.5670   32.6070   18.5190 C.3     2  PRO2        0.0000
     16  CG        12.8930   33.2920   19.6740 C.3     2  PRO2        0.0000
     17  CD        12.3270   34.5420   19.0260 C.3     2  PRO2        0.0000
     18  N         14.8320   32.7130   15.4760 N.am    1  ALA1        0.0000
     19  CA        14.8040   32.2150   14.1100 C.3     1  ALA1        0.0000
     20  CB        15.9440   32.9360   13.3530 C.3     1  ALA1        0.0000
     21  B         14.9830   30.5960   14.1740 B       1  ALA1        0.0000
     22  O1        14.8440   30.0840   12.8410 O.3     1  ALA1        0.0000
     23  O2        13.8790   30.0840   14.9160 O.3     1  ALA1        0.0000
@<TRIPOS>BOND
     1    22    21    1
     2    20    19    1
     3    19    21    1
     4    19    18    1
     5    21    23    1
     6    18    13   am
     7    14    13    2
     8    13    12    1
     9     9     8    2
    10    10     7    1
    11     8     7    1
    12     8    11   am
    13    12    11    1
    14    12    15    1
    15     6     7    1
    16     6     3   am
    17    11    17    1
    18     2     3    1
    19     2     5    1
    20     2     1    1
    21    15    16    1
    22     3     4    2
    23    17    16    1
