@<TRIPOS>MOLECULE
1gbh_III_P_1.pdb
 26 26 0 0 0
SMALL
GASTEIGER

@<TRIPOS>ATOM
      1  N         13.5060   41.8040   18.6660 N.3     4  ALA4        0.0000
      2  CA        14.3240   40.7880   18.0570 C.3     4  ALA4        0.0000
      3  C         13.5570   39.5370   18.4310 C.2     4  ALA4        0.0000
      4  O         12.9680   39.5210   19.5170 O.2     4  ALA4        0.0000
      5  CB        15.7090   40.6950   18.6850 C.3     4  ALA4        0.0000
      6  N         13.5390   38.5400   17.5660 N.am    3  ALA3        0.0000
      7  CA        12.7840   37.3350   17.8300 C.3     3  ALA3        0.0000
      8  C         13.6990   36.1540   17.5160 C.2     3  ALA3        0.0000
      9  O         14.6050   36.3370   16.6930 O.2     3  ALA3        0.0000
     10  CB        11.5740   37.3310   16.9270 C.3     3  ALA3        0.0000
     11  N         13.5700   34.9860   18.1820 N.am    2  PRO2        0.0000
     12  CA        14.2010   33.7200   17.8100 C.3     2  PRO2        0.0000
     13  C         13.9820   33.3690   16.3450 C.2     2  PRO2        0.0000
     14  O         12.9890   33.7800   15.7170 O.2     2  PRO2        0.0000
     15  CB        13.5760   32.7080   18.7290 C.3     2  PRO2        0.0000
     16  CG        13.1890   33.5010   19.9360 C.3     2  PRO2        0.0000
     17  CD        12.5930   34.7150   19.2290 C.3     2  PRO2        0.0000
     18  CA        15.0360   32.0970   14.5170 C.3     1  LEU1        0.0000
     19  CB        16.3960   32.6410   13.9540 C.3     1  LEU1        0.0000
     20  CG        16.4240   33.9420   13.2340 C.3     1  LEU1        0.0000
     21  CD1       17.4010   33.7810   12.0890 C.3     1  LEU1        0.0000
     22  CD2       15.0440   34.2710   12.6910 C.3     1  LEU1        0.0000
     23  N         14.9510   32.6010   15.8630 N.am    1  LEU1        0.0000
     24  B         14.9110   30.5230   14.4830 B       1  LEU1        0.0000
     25  O1        14.7600   30.1390   13.0940 O.3     1  LEU1        0.0000
     26  O2        13.6120   30.2350   15.0330 O.3     1  LEU1        0.0000
@<TRIPOS>BOND
     1    21    20    1
     2    22    20    1
     3    25    24    1
     4    20    19    1
     5    19    18    1
     6    24    18    1
     7    24    26    1
     8    18    23    1
     9    14    13    2
    10    23    13   am
    11    13    12    1
    12     9     8    2
    13    10     7    1
    14     8     7    1
    15     8    11   am
    16     6     7    1
    17     6     3   am
    18    12    11    1
    19    12    15    1
    20     2     3    1
    21     2     1    1
    22     2     5    1
    23    11    17    1
    24     3     4    2
    25    15    16    1
    26    17    16    1
