@<TRIPOS>MOLECULE
1gbi_III_P_1.pdb
 28 29 0 0 0
SMALL
GASTEIGER

@<TRIPOS>ATOM
      1  N         13.9660   42.0360   18.6310 N.3     4  ALA4        0.0000
      2  CA        14.7460   40.8860   18.2360 C.3     4  ALA4        0.0000
      3  C         13.8520   39.7020   18.5640 C.2     4  ALA4        0.0000
      4  O         13.1580   39.7690   19.5840 O.2     4  ALA4        0.0000
      5  CB        16.0060   40.7490   19.0570 C.3     4  ALA4        0.0000
      6  N         13.8560   38.6580   17.7530 N.am    3  ALA3        0.0000
      7  CA        12.9950   37.5130   17.9850 C.3     3  ALA3        0.0000
      8  C         13.7500   36.2260   17.6800 C.2     3  ALA3        0.0000
      9  O         14.5210   36.2440   16.7000 O.2     3  ALA3        0.0000
     10  CB        11.8070   37.6380   17.0820 C.3     3  ALA3        0.0000
     11  N         13.5920   35.1350   18.4710 N.am    2  PRO2        0.0000
     12  CA        14.3730   33.9020   18.3750 C.3     2  PRO2        0.0000
     13  C         13.8670   32.9210   17.3430 C.2     2  PRO2        0.0000
     14  O         12.7130   32.5040   17.5140 O.2     2  PRO2        0.0000
     15  CB        14.3240   33.3300   19.7790 C.3     2  PRO2        0.0000
     16  CG        12.9550   33.7040   20.3220 C.3     2  PRO2        0.0000
     17  CD        12.5750   34.9860   19.5230 C.3     2  PRO2        0.0000
     18  N         14.6290   32.4560   16.3300 N.am    1  PHE1        0.0000
     19  CA        14.0890   31.4530   15.4130 C.3     1  PHE1        0.0000
     20  CB        13.7180   31.9340   14.0630 C.3     1  PHE1        0.0000
     21  CG        12.9000   33.2050   14.1270 C.ar    1  PHE1        0.0000
     22  CD1       13.5420   34.4390   14.0700 C.ar    1  PHE1        0.0000
     23  CD2       11.5170   33.1330   14.1910 C.ar    1  PHE1        0.0000
     24  CE1       12.7940   35.6070   14.0550 C.ar    1  PHE1        0.0000
     25  CE2       10.7660   34.3000   14.1780 C.ar    1  PHE1        0.0000
     26  CZ        11.4030   35.5320   14.1110 C.ar    1  PHE1        0.0000
     27  B         14.9710   30.3050   14.9000 B       1  PHE1        0.0000
     28  O1        14.0970   29.3130   15.3350 O.3     1  PHE1        0.0000
@<TRIPOS>BOND
     1    24    22   ar
     2    24    26   ar
     3    20    21    1
     4    20    19    1
     5    22    21   ar
     6    26    25   ar
     7    21    23   ar
     8    25    23   ar
     9    27    28    1
    10    27    19    1
    11    19    18    1
    12    18    13   am
    13     9     8    2
    14    10     7    1
    15    13    14    2
    16    13    12    1
    17     8     7    1
    18     8    11   am
    19     6     7    1
    20     6     3   am
    21     2     3    1
    22     2     1    1
    23     2     5    1
    24    12    11    1
    25    12    15    1
    26    11    17    1
    27     3     4    2
    28    17    16    1
    29    15    16    1
