@<TRIPOS>MOLECULE
1gbk_III_P_1.pdb
 23 23 0 0 0
SMALL
GASTEIGER

@<TRIPOS>ATOM
      1  N         13.5870   42.0320   18.7050 N.3     4  ALA4        0.0000
      2  CA        14.3780   40.9790   18.0990 C.3     4  ALA4        0.0000
      3  C         13.5870   39.7240   18.4010 C.2     4  ALA4        0.0000
      4  O         12.9700   39.6910   19.4680 O.2     4  ALA4        0.0000
      5  CB        15.7400   40.8190   18.7510 C.3     4  ALA4        0.0000
      6  N         13.6000   38.7300   17.5310 N.am    3  ALA3        0.0000
      7  CA        12.8240   37.5150   17.7290 C.3     3  ALA3        0.0000
      8  C         13.6870   36.2910   17.4350 C.2     3  ALA3        0.0000
      9  O         14.6050   36.4560   16.6320 O.2     3  ALA3        0.0000
     10  CB        11.6320   37.5240   16.7820 C.3     3  ALA3        0.0000
     11  N         13.5010   35.1040   18.0360 N.am    2  PRO2        0.0000
     12  CA        14.1620   33.8590   17.6340 C.3     2  PRO2        0.0000
     13  C         14.0150   33.5560   16.1300 C.2     2  PRO2        0.0000
     14  O         12.9370   33.7840   15.5610 O.2     2  PRO2        0.0000
     15  CB        13.5030   32.8130   18.4980 C.3     2  PRO2        0.0000
     16  CG        12.8910   33.5350   19.6530 C.3     2  PRO2        0.0000
     17  CD        12.4010   34.7960   18.9570 C.3     2  PRO2        0.0000
     18  N         15.0820   33.0400   15.5200 N.am    1  ALA1        0.0000
     19  CA        15.1480   32.6570   14.1230 C.3     1  ALA1        0.0000
     20  CB        16.3690   33.4230   13.5570 C.3     1  ALA1        0.0000
     21  B         15.2350   31.0460   14.1770 B       1  ALA1        0.0000
     22  O1        15.0480   30.6050   12.8140 O.3     1  ALA1        0.0000
     23  O2        14.0560   30.6460   14.8370 O.3     1  ALA1        0.0000
@<TRIPOS>BOND
     1    22    21    1
     2    20    19    1
     3    19    21    1
     4    19    18    1
     5    21    23    1
     6    18    13   am
     7    14    13    2
     8    13    12    1
     9     9     8    2
    10    10     7    1
    11     8     7    1
    12     8    11   am
    13     6     7    1
    14     6     3   am
    15    12    11    1
    16    12    15    1
    17    11    17    1
    18     2     3    1
    19     2     1    1
    20     2     5    1
    21     3     4    2
    22    15    16    1
    23    17    16    1
