@<TRIPOS>MOLECULE
1gbl_III_P_1.pdb
 26 26 0 0 0
SMALL
GASTEIGER

@<TRIPOS>ATOM
      1  N         13.5770   41.7850   18.3460 N.3     4  ALA4        0.0000
      2  CA        14.4360   40.7090   17.8800 C.3     4  ALA4        0.0000
      3  C         13.6370   39.4760   18.2500 C.2     4  ALA4        0.0000
      4  O         12.9990   39.4940   19.3000 O.2     4  ALA4        0.0000
      5  CB        15.7400   40.6500   18.6350 C.3     4  ALA4        0.0000
      6  N         13.5720   38.4420   17.4440 N.am    3  ALA3        0.0000
      7  CA        12.7620   37.2740   17.7540 C.3     3  ALA3        0.0000
      8  C         13.6400   36.0820   17.4360 C.2     3  ALA3        0.0000
      9  O         14.5810   36.2890   16.6550 O.2     3  ALA3        0.0000
     10  CB        11.5530   37.1950   16.8540 C.3     3  ALA3        0.0000
     11  N         13.4280   34.8940   18.0450 N.am    2  PRO2        0.0000
     12  CA        14.1010   33.6370   17.7110 C.3     2  PRO2        0.0000
     13  C         13.8180   33.2870   16.2610 C.2     2  PRO2        0.0000
     14  O         12.7010   33.5640   15.8270 O.2     2  PRO2        0.0000
     15  CB        13.5120   32.6170   18.6420 C.3     2  PRO2        0.0000
     16  CG        12.8280   33.3820   19.7400 C.3     2  PRO2        0.0000
     17  CD        12.3240   34.6030   18.9850 C.3     2  PRO2        0.0000
     18  CA        14.6250   32.2400   14.1510 C.3     1  LEU1        0.0000
     19  CB        15.6100   33.0910   13.2970 C.3     1  LEU1        0.0000
     20  CG        15.5580   34.6290   13.3730 C.3     1  LEU1        0.0000
     21  CD1       16.6010   35.2080   12.4400 C.3     1  LEU1        0.0000
     22  CD2       14.2090   35.1600   12.9300 C.3     1  LEU1        0.0000
     23  N         14.7770   32.7030   15.5310 N.am    1  LEU1        0.0000
     24  B         14.9210   30.6550   14.1940 B       1  LEU1        0.0000
     25  O1        14.8520   30.1780   12.8320 O.3     1  LEU1        0.0000
     26  O2        13.7750   30.1470   14.8620 O.3     1  LEU1        0.0000
@<TRIPOS>BOND
     1    21    20    1
     2    25    24    1
     3    22    20    1
     4    19    20    1
     5    19    18    1
     6    18    24    1
     7    18    23    1
     8    24    26    1
     9    23    13   am
    10    14    13    2
    11    13    12    1
    12     9     8    2
    13    10     7    1
    14     8     7    1
    15     8    11   am
    16     6     7    1
    17     6     3   am
    18    12    11    1
    19    12    15    1
    20     2     3    1
    21     2     1    1
    22     2     5    1
    23    11    17    1
    24     3     4    2
    25    15    16    1
    26    17    16    1
