@<TRIPOS>MOLECULE
1gbm_III_P_1.pdb
 29 30 0 0 0
SMALL
GASTEIGER

@<TRIPOS>ATOM
      1  N         13.6460   41.7510   19.1470 N.3     4  ALA4        0.0000
      2  CA        14.3120   40.6770   18.4450 C.3     4  ALA4        0.0000
      3  C         13.4150   39.4720   18.5980 C.2     4  ALA4        0.0000
      4  O         12.6600   39.4580   19.5720 O.2     4  ALA4        0.0000
      5  CB        15.6360   40.3440   19.0870 C.3     4  ALA4        0.0000
      6  N         13.4390   38.4920   17.7210 N.am    3  ALA3        0.0000
      7  CA        12.6540   37.2730   17.8920 C.3     3  ALA3        0.0000
      8  C         13.5820   36.1240   17.5170 C.2     3  ALA3        0.0000
      9  O         14.5230   36.3800   16.7590 O.2     3  ALA3        0.0000
     10  CB        11.4810   37.2050   16.9480 C.3     3  ALA3        0.0000
     11  N         13.4290   34.9020   18.0540 N.am    2  PRO2        0.0000
     12  CA        14.1610   33.7030   17.6540 C.3     2  PRO2        0.0000
     13  C         13.9600   33.3770   16.1770 C.2     2  PRO2        0.0000
     14  O         12.8690   33.6950   15.7030 O.2     2  PRO2        0.0000
     15  CB        13.6250   32.6130   18.5250 C.3     2  PRO2        0.0000
     16  CG        12.9780   33.3300   19.6610 C.3     2  PRO2        0.0000
     17  CD        12.3450   34.5230   18.9510 C.3     2  PRO2        0.0000
     18  N         14.9250   32.7630   15.4550 N.am    1  PHE1        0.0000
     19  CA        14.8340   32.3200   14.0610 C.3     1  PHE1        0.0000
     20  CB        15.9660   33.0160   13.2060 C.3     1  PHE1        0.0000
     21  CG        15.9160   34.5320   12.9360 C.ar    1  PHE1        0.0000
     22  CD1       17.0060   35.1480   12.3060 C.ar    1  PHE1        0.0000
     23  CD2       14.8110   35.3220   13.2840 C.ar    1  PHE1        0.0000
     24  CE1       16.9890   36.5290   12.0340 C.ar    1  PHE1        0.0000
     25  CE2       14.7960   36.6890   13.0110 C.ar    1  PHE1        0.0000
     26  CZ        15.8880   37.2980   12.3850 C.ar    1  PHE1        0.0000
     27  B         15.0580   30.7070   14.1940 B       1  PHE1        0.0000
     28  O1        14.8870   30.1720   12.8630 O.3     1  PHE1        0.0000
     29  O2        13.9240   30.2410   14.9250 O.3     1  PHE1        0.0000
@<TRIPOS>BOND
     1    24    22   ar
     2    24    26   ar
     3    22    21   ar
     4    26    25   ar
     5    28    27    1
     6    21    20    1
     7    21    23   ar
     8    25    23   ar
     9    20    19    1
    10    19    27    1
    11    19    18    1
    12    27    29    1
    13    18    13   am
    14    14    13    2
    15    13    12    1
    16     9     8    2
    17    10     7    1
    18     8     7    1
    19     8    11   am
    20    12    11    1
    21    12    15    1
    22     6     7    1
    23     6     3   am
    24    11    17    1
    25     2     3    1
    26     2     5    1
    27     2     1    1
    28    15    16    1
    29     3     4    2
    30    17    16    1
