@<TRIPOS>MOLECULE
1gbn_GBC_B_1.pdb
 10 10 0 0 0
SMALL
GASTEIGER

@<TRIPOS>ATOM
      1  C1        55.7620   25.3140    8.3550 C.ar  440  GBC440      0.0811
      2  C2        55.4820   26.1780    7.2900 C.ar  440  GBC440      0.0246
      3  C3        55.1470   25.6540    6.0440 C.ar  440  GBC440      0.0893
      4  C4        55.1220   24.2770    5.8590 C.ar  440  GBC440      0.0181
      5  C5        55.3600   23.4220    6.9320 C.ar  440  GBC440      0.0016
      6  C6        55.6810   23.9400    8.1730 C.ar  440  GBC440      0.0067
      7  C7        56.0970   25.8710    9.7290 C.2   440  GBC440      0.3878
      8  N3        54.6930   26.5520    4.9380 N.pl3 440  GBC440     -0.1281
      9  O1        56.9790   25.3020   10.4120 O.co2 440  GBC440     -0.2406
     10  O2        55.4520   26.8460   10.1820 O.co2 440  GBC440     -0.2406
@<TRIPOS>BOND
     1     8     3    1
     2     4     3   ar
     3     4     5   ar
     4     3     2   ar
     5     5     6   ar
     6     2     1   ar
     7     6     1   ar
     8     1     7    1
     9     7    10   ar
    10     7     9   ar
