@<TRIPOS>MOLECULE
1gbn_PLP_A_1.pdb
 15 15 0 0 0
SMALL
GASTEIGER

@<TRIPOS>ATOM
      1  N1        55.0310   46.1620   18.8100 N.ar  441  PLP441     -0.2452
      2  C2        55.2630   47.5070   18.8540 C.ar  441  PLP441      0.0978
      3  C2A       55.2670   48.2370   20.1960 C.3   441  PLP441      0.0555
      4  C3        55.5200   48.1960   17.7040 C.ar  441  PLP441      0.2049
      5  O3        55.5200   49.5610   17.7370 O.3   441  PLP441     -0.2857
      6  C4        55.5630   47.5310   16.4880 C.ar  441  PLP441      0.0182
      7  C4A       55.6720   48.3420   15.1300 C.3   441  PLP441      0.0342
      8  C5        55.3400   46.1690   16.4660 C.ar  441  PLP441      0.0261
      9  C6        55.0780   45.4990   17.6200 C.ar  441  PLP441      0.0965
     10  C5A       55.2500   45.4170   15.1490 C.3   441  PLP441      0.1815
     11  O4P       56.4630   44.7910   14.7430 O.3   441  PLP441     -0.2653
     12  P         56.6790   44.5990   13.1530 P.3   441  PLP441      0.5329
     13  O1P       55.7990   43.5670   12.6580 O.3   441  PLP441     -0.1145
     14  O2P       58.1660   43.9490   13.2010 O.3   441  PLP441     -0.1145
     15  O3P       56.7120   45.8910   12.4400 O.2   441  PLP441     -0.2224
@<TRIPOS>BOND
     1    15    12    2
     2    13    12    1
     3    12    14    1
     4    12    11    1
     5    11    10    1
     6     7     6    1
     7    10     8    1
     8     8     6   ar
     9     8     9   ar
    10     6     4   ar
    11     9     1   ar
    12     4     5    1
    13     4     2   ar
    14     1     2   ar
    15     2     3    1
