@<TRIPOS>MOLECULE
1gbn_GAB_A_1.pdb
 10 10 0 0 0
SMALL
GASTEIGER

@<TRIPOS>ATOM
      1  C1'       55.7690   50.1960   10.1990 C.2   440  GAB440      0.3878
      2  O1'       54.8490   49.3600   10.0380 O.co2 440  GAB440     -0.2406
      3  O2'       56.2110   50.8250    9.2210 O.co2 440  GAB440     -0.2406
      4  C1        56.0290   50.7350   11.5850 C.ar  440  GAB440      0.0811
      5  C2        56.3060   49.8680   12.6470 C.ar  440  GAB440      0.0246
      6  C3        56.4060   50.3680   13.9430 C.ar  440  GAB440      0.0893
      7  C4        56.2920   51.7400   14.1680 C.ar  440  GAB440      0.0181
      8  C5        56.0090   52.6000   13.1200 C.ar  440  GAB440      0.0016
      9  C6        55.8680   52.0980   11.8250 C.ar  440  GAB440      0.0067
     10  N3        56.5120   49.4420   15.1080 N.pl3 440  GAB440     -0.1281
@<TRIPOS>BOND
     1     3     1   ar
     2     2     1   ar
     3     1     4    1
     4     4     9   ar
     5     4     5   ar
     6     9     8   ar
     7     5     6   ar
     8     8     7   ar
     9     6     7   ar
    10     6    10    1
