@<TRIPOS>MOLECULE
1gbt_GBS_A_1.pdb
 12 12 0 0 0
SMALL
GASTEIGER

@<TRIPOS>ATOM
      1  CD        44.7730    0.3020   29.0190 C.3   704  GBS704      0.2086
      2  OD        45.4450    0.0820   30.1080 O.3   704  GBS704     -0.2152
      3  C1        44.4010   -0.9100   28.1860 C.ar  704  GBS704      0.0108
      4  C21       44.0110   -0.7260   26.8470 C.ar  704  GBS704      0.0013
      5  C22       44.4640   -2.2210   28.6830 C.ar  704  GBS704      0.0013
      6  C31       43.7310   -1.8150   26.0040 C.ar  704  GBS704      0.0369
      7  C32       44.1590   -3.2850   27.8510 C.ar  704  GBS704      0.0369
      8  C4        43.6920   -3.0930   26.5570 C.ar  704  GBS704      0.1592
      9  NE        43.3380   -4.2160   25.8170 N.pl3 704  GBS704     -0.0605
     10  CZ        43.7510   -4.4610   24.5790 C.cat 704  GBS704      0.5393
     11  NH1       44.5300   -3.6370   23.8900 N.pl3 704  GBS704      0.1358
     12  NH2       43.3590   -5.5750   23.9830 N.pl3 704  GBS704      0.1358
@<TRIPOS>BOND
     1    11    10    1
     2    12    10    1
     3    10     9    2
     4     9     8    1
     5     6     8   ar
     6     6     4   ar
     7     8     7   ar
     8     4     3   ar
     9     7     5   ar
    10     3     5   ar
    11     3     1    1
    12     1     2    1
