@<TRIPOS>MOLECULE
1gbu_HEM_A_1.pdb
 43 50 0 0 0
SMALL
GASTEIGER

@<TRIPOS>ATOM
      1 FE         18.4170   18.5150   23.7380 Fe    142  HEM142      0.0000
      2  CHA       18.7740   18.6630   20.3720 C.2   142  HEM142      0.0000
      3  CHB       21.2100   20.6570   24.0570 C.2   142  HEM142      0.0000
      4  CHC       18.7150   17.7690   27.0760 C.2   142  HEM142      0.0000
      5  CHD       16.8450   15.3590   23.3410 C.2   142  HEM142      0.0000
      6  NA        19.7460   19.4670   22.4800 N.2   142  HEM142      0.0000
      7  C1A       19.6920   19.4050   21.0770 C.2   142  HEM142      0.0000
      8  C2A       20.6390   20.3670   20.5290 C.2   142  HEM142      0.0000
      9  C3A       21.2910   20.9270   21.5270 C.2   142  HEM142      0.0000
     10  C4A       20.7600   20.3320   22.7820 C.2   142  HEM142      0.0000
     11  CMA       22.4230   21.9570   21.5120 C.3   142  HEM142      0.0000
     12  CAA       20.8400   20.6510   18.9920 C.2   142  HEM142      0.0000
     13  CBA       20.1960   21.9130   18.4430 C.2   142  HEM142      0.0000
     14  CGA       20.3190   22.1870   16.9380 C.2   142  HEM142      0.0000
     15  O1A       20.6360   21.2510   16.2210 O.co2 142  HEM142      0.0000
     16  O2A       19.9900   23.3240   16.5560 O.co2 142  HEM142      0.0000
     17  NB        19.7950   18.9920   25.2090 N.ar  142  HEM142      0.0000
     18  C1B       20.6620   20.0700   25.2010 C.ar  142  HEM142      0.0000
     19  C2B       21.1210   20.3440   26.5710 C.ar  142  HEM142      0.0000
     20  C3B       20.4360   19.5530   27.3780 C.ar  142  HEM142      0.0000
     21  C4B       19.5730   18.7100   26.5570 C.ar  142  HEM142      0.0000
     22  CMB       22.1670   21.4500   26.8550 C.3   142  HEM142      0.0000
     23  CAB       20.4670   19.4470   28.9130 C.2   142  HEM142      0.0000
     24  CBB       21.5340   19.5830   29.6790 C.2   142  HEM142      0.0000
     25  NC        17.8680   16.9250   24.9540 N.2   142  HEM142      0.0000
     26  C1C       17.9980   16.8670   26.3320 C.2   142  HEM142      0.0000
     27  C2C       17.3150   15.7030   26.8520 C.2   142  HEM142      0.0000
     28  C3C       16.8150   15.0010   25.8440 C.2   142  HEM142      0.0000
     29  C4C       17.1950   15.7660   24.6040 C.2   142  HEM142      0.0000
     30  CMC       17.1290   15.3990   28.3910 C.3   142  HEM142      0.0000
     31  CAC       16.0220   13.6930   25.7890 C.2   142  HEM142      0.0000
     32  CBC       16.2870   12.5620   26.4990 C.2   142  HEM142      0.0000
     33  ND        17.9390   17.2550   22.2260 N.ar  142  HEM142      0.0000
     34  C1D       17.2170   16.0930   22.2350 C.ar  142  HEM142      0.0000
     35  C2D       16.9620   15.6410   20.8530 C.ar  142  HEM142      0.0000
     36  C3D       17.4990   16.5560   20.0560 C.ar  142  HEM142      0.0000
     37  C4D       18.0620   17.5870   20.8430 C.ar  142  HEM142      0.0000
     38  CMD       16.3380   14.2770   20.5340 C.3   142  HEM142      0.0000
     39  CAD       17.5500   16.4370   18.4750 C.3   142  HEM142      0.0000
     40  CBD       18.7650   15.5810   17.9620 C.3   142  HEM142      0.0000
     41  CGD       18.8300   15.5580   16.4140 C.2   142  HEM142      0.0000
     42  O1D       19.9030   16.0100   15.9250 O.co2 142  HEM142      0.0000
     43  O2D       17.7160   15.2780   15.9010 O.co2 142  HEM142      0.0000
@<TRIPOS>BOND
     1    43    41   ar
     2    42    41   ar
     3    15    14   ar
     4    41    40    1
     5    16    14   ar
     6    14    13    1
     7    40    39    1
     8    13    12    2
     9    39    36    1
    10    12     8    1
    11    36    37   ar
    12    36    35   ar
    13     2    37    2
    14     2     7    1
    15     8     7    1
    16     8     9    2
    17    38    35    1
    18    37    33   ar
    19    35    34   ar
    20     7     6    2
    21    11     9    1
    22     9    10    1
    23    33    34   ar
    24    33     1    1
    25    34     5    2
    26     6    10    1
    27     6     1    1
    28    10     3    2
    29     5    29    1
    30     1    25    1
    31     1    17    1
    32     3    18    1
    33    29    25    2
    34    29    28    1
    35    25    26    1
    36    18    17   ar
    37    18    19   ar
    38    17    21   ar
    39    31    28    1
    40    31    32    2
    41    28    27    2
    42    26    27    1
    43    26     4    2
    44    21     4    1
    45    21    20   ar
    46    19    22    1
    47    19    20   ar
    48    27    30    1
    49    20    23    1
    50    23    24    2
