@<TRIPOS>MOLECULE
1gbv_HEM_A_1.pdb
 43 50 0 0 0
SMALL
GASTEIGER

@<TRIPOS>ATOM
      1 FE         18.4410   18.4310   23.7350 Fe    142  HEM142      0.0000
      2  CHA       18.5300   18.7460   20.4380 C.2   142  HEM142      0.0000
      3  CHB       20.9640   20.8540   24.0830 C.2   142  HEM142      0.0000
      4  CHC       18.4840   17.9340   27.0610 C.2   142  HEM142      0.0000
      5  CHD       16.5020   15.5100   23.3920 C.2   142  HEM142      0.0000
      6  NA        19.5550   19.5240   22.5090 N.2   142  HEM142      0.0000
      7  C1A       19.4070   19.5310   21.1420 C.2   142  HEM142      0.0000
      8  C2A       20.4040   20.4310   20.5680 C.2   142  HEM142      0.0000
      9  C3A       21.0740   21.0060   21.5520 C.2   142  HEM142      0.0000
     10  C4A       20.5410   20.4380   22.8050 C.2   142  HEM142      0.0000
     11  CMA       22.1650   22.0880   21.5100 C.3   142  HEM142      0.0000
     12  CAA       20.5290   20.6080   19.0370 C.3   142  HEM142      0.0000
     13  CBA       20.5280   22.0330   18.4760 C.3   142  HEM142      0.0000
     14  CGA       21.2750   22.0010   17.1370 C.2   142  HEM142      0.0000
     15  O1A       20.9050   21.0760   16.3520 O.co2 142  HEM142      0.0000
     16  O2A       22.3270   22.7080   17.0910 O.co2 142  HEM142      0.0000
     17  NB        19.5550   19.1850   25.2710 N.ar  142  HEM142      0.0000
     18  C1B       20.4890   20.1740   25.2400 C.ar  142  HEM142      0.0000
     19  C2B       20.9470   20.4800   26.6000 C.ar  142  HEM142      0.0000
     20  C3B       20.2800   19.6800   27.4060 C.ar  142  HEM142      0.0000
     21  C4B       19.4050   18.8570   26.6100 C.ar  142  HEM142      0.0000
     22  CMB       22.0320   21.5330   26.8940 C.3   142  HEM142      0.0000
     23  CAB       20.3510   19.4800   28.9560 C.2   142  HEM142      0.0000
     24  CBB       21.0670   20.3380   29.6860 C.2   142  HEM142      0.0000
     25  NC        17.5700   17.0590   25.0130 N.2   142  HEM142      0.0000
     26  C1C       17.7180   17.0130   26.3990 C.2   142  HEM142      0.0000
     27  C2C       17.1080   15.8410   26.9080 C.2   142  HEM142      0.0000
     28  C3C       16.5860   15.1520   25.8850 C.2   142  HEM142      0.0000
     29  C4C       16.7990   15.9390   24.6880 C.2   142  HEM142      0.0000
     30  CMC       16.9760   15.4960   28.4320 C.3   142  HEM142      0.0000
     31  CAC       15.6990   13.8960   25.8710 C.2   142  HEM142      0.0000
     32  CBC       16.0570   12.8000   26.5550 C.2   142  HEM142      0.0000
     33  ND        17.6590   17.3290   22.2350 N.ar  142  HEM142      0.0000
     34  C1D       16.8680   16.2080   22.2590 C.ar  142  HEM142      0.0000
     35  C2D       16.6240   15.7460   20.8880 C.ar  142  HEM142      0.0000
     36  C3D       17.1980   16.6540   20.0900 C.ar  142  HEM142      0.0000
     37  C4D       17.8490   17.6660   20.8910 C.ar  142  HEM142      0.0000
     38  CMD       15.8590   14.4700   20.5280 C.3   142  HEM142      0.0000
     39  CAD       17.2550   16.6310   18.5250 C.3   142  HEM142      0.0000
     40  CBD       18.2390   15.5490   17.9980 C.3   142  HEM142      0.0000
     41  CGD       18.2380   15.6420   16.4340 C.2   142  HEM142      0.0000
     42  O1D       17.2140   15.0920   15.9530 O.co2 142  HEM142      0.0000
     43  O2D       19.1620   16.3900   15.9900 O.co2 142  HEM142      0.0000
@<TRIPOS>BOND
     1    42    41   ar
     2    43    41   ar
     3    15    14   ar
     4    41    40    1
     5    16    14   ar
     6    14    13    1
     7    40    39    1
     8    13    12    1
     9    39    36    1
    10    12     8    1
    11    36    35   ar
    12    36    37   ar
    13     2    37    2
    14     2     7    1
    15    38    35    1
    16     8     7    1
    17     8     9    2
    18    35    34   ar
    19    37    33   ar
    20     7     6    2
    21    11     9    1
    22     9    10    1
    23    33    34   ar
    24    33     1    1
    25    34     5    2
    26     6    10    1
    27     6     1    1
    28    10     3    2
    29     5    29    1
    30     1    25    1
    31     1    17    1
    32     3    18    1
    33    29    25    2
    34    29    28    1
    35    25    26    1
    36    18    17   ar
    37    18    19   ar
    38    17    21   ar
    39    31    28    1
    40    31    32    2
    41    28    27    2
    42    26    27    1
    43    26     4    2
    44    19    22    1
    45    19    20   ar
    46    21     4    1
    47    21    20   ar
    48    27    30    1
    49    20    23    1
    50    23    24    2
