@<TRIPOS>MOLECULE
1gc1_FUC_G_1.pdb
 10 10 0 0 0
SMALL
GASTEIGER

@<TRIPOS>ATOM
      1  C1        42.5670   -9.2580  101.6420 C.3   893  FUC893      0.1776
      2  C2        41.1940   -9.5140  102.2740 C.3   893  FUC893      0.2141
      3  C3        41.2990  -10.1700  103.6540 C.3   893  FUC893      0.2172
      4  C4        42.5540   -9.7160  104.3780 C.3   893  FUC893      0.2116
      5  C5        43.8200  -10.0360  103.5640 C.3   893  FUC893      0.1483
      6  C6        44.9160   -8.9910  103.7070 C.3   893  FUC893      0.0349
      7  O2        40.4340  -10.3550  101.4180 O.3   893  FUC893     -0.2176
      8  O3        40.1580   -9.8150  104.4270 O.3   893  FUC893     -0.2175
      9  O4        42.4690   -8.3240  104.6420 O.3   893  FUC893     -0.2177
     10  O5        43.5190  -10.1800  102.1530 O.3   893  FUC893     -0.3508
@<TRIPOS>BOND
     1     7     2    1
     2     1    10    1
     3     1     2    1
     4    10     5    1
     5     2     3    1
     6     5     6    1
     7     5     4    1
     8     3     4    1
     9     3     8    1
    10     4     9    1
