@<TRIPOS>MOLECULE
1gc3_TRP_A_1.pdb
 15 16 0 0 0
SMALL
GASTEIGER

@<TRIPOS>ATOM
      1  N         -9.4130   -2.1080   80.3260 N.3   414  TRP414     -0.1205
      2  CA       -10.3810   -3.1820   80.5860 C.3   414  TRP414      0.1987
      3  C        -11.4250   -3.1810   81.7200 C.2   414  TRP414      0.3822
      4  O        -12.1380   -2.1640   81.8500 O.co2 414  TRP414     -0.2440
      5  CB        -9.6570   -4.5490   80.5390 C.3   414  TRP414      0.0585
      6  CG       -10.3960   -5.7180   79.8300 C.2   414  TRP414      0.0001
      7  CD1      -11.6840   -6.1390   80.0470 C.2   414  TRP414      0.0946
      8  CD2       -9.8560   -6.6080   78.8290 C.2   414  TRP414      0.0113
      9  NE1      -11.9720   -7.2240   79.2490 N.2   414  TRP414     -0.2442
     10  CE2      -10.8750   -7.5350   78.4950 C.2   414  TRP414      0.0804
     11  CE3       -8.6110   -6.7160   78.1880 C.2   414  TRP414     -0.0202
     12  CZ2      -10.6900   -8.5540   77.5470 C.2   414  TRP414      0.0148
     13  CZ3       -8.4260   -7.7390   77.2390 C.3   414  TRP414      0.0521
     14  CH2       -9.4630   -8.6400   76.9310 C.2   414  TRP414     -0.0199
     15  OXT      -11.5550   -4.2030   82.4380 O.co2 414  TRP414     -0.2440
@<TRIPOS>BOND
     1    14    13    1
     2    14    12    2
     3    13    11    1
     4    12    10    1
     5    11     8    2
     6    10     8    1
     7    10     9    2
     8     8     6    1
     9     9     7    1
    10     6     7    2
    11     6     5    1
    12     1     2    1
    13     5     2    1
    14     2     3    1
    15     3     4   ar
    16     3    15   ar
