@<TRIPOS>MOLECULE
1gc3_PLP_A_1.pdb
 15 15 0 0 0
SMALL
GASTEIGER

@<TRIPOS>ATOM
      1  N1        -9.0080    2.9630   83.1790 N.ar  413  PLP413     -0.2452
      2  C2       -10.1610    2.2460   83.0600 C.ar  413  PLP413      0.0978
      3  C2A      -11.3560    2.8080   83.8350 C.3   413  PLP413      0.0555
      4  C3       -10.2230    1.0650   82.2310 C.ar  413  PLP413      0.2049
      5  O3       -11.4010    0.4170   82.0100 O.3   413  PLP413     -0.2857
      6  C4        -9.0820    0.6310   81.5390 C.ar  413  PLP413      0.0182
      7  C4A       -8.9080   -0.7530   80.6660 C.3   413  PLP413      0.0342
      8  C5        -7.9110    1.4420   81.7150 C.ar  413  PLP413      0.0261
      9  C6        -7.8950    2.5760   82.5030 C.ar  413  PLP413      0.0965
     10  C5A       -6.6450    1.1270   80.9850 C.3   413  PLP413      0.1815
     11  O4P       -6.3720    2.1350   80.0260 O.3   413  PLP413     -0.2653
     12  P         -4.9340    2.1080   79.2360 P.3   413  PLP413      0.5329
     13  O1P       -4.8960    3.3660   78.4720 O.3   413  PLP413     -0.1145
     14  O2P       -4.8460    0.9030   78.2000 O.2   413  PLP413     -0.2224
     15  O3P       -3.8470    1.8260   80.1620 O.3   413  PLP413     -0.1145
@<TRIPOS>BOND
     1    14    12    2
     2    13    12    1
     3    12    11    1
     4    12    15    1
     5    11    10    1
     6     7     6    1
     7    10     8    1
     8     6     8   ar
     9     6     4   ar
    10     8     9   ar
    11     5     4    1
    12     4     2   ar
    13     9     1   ar
    14     2     1   ar
    15     2     3    1
