@<TRIPOS>MOLECULE
1gc4_PLP_A_1.pdb
 15 15 0 0 0
SMALL
GASTEIGER

@<TRIPOS>ATOM
      1  N1        13.0940   -4.1870   31.0510 N.ar  413  PLP413     -0.2452
      2  C2        14.1440   -3.3480   30.8570 C.ar  413  PLP413      0.0978
      3  C2A       15.4110   -3.6080   31.6290 C.3   413  PLP413      0.0555
      4  C3        14.0490   -2.2720   29.9710 C.ar  413  PLP413      0.2049
      5  O3        14.9890   -1.3750   29.8610 O.3   413  PLP413     -0.2857
      6  C4        12.9470   -2.0180   29.2750 C.ar  413  PLP413      0.0182
      7  C4A       12.8220   -0.9370   28.3870 C.3   413  PLP413      0.0342
      8  C5        11.8370   -2.8840   29.4810 C.ar  413  PLP413      0.0261
      9  C6        11.9310   -3.9500   30.3820 C.ar  413  PLP413      0.0965
     10  C5A       10.4630   -2.5760   28.9030 C.3   413  PLP413      0.1815
     11  O4P       10.1620   -2.7740   27.5480 O.3   413  PLP413     -0.2653
     12  P          8.9750   -1.9240   26.8690 P.3   413  PLP413      0.5329
     13  O1P        9.1110   -1.9930   25.4120 O.2   413  PLP413     -0.2224
     14  O2P        9.1170   -0.3990   27.2660 O.3   413  PLP413     -0.1145
     15  O3P        7.7010   -2.3350   27.4770 O.3   413  PLP413     -0.1145
@<TRIPOS>BOND
     1    13    12    2
     2    12    14    1
     3    12    15    1
     4    12    11    1
     5    11    10    1
     6     7     6    1
     7    10     8    1
     8     6     8   ar
     9     6     4   ar
    10     8     9   ar
    11     5     4    1
    12     4     2   ar
    13     9     1   ar
    14     2     1   ar
    15     2     3    1
