@<TRIPOS>MOLECULE
1gc5_ADP_A_1.pdb
 27 29 0 0 0
SMALL
GASTEIGER

@<TRIPOS>ATOM
      1  PB         9.6090   63.7610   38.4510 P.3   470  ADP470      0.5373
      2  O1B        9.4010   62.2970   38.1990 O.3   470  ADP470     -0.1143
      3  O2B        9.6590   64.1400   40.0360 O.3   470  ADP470     -0.1143
      4  O3B       10.8690   64.2480   37.7920 O.2   470  ADP470     -0.2221
      5  PA         7.8480   66.0110   37.9610 P.3   470  ADP470      0.2231
      6  O1A        6.6110   66.1030   37.1700 O.2   470  ADP470     -0.5169
      7  O2A        7.6360   66.4510   39.3530 O.3   470  ADP470     -0.4370
      8  O3A        8.3370   64.5100   37.9290 O.3   470  ADP470     -0.2261
      9  O5'        9.0700   66.7990   37.2940 O.3   470  ADP470     -0.3111
     10  C5'        9.4870   66.5730   35.9280 C.3   470  ADP470      0.1813
     11  C4'        9.5540   67.9680   35.3340 C.3   470  ADP470      0.1821
     12  O4'       10.8340   68.1980   34.7390 O.3   470  ADP470     -0.3135
     13  C3'        8.5030   68.2410   34.2750 C.3   470  ADP470      0.2184
     14  O3'        7.3800   68.9700   34.7820 O.3   470  ADP470     -0.2174
     15  C2'        9.2050   69.0470   33.2040 C.3   470  ADP470      0.2570
     16  O2'        8.9270   70.4590   33.2850 O.3   470  ADP470     -0.2130
     17  C1'       10.6740   68.6940   33.3930 C.3   470  ADP470      0.3186
     18  N9        11.1950   67.7370   32.3450 N.pl3 470  ADP470     -0.1439
     19  C8        10.9710   66.4120   32.2760 C.3   470  ADP470      0.3377
     20  N7        11.5980   65.9150   31.2030 N.2   470  ADP470     -0.2095
     21  C5        12.2160   66.8960   30.5860 C.2   470  ADP470      0.2526
     22  C6        13.0240   67.0200   29.4340 C.2   470  ADP470      0.4393
     23  N6        13.3070   65.9410   28.6810 N.pl3 470  ADP470      0.2180
     24  N1        13.5200   68.2540   29.0660 N.2   470  ADP470      0.0021
     25  C2        13.2630   69.3640   29.7970 C.3   470  ADP470      0.5254
     26  N3        12.4830   69.2510   30.9000 N.2   470  ADP470     -0.0055
     27  C4        11.9580   68.0720   31.3240 C.2   470  ADP470      0.3518
@<TRIPOS>BOND
     1    23    22    1
     2    24    22    2
     3    24    25    1
     4    22    21    1
     5    25    26    1
     6    21    20    2
     7    21    27    1
     8    26    27    2
     9    20    19    1
    10    27    18    1
    11    19    18    1
    12    18    17    1
    13    15    16    1
    14    15    17    1
    15    15    13    1
    16    17    12    1
    17    13    14    1
    18    13    11    1
    19    12    11    1
    20    11    10    1
    21    10     9    1
    22     6     5    2
    23     9     5    1
    24     4     1    2
    25     8     5    1
    26     8     1    1
    27     5     7    1
    28     2     1    1
    29     1     3    1
