@<TRIPOS>MOLECULE
1gc6_I3P_A_1.pdb
 24 24 0 0 0
SMALL
GASTEIGER

@<TRIPOS>ATOM
      1  C1        81.3920   75.1890   93.5000 C.3   1229  I3P1229     0.1918
      2  C2        80.8900   74.8670   92.0570 C.3   1229  I3P1229     0.2147
      3  C3        81.9560   74.1080   91.2540 C.3   1229  I3P1229     0.2146
      4  C4        82.3290   72.7820   92.0110 C.3   1229  I3P1229     0.1892
      5  C5        82.8730   73.1620   93.4270 C.3   1229  I3P1229     0.1891
      6  C6        81.8070   73.9190   94.2460 C.3   1229  I3P1229     0.2120
      7  O1        80.3650   75.9070   94.3960 O.3   1229  I3P1229    -0.2673
      8  O2        79.6910   74.0830   92.0920 O.3   1229  I3P1229    -0.2176
      9  O3        81.4350   73.8350   89.9400 O.3   1229  I3P1229    -0.2176
     10  O4        83.3580   72.0090   91.1900 O.3   1229  I3P1229    -0.2674
     11  O5        83.2430   71.9470   94.1800 O.3   1229  I3P1229    -0.2674
     12  O6        82.2820   74.2870   95.5490 O.3   1229  I3P1229    -0.2177
     13  P1        79.0160   75.2620   95.1520 P.3   1229  I3P1229     0.5327
     14  O11       77.8920   76.2470   94.8570 O.3   1229  I3P1229    -0.1145
     15  O12       79.4130   75.1910   96.6210 O.3   1229  I3P1229    -0.1145
     16  O13       78.8930   73.8900   94.5510 O.2   1229  I3P1229    -0.2224
     17  P4        83.1670   70.4610   90.5750 P.3   1229  I3P1229     0.5327
     18  O41       82.0230   69.9950   91.4680 O.3   1229  I3P1229    -0.1145
     19  O42       82.7790   70.6780   89.1330 O.2   1229  I3P1229    -0.2224
     20  O43       84.4640   69.6870   90.7010 O.3   1229  I3P1229    -0.1145
     21  P5        84.4360   71.8240   95.3260 P.3   1229  I3P1229     0.5327
     22  O51       84.3140   70.3530   95.6830 O.3   1229  I3P1229    -0.1145
     23  O52       85.6870   72.2560   94.5740 O.2   1229  I3P1229    -0.2224
     24  O53       83.9790   72.7700   96.4020 O.3   1229  I3P1229    -0.1145
@<TRIPOS>BOND
     1    19    17    2
     2     9     3    1
     3    17    20    1
     4    17    10    1
     5    17    18    1
     6    10     4    1
     7     3     4    1
     8     3     2    1
     9     4     5    1
    10     2     8    1
    11     2     1    1
    12     5    11    1
    13     5     6    1
    14     1     6    1
    15     1     7    1
    16    11    21    1
    17     6    12    1
    18     7    13    1
    19    16    13    2
    20    23    21    2
    21    14    13    1
    22    13    15    1
    23    21    22    1
    24    21    24    1
