@<TRIPOS>MOLECULE
1gca_GAL_A_1.pdb
 24 24 0 0 0
SMALL
GASTEIGER

@<TRIPOS>ATOM
      1  C1        82.5060   28.9040   85.2000 C.3   350  GAL350      0.1854
      2  C2        81.6930   27.9420   86.0690 C.3   350  GAL350      0.1339
      3  C3        81.9450   28.2770   87.5230 C.3   350  GAL350      0.1141
      4  C4        83.4670   28.2860   87.8830 C.3   350  GAL350      0.1119
      5  C5        84.2570   29.1710   86.8750 C.3   350  GAL350      0.1130
      6  C6        85.7920   29.0160   87.0290 C.3   350  GAL350      0.0730
      7  O1        82.3000   28.6130   83.8690 O.3   350  GAL350     -0.3649
      8  O2        80.3100   28.0700   85.7670 O.3   350  GAL350     -0.3841
      9  O3        81.2830   27.3400   88.2950 O.3   350  GAL350     -0.3864
     10  O4        83.9180   26.9610   87.8120 O.3   350  GAL350     -0.3865
     11  O5        83.8940   28.7880   85.5160 O.3   350  GAL350     -0.3407
     12  O6        86.4570   29.9630   86.2050 O.3   350  GAL350     -0.3924
     13  H1        82.1750   29.9430   85.3740 H     350  GAL350      0.0935
     14  H2        82.0180   26.9060   85.8630 H     350  GAL350      0.0671
     15  H3        81.5160   29.2650   87.7270 H     350  GAL350      0.0648
     16  H4        83.5940   28.6790   88.9040 H     350  GAL350      0.0647
     17  H5        83.9900   30.2250   87.0330 H     350  GAL350      0.0647
     18  H61       86.1160   28.0010   86.7780 H     350  GAL350      0.0584
     19  H62       86.0520   29.2120   88.0760 H     350  GAL350      0.0584
     20  HO1       82.8210   29.2040   83.3370 H     350  GAL350      0.2126
     21  HO2       79.8730   27.1750   85.6220 H     350  GAL350      0.2101
     22  HO3       80.3740   27.2890   88.0070 H     350  GAL350      0.2100
     23  HO4       84.8470   26.9470   88.0300 H     350  GAL350      0.2100
     24  HO6       87.0250   29.5250   85.5910 H     350  GAL350      0.2095
@<TRIPOS>BOND
     1    20     7    1
     2     7     1    1
     3     1    13    1
     4     1    11    1
     5     1     2    1
     6    11     5    1
     7    24    12    1
     8    21     8    1
     9     8     2    1
    10    14     2    1
    11     2     3    1
    12    12     6    1
    13    18     6    1
    14     5     6    1
    15     5    17    1
    16     5     4    1
    17     6    19    1
    18     3    15    1
    19     3     4    1
    20     3     9    1
    21    10     4    1
    22    10    23    1
    23     4    16    1
    24    22     9    1
