@<TRIPOS>MOLECULE
1gck_PLP_A_1.pdb
 15 15 0 0 0
SMALL
GASTEIGER

@<TRIPOS>ATOM
      1  N1        12.4450    2.7250   57.3670 N.2   413  PLP413     -0.2505
      2  C2        13.5880    2.0640   57.0120 C.2   413  PLP413      0.0675
      3  C2A       13.5830    0.5490   57.0440 C.3   413  PLP413      0.0499
      4  C3        14.6910    2.7980   56.5820 C.3   413  PLP413      0.1913
      5  O3        15.7340    2.1590   56.1620 O.3   413  PLP413     -0.2167
      6  C4        14.6750    4.1320   56.5940 C.3   413  PLP413      0.0581
      7  C4A       15.5260    5.2460   55.8670 C.3   413  PLP413      0.0075
      8  C5        13.4500    4.7700   56.9430 C.2   413  PLP413      0.0073
      9  C6        12.3880    4.0380   57.3720 C.2   413  PLP413      0.0921
     10  C5A       13.3590    6.2850   57.0260 C.3   413  PLP413      0.1776
     11  O4P       12.7020    6.8540   55.9410 O.3   413  PLP413     -0.2656
     12  P         12.6030    8.4010   55.5330 P.3   413  PLP413      0.5329
     13  O1P       11.5920    8.3820   54.5430 O.2   413  PLP413     -0.2224
     14  O2P       13.6530    8.7390   54.5880 O.3   413  PLP413     -0.1145
     15  O3P       12.7370    9.3150   56.6000 O.3   413  PLP413     -0.1145
@<TRIPOS>BOND
     1    13    12    2
     2    14    12    1
     3    12    11    1
     4    12    15    1
     5     7     6    1
     6    11    10    1
     7     5     4    1
     8     4     6    1
     9     4     2    1
    10     6     8    1
    11     8    10    1
    12     8     9    2
    13     2     3    1
    14     2     1    2
    15     1     9    1
