@<TRIPOS>MOLECULE
1gco_NAD_A_1.pdb
 44 48 0 0 0
SMALL
GASTEIGER

@<TRIPOS>ATOM
      1  PA        36.7850   12.0950   -7.9600 P.3   601  NAD601      0.2189
      2  O1A       36.2080   12.5870   -6.6850 O.3   601  NAD601     -0.4371
      3  O2A       36.4630   12.8900   -9.1710 O.2   601  NAD601     -0.5170
      4  O5B       36.3670   10.5730   -8.2680 O.3   601  NAD601     -0.3112
      5  C5B       35.9920    9.6930   -7.1950 C.3   601  NAD601      0.1813
      6  C4B       34.6220    9.1500   -7.5150 C.3   601  NAD601      0.1821
      7  O4B       34.2870    8.2820   -6.4170 O.3   601  NAD601     -0.3135
      8  C3B       33.5380   10.2280   -7.5650 C.3   601  NAD601      0.2184
      9  O3B       32.9210   10.2200   -8.8570 O.3   601  NAD601     -0.2174
     10  C2B       32.6520    9.8530   -6.3820 C.3   601  NAD601      0.2570
     11  O2B       31.2640   10.1940   -6.5980 O.3   601  NAD601     -0.2130
     12  C1B       32.9150    8.3700   -6.2500 C.3   601  NAD601      0.3186
     13  N9A       32.5930    7.8160   -4.9470 N.pl3 601  NAD601     -0.1439
     14  C8A       32.9890    8.2690   -3.7220 C.3   601  NAD601      0.3377
     15  N7A       32.5150    7.5510   -2.7130 N.2   601  NAD601     -0.2095
     16  C5A       31.7650    6.5710   -3.3310 C.2   601  NAD601      0.2526
     17  C6A       31.0080    5.5090   -2.8060 C.2   601  NAD601      0.4393
     18  N6A       30.8520    5.2210   -1.5310 N.pl3 601  NAD601      0.2180
     19  N1A       30.3620    4.6880   -3.6970 N.2   601  NAD601      0.0021
     20  C2A       30.5060    4.9680   -5.0320 C.3   601  NAD601      0.5254
     21  N3A       31.1800    5.9260   -5.6290 N.2   601  NAD601     -0.0055
     22  C4A       31.8010    6.7120   -4.7100 C.2   601  NAD601      0.3518
     23  O3        38.3080   11.9400   -7.7720 O.3   601  NAD601     -0.2703
     24  PN        39.4800   11.4310   -8.7820 P.3   601  NAD601      0.2189
     25  O1N       40.4460   12.5250   -8.8500 O.3   601  NAD601     -0.4371
     26  O2N       38.8440   11.0980  -10.0870 O.2   601  NAD601     -0.5170
     27  O5D       40.0440   10.2300   -7.9340 O.3   601  NAD601     -0.3112
     28  C5D       39.8890    8.9120   -8.4760 C.3   601  NAD601      0.1813
     29  C4D       40.5540    7.9380   -7.5410 C.3   601  NAD601      0.1799
     30  O4D       41.9700    8.2210   -7.7000 O.3   601  NAD601     -0.3327
     31  C3D       40.2930    8.0730   -6.0360 C.3   601  NAD601      0.2158
     32  O3D       40.3580    6.7720   -5.4230 O.3   601  NAD601     -0.2175
     33  C2D       41.4430    8.9590   -5.5770 C.3   601  NAD601      0.2309
     34  O2D       41.7300    8.7430   -4.1810 O.3   601  NAD601     -0.2158
     35  C1D       42.5570    8.4950   -6.4640 C.3   601  NAD601      0.2263
     36  N1N       43.6040    9.4890   -6.6320 N.pl3 601  NAD601     -0.2787
     37  C2N       43.3930   10.7190   -7.2840 C.3   601  NAD601      0.1244
     38  C3N       44.4930   11.7150   -7.4070 C.2   601  NAD601      0.0544
     39  C7N       44.1950   12.9860   -8.0860 C.2   601  NAD601      0.2818
     40  O7N       45.1230   13.8040   -8.1680 O.2   601  NAD601     -0.2670
     41  N7N       42.9990   13.2830   -8.6010 N.am  601  NAD601     -0.0839
     42  C4N       45.8590   11.3660   -6.8640 C.2   601  NAD601      0.0033
     43  C5N       45.9060   10.0290   -6.2270 C.2   601  NAD601      0.0157
     44  C6N       44.8940    9.1930   -6.1220 C.2   601  NAD601      0.0633
@<TRIPOS>BOND
     1    26    24    2
     2     3     1    2
     3     9     8    1
     4    25    24    1
     5    24    27    1
     6    24    23    1
     7    41    39   am
     8    28    27    1
     9    28    29    1
    10     4     1    1
    11     4     5    1
    12    40    39    2
    13    39    38    1
    14     1    23    1
    15     1     2    1
    16    30    29    1
    17    30    35    1
    18     8     6    1
    19     8    10    1
    20    29    31    1
    21     6     5    1
    22     6     7    1
    23    38    37    1
    24    38    42    2
    25    37    36    1
    26    42    43    1
    27    36    35    1
    28    36    44    1
    29    11    10    1
    30    35    33    1
    31     7    12    1
    32    10    12    1
    33    12    13    1
    34    43    44    2
    35    31    33    1
    36    31    32    1
    37    21    20    1
    38    21    22    2
    39    33    34    1
    40    20    19    1
    41    13    22    1
    42    13    14    1
    43    22    16    1
    44    14    15    1
    45    19    17    2
    46    16    17    1
    47    16    15    2
    48    17    18    1
