@<TRIPOS>MOLECULE
1gct_III_D_1.pdb
 28 29 0 0 0
SMALL
GASTEIGER

@<TRIPOS>ATOM
      1  N         33.2140    2.2080   48.1140 N.2   501  PRO501     -0.2571
      2  CA        33.0200    2.5590   46.6400 C.3   501  PRO501      0.2026
      3  C         32.9290    1.4750   45.5350 C.2   501  PRO501      0.2684
      4  O         33.5840    0.4520   45.7130 O.2   501  PRO501     -0.2709
      5  CB        34.1830    3.4600   46.1270 C.2   501  PRO501      0.0085
      6  CG        35.1550    3.5370   47.3120 C.2   501  PRO501      0.0180
      7  CD        34.5260    2.8640   48.5510 C.2   501  PRO501      0.0938
      8  N         32.3630    1.7310   44.3250 N.am  502  GLY502     -0.1935
      9  CA        32.3360    0.8010   43.1680 C.3   502  GLY502      0.2014
     10  C         31.7710    1.4770   41.8870 C.2   502  GLY502      0.2639
     11  O         30.9460    2.3950   42.1310 O.2   502  GLY502     -0.2714
     12  N         32.1880    1.1690   40.6170 N.am  503  ALA503     -0.1963
     13  CA        31.5220    1.7270   39.5360 C.3   503  ALA503      0.1728
     14  C         30.0130    1.3680   39.4520 C.2   503  ALA503      0.2616
     15  O         29.7180    0.2860   39.8990 O.2   503  ALA503     -0.2715
     16  CB        32.3570    1.5200   38.2990 C.3   503  ALA503      0.0334
     17  N         29.0780    2.0530   38.7460 N.am  504  TYR504     -0.1974
     18  CA        27.6460    1.6670   38.7000 C.3   504  TYR504      0.1639
     19  C         26.9370    1.4500   37.3500 C.2   504  TYR504      0.2290
     20  O         26.5930    0.3260   36.9750 O.2   504  TYR504     -0.2864
     21  CB        26.8310    2.7920   39.2140 C.3   504  TYR504      0.0560
     22  CG        26.8250    2.8820   40.6630 C.ar  504  TYR504     -0.0198
     23  CD1       27.1880    1.9130   41.5970 C.ar  504  TYR504     -0.0009
     24  CD2       26.3150    4.1320   40.9930 C.ar  504  TYR504     -0.0009
     25  CE1       26.9790    2.2240   42.9290 C.ar  504  TYR504      0.0417
     26  CE2       26.0430    4.4500   42.3260 C.ar  504  TYR504      0.0417
     27  CZ        26.4020    3.4630   43.2310 C.ar  504  TYR504      0.1957
     28  OH        26.2250    3.8930   44.5100 O.3   504  TYR504     -0.2866
@<TRIPOS>BOND
     1    20    19    2
     2    19    18    1
     3    16    13    1
     4    18    17    1
     5    18    21    1
     6    17    14   am
     7    21    22    1
     8    14    13    1
     9    14    15    2
    10    13    12    1
    11    12    10   am
    12    22    24   ar
    13    22    23   ar
    14    24    26   ar
    15    23    25   ar
    16    10    11    2
    17    10     9    1
    18    26    27   ar
    19    25    27   ar
    20     9     8    1
    21    27    28    1
    22     8     3   am
    23     3     4    2
    24     3     2    1
    25     5     2    1
    26     5     6    2
    27     2     1    1
    28     6     7    1
    29     1     7    2
