@<TRIPOS>MOLECULE
1gcv_HEM_A_1.pdb
 43 50 0 0 0
SMALL
GASTEIGER

@<TRIPOS>ATOM
      1 FE        -33.5220  -44.3090   67.5660 Fe    141  HEM141      0.0000
      2  CHA      -35.8180  -45.8360   69.6450 C.2   141  HEM141      0.0000
      3  CHB      -30.9590  -45.8470   69.3530 C.2   141  HEM141      0.0000
      4  CHC      -31.1950  -42.2840   66.0110 C.2   141  HEM141      0.0000
      5  CHD      -36.0210  -42.1540   66.4550 C.2   141  HEM141      0.0000
      6  NA       -33.4100  -45.5840   69.1200 N.2   141  HEM141      0.0000
      7  C1A      -34.4570  -46.1720   69.8160 C.2   141  HEM141      0.0000
      8  C2A      -33.9400  -47.0790   70.8230 C.2   141  HEM141      0.0000
      9  C3A      -32.6010  -47.0540   70.7800 C.2   141  HEM141      0.0000
     10  C4A      -32.2650  -46.1270   69.7320 C.2   141  HEM141      0.0000
     11  CMA      -31.6310  -47.8890   71.6160 C.3   141  HEM141      0.0000
     12  CAA      -34.7490  -47.9580   71.7410 C.3   141  HEM141      0.0000
     13  CBA      -35.3620  -49.0510   70.9000 C.3   141  HEM141      0.0000
     14  CGA      -36.3130  -49.9250   71.6870 C.2   141  HEM141      0.0000
     15  O1A      -37.2450  -49.3790   72.3220 O.co2 141  HEM141      0.0000
     16  O2A      -36.1230  -51.1610   71.6650 O.co2 141  HEM141      0.0000
     17  NB       -31.5370  -44.1730   67.6060 N.ar  141  HEM141      0.0000
     18  C1B      -30.6190  -44.9250   68.3580 C.ar  141  HEM141      0.0000
     19  C2B      -29.2420  -44.5930   67.9910 C.ar  141  HEM141      0.0000
     20  C3B      -29.2950  -43.6140   67.0240 C.ar  141  HEM141      0.0000
     21  C4B      -30.7200  -43.3280   66.8170 C.ar  141  HEM141      0.0000
     22  CMB      -27.9830  -45.2750   68.5300 C.3   141  HEM141      0.0000
     23  CAB      -28.2280  -43.0480   66.3090 C.3   141  HEM141      0.0000
     24  CBB      -27.0840  -42.5290   66.9240 C.3   141  HEM141      0.0000
     25  NC       -33.6020  -42.6350   66.4460 N.2   141  HEM141      0.0000
     26  C1C      -32.5340  -41.9310   65.8780 C.2   141  HEM141      0.0000
     27  C2C      -32.9920  -40.7440   65.1730 C.2   141  HEM141      0.0000
     28  C3C      -34.3570  -40.7340   65.2780 C.2   141  HEM141      0.0000
     29  C4C      -34.7220  -41.8830   66.0730 C.2   141  HEM141      0.0000
     30  CMC      -32.0890  -39.7090   64.5000 C.3   141  HEM141      0.0000
     31  CAC      -35.2810  -39.8570   64.7210 C.3   141  HEM141      0.0000
     32  CBC      -35.1930  -38.4580   64.7240 C.3   141  HEM141      0.0000
     33  ND       -35.4800  -44.0990   67.9050 N.ar  141  HEM141      0.0000
     34  C1D      -36.3760  -43.1870   67.3090 C.ar  141  HEM141      0.0000
     35  C2D      -37.7400  -43.3940   67.7520 C.ar  141  HEM141      0.0000
     36  C3D      -37.6700  -44.3840   68.6730 C.ar  141  HEM141      0.0000
     37  C4D      -36.2840  -44.8310   68.7840 C.ar  141  HEM141      0.0000
     38  CMD      -39.0000  -42.6730   67.2630 C.3   141  HEM141      0.0000
     39  CAD      -38.8580  -44.8880   69.4570 C.3   141  HEM141      0.0000
     40  CBD      -38.9340  -44.1140   70.7580 C.3   141  HEM141      0.0000
     41  CGD      -39.8360  -44.7770   71.7750 C.2   141  HEM141      0.0000
     42  O1D      -40.0270  -46.0130   71.6940 O.co2 141  HEM141      0.0000
     43  O2D      -40.3520  -44.0570   72.6550 O.co2 141  HEM141      0.0000
@<TRIPOS>BOND
     1    30    27    1
     2    31    32    1
     3    31    28    1
     4    27    28    2
     5    27    26    1
     6    28    29    1
     7    26     4    2
     8    26    25    1
     9     4    21    1
    10    29    25    2
    11    29     5    1
    12    23    24    1
    13    23    20    1
    14    25     1    1
    15     5    34    2
    16    21    20   ar
    17    21    17   ar
    18    20    19   ar
    19    38    35    1
    20    34    35   ar
    21    34    33   ar
    22     1    17    1
    23     1    33    1
    24     1     6    1
    25    17    18   ar
    26    35    36   ar
    27    33    37   ar
    28    19    18   ar
    29    19    22    1
    30    18     3    1
    31    36    37   ar
    32    36    39    1
    33    37     2    2
    34     6    10    1
    35     6     7    2
    36     3    10    2
    37    39    40    1
    38     2     7    1
    39    10     9    1
    40     7     8    1
    41    40    41    1
    42     9     8    2
    43     9    11    1
    44     8    12    1
    45    13    14    1
    46    13    12    1
    47    16    14   ar
    48    14    15   ar
    49    42    41   ar
    50    41    43   ar
