@<TRIPOS>MOLECULE
1gcw_HEM_A_1.pdb
 43 50 0 0 0
SMALL
GASTEIGER

@<TRIPOS>ATOM
      1 FE         31.1350   38.0230   27.3550 Fe    141  HEM141      0.0000
      2  CHA       32.1030   39.2680   24.4030 C.2   141  HEM141      0.0000
      3  CHB       34.3780   38.2750   28.5990 C.2   141  HEM141      0.0000
      4  CHC       30.1000   37.0800   30.4850 C.2   141  HEM141      0.0000
      5  CHD       27.9290   37.4880   26.1120 C.2   141  HEM141      0.0000
      6  NA        32.8420   38.5530   26.6990 N.2   141  HEM141      0.0000
      7  C1A       33.0870   39.0680   25.4150 C.2   141  HEM141      0.0000
      8  C2A       34.5070   39.3490   25.2480 C.2   141  HEM141      0.0000
      9  C3A       35.1260   39.0600   26.4200 C.2   141  HEM141      0.0000
     10  C4A       34.1030   38.5770   27.3040 C.2   141  HEM141      0.0000
     11  CMA       36.6090   39.2100   26.7270 C.3   141  HEM141      0.0000
     12  CAA       35.1790   39.8620   23.9850 C.3   141  HEM141      0.0000
     13  CBA       35.1990   41.3780   24.0070 C.3   141  HEM141      0.0000
     14  CGA       35.6460   41.9710   22.6930 C.2   141  HEM141      0.0000
     15  O1A       34.7730   42.4140   21.9200 O.co2 141  HEM141      0.0000
     16  O2A       36.8680   41.9940   22.4360 O.co2 141  HEM141      0.0000
     17  NB        32.0430   37.7660   29.1230 N.ar  141  HEM141      0.0000
     18  C1B       33.3910   37.8750   29.4390 C.ar  141  HEM141      0.0000
     19  C2B       33.6640   37.5490   30.8200 C.ar  141  HEM141      0.0000
     20  C3B       32.4820   37.2000   31.4150 C.ar  141  HEM141      0.0000
     21  C4B       31.4490   37.3740   30.3430 C.ar  141  HEM141      0.0000
     22  CMB       35.0510   37.5230   31.5060 C.3   141  HEM141      0.0000
     23  CAB       32.4440   36.7510   32.7620 C.3   141  HEM141      0.0000
     24  CBB       31.3610   36.2290   33.4780 C.3   141  HEM141      0.0000
     25  NC        29.4270   37.4200   28.0970 N.2   141  HEM141      0.0000
     26  C1C       29.1660   37.0570   29.4400 C.2   141  HEM141      0.0000
     27  C2C       27.8140   36.5330   29.5920 C.2   141  HEM141      0.0000
     28  C3C       27.2470   36.6020   28.3510 C.2   141  HEM141      0.0000
     29  C4C       28.2120   37.1870   27.4510 C.2   141  HEM141      0.0000
     30  CMC       27.1290   35.9440   30.8390 C.3   141  HEM141      0.0000
     31  CAC       25.9860   36.1290   27.9700 C.3   141  HEM141      0.0000
     32  CBC       25.4690   34.8550   28.2420 C.3   141  HEM141      0.0000
     33  ND        30.2090   38.3190   25.6610 N.ar  141  HEM141      0.0000
     34  C1D       28.9080   37.9830   25.2840 C.ar  141  HEM141      0.0000
     35  C2D       28.6800   38.2450   23.8900 C.ar  141  HEM141      0.0000
     36  C3D       29.8230   38.8190   23.4660 C.ar  141  HEM141      0.0000
     37  C4D       30.7640   38.8740   24.5320 C.ar  141  HEM141      0.0000
     38  CMD       27.4080   37.9120   23.0980 C.3   141  HEM141      0.0000
     39  CAD       30.0940   39.3120   22.0820 C.3   141  HEM141      0.0000
     40  CBD       30.7390   38.1730   21.3220 C.3   141  HEM141      0.0000
     41  CGD       30.9260   38.4990   19.8640 C.2   141  HEM141      0.0000
     42  O1D       30.1830   37.9340   19.0420 O.co2 141  HEM141      0.0000
     43  O2D       31.8100   39.3200   19.5430 O.co2 141  HEM141      0.0000
@<TRIPOS>BOND
     1    42    41   ar
     2    43    41   ar
     3    41    40    1
     4    40    39    1
     5    15    14   ar
     6    39    36    1
     7    16    14   ar
     8    14    13    1
     9    38    35    1
    10    36    35   ar
    11    36    37   ar
    12    35    34   ar
    13    12    13    1
    14    12     8    1
    15     2    37    2
    16     2     7    1
    17    37    33   ar
    18     8     7    1
    19     8     9    2
    20    34    33   ar
    21    34     5    2
    22     7     6    2
    23    33     1    1
    24     5    29    1
    25     9    11    1
    26     9    10    1
    27     6    10    1
    28     6     1    1
    29    10     3    2
    30     1    25    1
    31     1    17    1
    32    29    25    2
    33    29    28    1
    34    31    32    1
    35    31    28    1
    36    25    26    1
    37    28    27    2
    38     3    18    1
    39    17    18   ar
    40    17    21   ar
    41    18    19   ar
    42    26    27    1
    43    26     4    2
    44    27    30    1
    45    21     4    1
    46    21    20   ar
    47    19    20   ar
    48    19    22    1
    49    20    23    1
    50    23    24    1
