@<TRIPOS>MOLECULE
1gcz_YZ9_A_1.pdb
 17 18 0 0 0
SMALL
GASTEIGER

@<TRIPOS>ATOM
      1  C3        64.4220   22.9560   19.2130 C.3   900  YZ9900      0.0513
      2  C11       63.3860   23.3810   18.2120 C.3   900  YZ9900      0.2089
      3  O1        61.3510   24.5010   20.7240 O.2   900  YZ9900     -0.2447
      4  O2        62.0570   23.4360   18.8690 O.3   900  YZ9900     -0.4453
      5  C6        61.0580   29.4880   19.1140 C.ar  900  YZ9900      0.0063
      6  C5        61.1960   26.9880   19.4160 C.ar  900  YZ9900      0.0160
      7  C4        60.1960   29.0700   16.3370 C.ar  900  YZ9900      0.0796
      8  O3        60.3600   26.7030   16.7360 O.2   900  YZ9900     -0.4208
      9  C2        60.9070   28.1890   18.5730 C.ar  900  YZ9900      0.0353
     10  C1        60.4860   28.0060   17.2200 C.ar  900  YZ9900      0.1519
     11  C7        60.6760   25.6360   17.4340 C.ar  900  YZ9900      0.3521
     12  C12       61.5290   24.5010   19.5440 C.2   900  YZ9900      0.3476
     13  O4        60.1240   31.4520   16.1840 O.3   900  YZ9900     -0.2865
     14  O5        60.5840   24.5910   16.9260 O.2   900  YZ9900     -0.2442
     15  C10       60.7800   30.5970   18.2630 C.ar  900  YZ9900      0.0422
     16  C9        61.1380   25.7560   18.8230 C.ar  900  YZ9900      0.1515
     17  C8        60.3670   30.3620   16.9320 C.ar  900  YZ9900      0.1988
@<TRIPOS>BOND
     1    13    17    1
     2     7    17   ar
     3     7    10   ar
     4     8    10   ar
     5     8    11   ar
     6    14    11    2
     7    17    15   ar
     8    10     9   ar
     9    11    16   ar
    10     2     4    1
    11     2     1    1
    12    15     5   ar
    13     9     5   ar
    14     9     6   ar
    15    16     6   ar
    16    16    12    1
    17     4    12    1
    18    12     3    2
