@<TRIPOS>MOLECULE
1gd1_NAD_O_1.pdb
 44 48 0 0 0
SMALL
GASTEIGER

@<TRIPOS>ATOM
      1  PA         4.6540   -8.7650   18.0220 P.3   336  NAD336      0.2189
      2  O1A        4.1730   -7.4150   18.4570 O.3   336  NAD336     -0.4371
      3  O2A        3.8130   -9.1880   16.8270 O.2   336  NAD336     -0.5170
      4  O5B        4.3820   -9.8510   19.1080 O.3   336  NAD336     -0.3112
      5  C5B        4.6370   -9.5430   20.5700 C.3   336  NAD336      0.1813
      6  C4B        3.5600  -10.3430   21.2620 C.3   336  NAD336      0.1821
      7  O4B        3.8880  -10.4820   22.6690 O.3   336  NAD336     -0.3135
      8  C3B        2.1170   -9.9580   21.1770 C.3   336  NAD336      0.2184
      9  O3B        1.2750  -11.0670   20.8780 O.3   336  NAD336     -0.2174
     10  C2B        1.7990   -9.3990   22.5760 C.3   336  NAD336      0.2570
     11  O2B        0.4040   -9.5220   22.9610 O.3   336  NAD336     -0.2130
     12  C1B        2.6830  -10.3050   23.4280 C.3   336  NAD336      0.3186
     13  N9A        3.1740   -9.6920   24.6860 N.pl3 336  NAD336     -0.1439
     14  C8A        3.6010   -8.4120   24.9190 C.3   336  NAD336      0.3377
     15  N7A        3.9930   -8.2580   26.1800 N.2   336  NAD336     -0.2095
     16  C5A        3.8140   -9.4800   26.7790 C.2   336  NAD336      0.2526
     17  C6A        4.0130   -9.9470   28.1080 C.2   336  NAD336      0.4393
     18  N6A        4.4760   -9.2020   29.1100 N.pl3 336  NAD336      0.2180
     19  N1A        3.7750  -11.2480   28.3230 N.2   336  NAD336      0.0021
     20  C2A        3.3060  -12.0310   27.3320 C.3   336  NAD336      0.5254
     21  N3A        3.0050  -11.6860   26.0850 N.2   336  NAD336     -0.0055
     22  C4A        3.3130  -10.3850   25.8740 C.2   336  NAD336      0.3518
     23  O3         6.1860   -8.8660   17.7950 O.3   336  NAD336     -0.2703
     24  PN         7.1620   -9.7420   16.9750 P.3   336  NAD336      0.2189
     25  O1N        7.2830   -9.0590   15.6800 O.2   336  NAD336     -0.5170
     26  O2N        6.7230  -11.1360   16.9940 O.3   336  NAD336     -0.4371
     27  O5D        8.5990   -9.5470   17.6560 O.3   336  NAD336     -0.3112
     28  C5D        8.7430  -10.0890   18.9970 C.3   336  NAD336      0.1813
     29  C4D       10.2250  -10.1100   19.2620 C.3   336  NAD336      0.1799
     30  O4D       10.9310  -10.7850   18.1890 O.3   336  NAD336     -0.3327
     31  C3D       10.8480   -8.6880   19.3520 C.3   336  NAD336      0.2158
     32  O3D       12.0140   -8.8820   20.2130 O.3   336  NAD336     -0.2175
     33  C2D       11.3690   -8.5230   17.8850 C.3   336  NAD336      0.2309
     34  O2D       12.5340   -7.7110   17.8250 O.3   336  NAD336     -0.2158
     35  C1D       11.8590   -9.9290   17.5660 C.3   336  NAD336      0.2263
     36  N1N       11.9250  -10.2650   16.1150 N.pl3 336  NAD336     -0.2787
     37  C2N       10.9180   -9.8240   15.3230 C.3   336  NAD336      0.1244
     38  C3N       10.9570  -10.1700   13.9940 C.2   336  NAD336      0.0544
     39  C7N        9.9360   -9.8010   12.8710 C.2   336  NAD336      0.2818
     40  O7N       10.3550   -9.8470   11.6980 O.2   336  NAD336     -0.2670
     41  N7N        8.7120   -9.4780   13.1340 N.am  336  NAD336     -0.0839
     42  C4N       11.9920  -10.9690   13.4630 C.2   336  NAD336      0.0033
     43  C5N       12.9900  -11.3610   14.3670 C.2   336  NAD336      0.0157
     44  C6N       12.9990  -11.1010   15.7200 C.2   336  NAD336      0.0633
@<TRIPOS>BOND
     1    40    39    2
     2    39    41   am
     3    39    38    1
     4    42    38    2
     5    42    43    1
     6    38    37    1
     7    43    44    2
     8    37    36    1
     9    25    24    2
    10    44    36    1
    11    36    35    1
    12     3     1    2
    13    24    26    1
    14    24    27    1
    15    24    23    1
    16    35    33    1
    17    35    30    1
    18    27    28    1
    19    23     1    1
    20    34    33    1
    21    33    31    1
    22     1     2    1
    23     1     4    1
    24    30    29    1
    25    28    29    1
    26     4     5    1
    27    29    31    1
    28    31    32    1
    29     5     6    1
    30     9     8    1
    31     8     6    1
    32     8    10    1
    33     6     7    1
    34    10    11    1
    35    10    12    1
    36     7    12    1
    37    12    13    1
    38    13    14    1
    39    13    22    1
    40    14    15    1
    41    22    21    2
    42    22    16    1
    43    21    20    1
    44    15    16    2
    45    16    17    1
    46    20    19    1
    47    17    19    2
    48    17    18    1
