@<TRIPOS>MOLECULE
1gd9_PLP_A_1.pdb
 15 15 0 0 0
SMALL
GASTEIGER

@<TRIPOS>ATOM
      1  N1        25.8120   -5.7050   18.3480 N.ar  413  PLP413     -0.2452
      2  C2        26.9150   -5.8100   17.5700 C.ar  413  PLP413      0.0978
      3  C2A       27.3940   -7.2080   17.1600 C.3   413  PLP413      0.0555
      4  C3        27.5570   -4.6760   17.1620 C.ar  413  PLP413      0.2049
      5  O3        28.6640   -4.7810   16.3880 O.3   413  PLP413     -0.2857
      6  C4        27.0730   -3.4190   17.5670 C.ar  413  PLP413      0.0182
      7  C4A       27.8110   -2.1860   17.0750 C.3   413  PLP413      0.0342
      8  C5        25.9010   -3.3650   18.3930 C.ar  413  PLP413      0.0261
      9  C6        25.3170   -4.5240   18.7620 C.ar  413  PLP413      0.0965
     10  C5A       25.2040   -2.1150   18.9620 C.3   413  PLP413      0.1815
     11  O4P       25.7780   -0.8380   18.9300 O.3   413  PLP413     -0.2653
     12  P         25.0800    0.4470   19.5620 P.3   413  PLP413      0.5329
     13  O1P       23.8110    0.6670   18.8610 O.2   413  PLP413     -0.2224
     14  O2P       26.1940    1.4880   19.1800 O.3   413  PLP413     -0.1145
     15  O3P       25.0520    0.2930   21.0270 O.3   413  PLP413     -0.1145
@<TRIPOS>BOND
     1     5     4    1
     2     7     6    1
     3     3     2    1
     4     4     6   ar
     5     4     2   ar
     6     6     8   ar
     7     2     1   ar
     8     1     9   ar
     9     8     9   ar
    10     8    10    1
    11    13    12    2
    12    11    10    1
    13    11    12    1
    14    14    12    1
    15    12    15    1
