@<TRIPOS>MOLECULE
1gdd_GDP_A_1.pdb
 28 30 0 0 0
SMALL
GASTEIGER

@<TRIPOS>ATOM
      1  PB        38.1400   21.7540   36.0000 P.3   355  GDP355      0.5373
      2  O1B       38.5190   21.3980   37.3440 O.3   355  GDP355     -0.1143
      3  O2B       37.2260   20.7910   35.3560 O.2   355  GDP355     -0.2221
      4  O3B       37.7590   23.1110   35.8140 O.3   355  GDP355     -0.1143
      5  O3A       39.5810   21.6990   35.1580 O.3   355  GDP355     -0.2261
      6  PA        40.6040   22.8650   34.5710 P.3   355  GDP355      0.2231
      7  O1A       41.0370   23.6620   35.6640 O.3   355  GDP355     -0.4370
      8  O2A       39.8770   23.5200   33.4600 O.2   355  GDP355     -0.5169
      9  O5'       41.7370   21.9950   34.0020 O.3   355  GDP355     -0.3111
     10  C5'       42.7480   21.6050   34.9370 C.3   355  GDP355      0.1813
     11  C4'       44.1170   21.6470   34.4740 C.3   355  GDP355      0.1799
     12  O4'       44.3150   20.7840   33.3200 O.3   355  GDP355     -0.3326
     13  C3'       44.5900   23.0620   34.0580 C.3   355  GDP355      0.2158
     14  O3'       45.9150   23.2540   34.2840 O.3   355  GDP355     -0.2175
     15  C2'       44.4200   22.9820   32.5640 C.3   355  GDP355      0.2310
     16  O2'       45.0880   24.0700   31.9690 O.3   355  GDP355     -0.2158
     17  C1'       44.8550   21.5900   32.2130 C.3   355  GDP355      0.2293
     18  N9        44.0290   21.2470   31.0350 N.pl3 355  GDP355     -0.2354
     19  C8        42.6280   21.3190   30.8560 C.3   355  GDP355      0.2246
     20  N7        42.1750   20.8620   29.6950 N.2   355  GDP355     -0.2322
     21  C5        43.4130   20.3050   29.1000 C.2   355  GDP355      0.2182
     22  C6        43.6820   19.5990   27.8490 C.1   355  GDP355      0.2372
     23  O6        42.9210   19.1970   26.9560 O.2   355  GDP355     -0.2069
     24  N1        45.0010   19.4040   27.6480 N.2   355  GDP355     -0.2485
     25  C2        46.0160   19.7750   28.4690 C.1   355  GDP355      0.2531
     26  N2        47.2680   19.6120   28.0860 N.pl3 355  GDP355     -0.0226
     27  N3        45.8080   20.3090   29.6580 N.2   355  GDP355     -0.3074
     28  C4        44.5040   20.6290   29.8890 C.2   355  GDP355      0.2300
@<TRIPOS>BOND
     1    23    22    2
     2    24    22    2
     3    24    25    2
     4    22    21    1
     5    26    25    1
     6    25    27    2
     7    21    20    2
     8    21    28    1
     9    27    28    2
    10    20    19    1
    11    28    18    1
    12    19    18    1
    13    18    17    1
    14    16    15    1
    15    17    15    1
    16    17    12    1
    17    15    13    1
    18    12    11    1
    19     8     6    2
    20     9     6    1
    21     9    10    1
    22    13    14    1
    23    13    11    1
    24    11    10    1
    25     6     5    1
    26     6     7    1
    27     5     1    1
    28     3     1    2
    29     4     1    1
    30     1     2    1
