@<TRIPOS>MOLECULE
1gde_PLP_A_1.pdb
 15 15 0 0 0
SMALL
GASTEIGER

@<TRIPOS>ATOM
      1  N1        25.3110   -5.4510   18.2300 N.ar  413  PLP413     -0.2452
      2  C2        26.4360   -5.8000   17.4490 C.ar  413  PLP413      0.0978
      3  C2A       26.5560   -7.2330   16.7800 C.3   413  PLP413      0.0555
      4  C3        27.4910   -4.8720   17.2820 C.ar  413  PLP413      0.2049
      5  O3        28.5760   -5.2570   16.6050 O.3   413  PLP413     -0.2857
      6  C4        27.4450   -3.5840   17.8700 C.ar  413  PLP413      0.0182
      7  C4A       28.6500   -2.6090   17.6660 C.3   413  PLP413      0.0342
      8  C5        26.2510   -3.2580   18.6460 C.ar  413  PLP413      0.0261
      9  C6        25.2090   -4.2140   18.8070 C.ar  413  PLP413      0.0965
     10  C5A       26.0430   -1.9310   19.4130 C.3   413  PLP413      0.1815
     11  O4P       25.6100   -0.8100   18.5680 O.3   413  PLP413     -0.2653
     12  P         24.9670    0.5550   19.1200 P.3   413  PLP413      0.5329
     13  O1P       23.7100    0.7180   18.3960 O.2   413  PLP413     -0.2224
     14  O2P       25.9970    1.6000   18.6110 O.3   413  PLP413     -0.1145
     15  O3P       24.9850    0.5190   20.5870 O.3   413  PLP413     -0.1145
@<TRIPOS>BOND
     1     5     4    1
     2     3     2    1
     3     4     2   ar
     4     4     6   ar
     5     2     1   ar
     6     7     6    1
     7     6     8   ar
     8     1     9   ar
     9    13    12    2
    10    11    12    1
    11    11    10    1
    12    14    12    1
    13     8     9   ar
    14     8    10    1
    15    12    15    1
