@<TRIPOS>MOLECULE
1gde_GLU_A_1.pdb
 10 9 0 0 0
SMALL
GASTEIGER

@<TRIPOS>ATOM
      1  N         30.0800   -2.3270   17.9250 N.3   414  GLU414     -0.1208
      2  CA        31.3610   -2.7270   18.5210 C.3   414  GLU414      0.1949
      3  C         31.8980   -4.0910   18.0180 C.2   414  GLU414      0.3819
      4  O         32.7870   -4.6800   18.6880 O.co2 414  GLU414     -0.2441
      5  CB        31.4370   -2.6020   20.0710 C.3   414  GLU414      0.0424
      6  CG        31.3240   -1.1220   20.6560 C.3   414  GLU414      0.1161
      7  CD        32.2190   -0.0750   19.9310 C.2   414  GLU414      0.3649
      8  OE1       33.0640   -0.4710   19.0950 O.co2 414  GLU414     -0.2457
      9  OE2       32.0880    1.1480   20.1750 O.co2 414  GLU414     -0.2457
     10  OXT       31.5500   -4.4130   16.8560 O.co2 414  GLU414     -0.2441
@<TRIPOS>BOND
     1    10     3   ar
     2     1     2    1
     3     3     2    1
     4     3     4   ar
     5     2     5    1
     6     8     7   ar
     7     7     9   ar
     8     7     6    1
     9     5     6    1
