@<TRIPOS>MOLECULE
1gdi_HEM_A_1.pdb
 43 50 0 0 0
SMALL
GASTEIGER

@<TRIPOS>ATOM
      1 FE         37.8080  -29.5330   28.1550 Fe    154  HEM154      0.0000
      2  CHA       36.3670  -27.7180   25.8000 C.2   154  HEM154      0.0000
      3  CHB       39.5230  -26.8850   29.4570 C.2   154  HEM154      0.0000
      4  CHC       38.7650  -31.4370   30.9630 C.2   154  HEM154      0.0000
      5  CHD       36.6440  -32.4180   26.7580 C.2   154  HEM154      0.0000
      6  NA        37.9190  -27.7740   27.7460 N.2   154  HEM154      0.0000
      7  C1A       37.2490  -27.1710   26.7090 C.2   154  HEM154      0.0000
      8  C2A       37.7470  -25.8340   26.5770 C.2   154  HEM154      0.0000
      9  C3A       38.5710  -25.5750   27.5650 C.2   154  HEM154      0.0000
     10  C4A       38.6950  -26.8030   28.3390 C.2   154  HEM154      0.0000
     11  CMA       39.1930  -24.2340   27.9640 C.3   154  HEM154      0.0000
     12  CAA       37.2110  -24.8100   25.5200 C.3   154  HEM154      0.0000
     13  CBA       36.0230  -23.9900   26.0610 C.3   154  HEM154      0.0000
     14  CGA       35.6130  -22.8730   25.1370 C.2   154  HEM154      0.0000
     15  O1A       34.5580  -23.1230   24.4870 O.co2 154  HEM154      0.0000
     16  O2A       36.4100  -21.8980   25.0020 O.co2 154  HEM154      0.0000
     17  NB        38.9630  -29.2350   29.8720 N.ar  154  HEM154      0.0000
     18  C1B       39.5560  -28.0080   30.2280 C.ar  154  HEM154      0.0000
     19  C2B       40.3160  -28.2080   31.4230 C.ar  154  HEM154      0.0000
     20  C3B       39.9990  -29.4050   31.9120 C.ar  154  HEM154      0.0000
     21  C4B       39.2430  -30.1040   30.8860 C.ar  154  HEM154      0.0000
     22  CMB       41.0590  -26.9780   32.0390 C.3   154  HEM154      0.0000
     23  CAB       40.6040  -30.1630   33.1380 C.3   154  HEM154      0.0000
     24  CBB       40.9950  -29.5170   34.2950 C.3   154  HEM154      0.0000
     25  NC        37.6330  -31.5160   28.8650 N.2   154  HEM154      0.0000
     26  C1C       38.0650  -32.1500   30.0020 C.2   154  HEM154      0.0000
     27  C2C       37.9370  -33.5700   29.8800 C.2   154  HEM154      0.0000
     28  C3C       37.3250  -33.8260   28.6880 C.2   154  HEM154      0.0000
     29  C4C       37.2030  -32.5390   28.0230 C.2   154  HEM154      0.0000
     30  CMC       38.2460  -34.6300   30.9100 C.3   154  HEM154      0.0000
     31  CAC       36.8850  -35.1510   28.0870 C.2   154  HEM154      0.0000
     32  CBC       37.5300  -35.9580   27.2350 C.2   154  HEM154      0.0000
     33  ND        36.6800  -29.9920   26.6840 N.ar  154  HEM154      0.0000
     34  C1D       36.3380  -31.2380   26.1910 C.ar  154  HEM154      0.0000
     35  C2D       35.5920  -31.0540   24.9600 C.ar  154  HEM154      0.0000
     36  C3D       35.5750  -29.7740   24.6760 C.ar  154  HEM154      0.0000
     37  C4D       36.2210  -29.0770   25.7210 C.ar  154  HEM154      0.0000
     38  CMD       34.9670  -32.2560   24.1530 C.3   154  HEM154      0.0000
     39  CAD       34.8500  -29.1070   23.4530 C.3   154  HEM154      0.0000
     40  CBD       35.6610  -28.2620   22.4850 C.3   154  HEM154      0.0000
     41  CGD       35.2410  -28.2650   21.0490 C.2   154  HEM154      0.0000
     42  O1D       34.6660  -29.2930   20.5980 O.co2 154  HEM154      0.0000
     43  O2D       35.5130  -27.2680   20.3330 O.co2 154  HEM154      0.0000
@<TRIPOS>BOND
     1    43    41   ar
     2    42    41   ar
     3    41    40    1
     4    40    39    1
     5    39    36    1
     6    38    35    1
     7    15    14   ar
     8    36    35   ar
     9    36    37   ar
    10    35    34   ar
    11    16    14   ar
    12    14    13    1
    13    12    13    1
    14    12     8    1
    15    37     2    2
    16    37    33   ar
    17     2     7    1
    18    34    33   ar
    19    34     5    2
    20     8     7    1
    21     8     9    2
    22    33     1    1
    23     7     6    2
    24     5    29    1
    25    32    31    2
    26     9    11    1
    27     9    10    1
    28     6     1    1
    29     6    10    1
    30    29    28    1
    31    29    25    2
    32    31    28    1
    33     1    25    1
    34     1    17    1
    35    10     3    2
    36    28    27    2
    37    25    26    1
    38     3    18    1
    39    17    18   ar
    40    17    21   ar
    41    27    26    1
    42    27    30    1
    43    26     4    2
    44    18    19   ar
    45    21     4    1
    46    21    20   ar
    47    19    20   ar
    48    19    22    1
    49    20    23    1
    50    23    24    1
