@<TRIPOS>MOLECULE
1gdj_HEM_A_1.pdb
 43 50 0 0 0
SMALL
GASTEIGER

@<TRIPOS>ATOM
      1 FE         37.8570  -29.2850   28.2920 Fe    154  HEM154      0.0000
      2  CHA       36.6980  -27.3730   25.7260 C.2   154  HEM154      0.0000
      3  CHB       39.6400  -26.7550   29.5880 C.2   154  HEM154      0.0000
      4  CHC       39.2100  -31.4230   30.8130 C.2   154  HEM154      0.0000
      5  CHD       36.9540  -32.1090   26.5340 C.2   154  HEM154      0.0000
      6  NA        38.1590  -27.5410   27.8240 N.2   154  HEM154      0.0000
      7  C1A       37.5730  -26.8490   26.7230 C.2   154  HEM154      0.0000
      8  C2A       37.9090  -25.4690   26.7740 C.2   154  HEM154      0.0000
      9  C3A       38.6830  -25.2530   27.8470 C.2   154  HEM154      0.0000
     10  C4A       38.8530  -26.5730   28.4950 C.2   154  HEM154      0.0000
     11  CMA       39.2990  -23.9520   28.3940 C.3   154  HEM154      0.0000
     12  CAA       37.3880  -24.3780   25.7860 C.2   154  HEM154      0.0000
     13  CBA       36.0500  -23.7470   26.1500 C.2   154  HEM154      0.0000
     14  CGA       35.4680  -22.7510   25.1810 C.2   154  HEM154      0.0000
     15  O1A       34.4140  -23.1000   24.5980 O.co2 154  HEM154      0.0000
     16  O2A       36.0550  -21.6930   24.9210 O.co2 154  HEM154      0.0000
     17  NB        39.2270  -29.1590   29.8930 N.ar  154  HEM154      0.0000
     18  C1B       39.7440  -27.9670   30.2380 C.ar  154  HEM154      0.0000
     19  C2B       40.5780  -28.1690   31.4270 C.ar  154  HEM154      0.0000
     20  C3B       40.4040  -29.4350   31.8160 C.ar  154  HEM154      0.0000
     21  C4B       39.5730  -30.0840   30.8580 C.ar  154  HEM154      0.0000
     22  CMB       41.3290  -26.9440   32.0430 C.3   154  HEM154      0.0000
     23  CAB       41.0870  -30.1600   32.9760 C.2   154  HEM154      0.0000
     24  CBB       41.5310  -29.5840   34.1290 C.2   154  HEM154      0.0000
     25  NC        38.1180  -31.3450   28.5920 N.2   154  HEM154      0.0000
     26  C1C       38.6310  -32.0210   29.7010 C.2   154  HEM154      0.0000
     27  C2C       38.3840  -33.3990   29.5790 C.2   154  HEM154      0.0000
     28  C3C       37.7920  -33.6340   28.3850 C.2   154  HEM154      0.0000
     29  C4C       37.6250  -32.3420   27.7550 C.2   154  HEM154      0.0000
     30  CMC       38.7430  -34.5060   30.5820 C.3   154  HEM154      0.0000
     31  CAC       37.2880  -34.9420   27.7160 C.2   154  HEM154      0.0000
     32  CBC       37.9870  -35.9850   27.4160 C.2   154  HEM154      0.0000
     33  ND        36.9860  -29.6890   26.4430 N.ar  154  HEM154      0.0000
     34  C1D       36.5720  -30.9050   25.9500 C.ar  154  HEM154      0.0000
     35  C2D       35.7900  -30.6950   24.7260 C.ar  154  HEM154      0.0000
     36  C3D       35.7270  -29.4090   24.5460 C.ar  154  HEM154      0.0000
     37  C4D       36.4330  -28.7230   25.5780 C.ar  154  HEM154      0.0000
     38  CMD       35.2270  -31.9040   23.9100 C.3   154  HEM154      0.0000
     39  CAD       35.0770  -28.6110   23.3800 C.3   154  HEM154      0.0000
     40  CBD       36.1740  -28.2160   22.3980 C.3   154  HEM154      0.0000
     41  CGD       35.6910  -27.8880   21.0160 C.2   154  HEM154      0.0000
     42  O1D       35.4350  -28.8210   20.2170 O.co2 154  HEM154      0.0000
     43  O2D       35.7110  -26.6390   20.8440 O.co2 154  HEM154      0.0000
@<TRIPOS>BOND
     1    42    41   ar
     2    43    41   ar
     3    41    40    1
     4    40    39    1
     5    39    36    1
     6    38    35    1
     7    36    35   ar
     8    36    37   ar
     9    15    14   ar
    10    35    34   ar
    11    16    14   ar
    12    14    13    1
    13    37     2    2
    14    37    33   ar
    15     2     7    1
    16    12    13    2
    17    12     8    1
    18    34    33   ar
    19    34     5    2
    20    33     1    1
    21     5    29    1
    22     7     8    1
    23     7     6    2
    24     8     9    2
    25    32    31    2
    26    31    28    1
    27    29    28    1
    28    29    25    2
    29     6     1    1
    30     6    10    1
    31     9    11    1
    32     9    10    1
    33     1    25    1
    34     1    17    1
    35    28    27    2
    36    10     3    2
    37    25    26    1
    38    27    26    1
    39    27    30    1
    40     3    18    1
    41    26     4    2
    42    17    18   ar
    43    17    21   ar
    44    18    19   ar
    45     4    21    1
    46    21    20   ar
    47    19    20   ar
    48    19    22    1
    49    20    23    1
    50    23    24    2
