@<TRIPOS>MOLECULE
1gdk_ISQ_A_1.pdb
 10 11 0 0 0
SMALL
GASTEIGER

@<TRIPOS>ATOM
      1  C1        39.4390  -29.9940   26.7840 C.ar  500  ISQ500      0.0988
      2  N2        40.0440  -30.9900   27.4980 N.ar  500  ISQ500     -0.2423
      3  C3        41.1000  -31.7070   27.0250 C.ar  500  ISQ500      0.0989
      4  C4        41.5860  -31.4370   25.7520 C.ar  500  ISQ500      0.0207
      5  C4A       41.0260  -30.3940   25.0320 C.ar  500  ISQ500      0.0030
      6  C5        41.5700  -29.9990   23.8200 C.ar  500  ISQ500      0.0001
      7  C6        40.9750  -29.0070   23.0310 C.ar  500  ISQ500      0.0000
      8  C7        39.8270  -28.4050   23.5060 C.ar  500  ISQ500      0.0000
      9  C8        39.3030  -28.7870   24.6900 C.ar  500  ISQ500      0.0015
     10  C8A       39.9050  -29.7360   25.5130 C.ar  500  ISQ500      0.0192
@<TRIPOS>BOND
     1     7     8   ar
     2     7     6   ar
     3     8     9   ar
     4     6     5   ar
     5     9    10   ar
     6     5    10   ar
     7     5     4   ar
     8    10     1   ar
     9     4     3   ar
    10     1     2   ar
    11     3     2   ar
