@<TRIPOS>MOLECULE
1gdk_HEM_A_1.pdb
 43 50 0 0 0
SMALL
GASTEIGER

@<TRIPOS>ATOM
      1 FE         37.5540  -29.1880   27.8980 Fe    154  HEM154      0.0000
      2  CHA       36.1190  -27.4650   25.4410 C.2   154  HEM154      0.0000
      3  CHB       39.1770  -26.6170   29.1660 C.2   154  HEM154      0.0000
      4  CHC       38.4540  -31.1150   30.7710 C.2   154  HEM154      0.0000
      5  CHD       36.4480  -32.1240   26.4590 C.2   154  HEM154      0.0000
      6  NA        37.5470  -27.4680   27.4790 N.2   154  HEM154      0.0000
      7  C1A       36.9750  -26.8920   26.3600 C.2   154  HEM154      0.0000
      8  C2A       37.5510  -25.5910   26.1840 C.2   154  HEM154      0.0000
      9  C3A       38.3750  -25.3270   27.2010 C.2   154  HEM154      0.0000
     10  C4A       38.3920  -26.5230   28.0230 C.2   154  HEM154      0.0000
     11  CMA       39.3020  -24.0900   27.4270 C.3   154  HEM154      0.0000
     12  CAA       37.2210  -24.6600   24.9930 C.3   154  HEM154      0.0000
     13  CBA       36.9830  -23.1980   25.4610 C.3   154  HEM154      0.0000
     14  CGA       36.1020  -22.4650   24.4610 C.2   154  HEM154      0.0000
     15  O1A       35.0440  -22.0220   24.9450 O.co2 154  HEM154      0.0000
     16  O2A       36.5690  -22.5130   23.2810 O.co2 154  HEM154      0.0000
     17  NB        38.5510  -28.9200   29.6840 N.ar  154  HEM154      0.0000
     18  C1B       39.3150  -27.7680   29.8850 C.ar  154  HEM154      0.0000
     19  C2B       40.0980  -27.9280   31.0900 C.ar  154  HEM154      0.0000
     20  C3B       39.9380  -29.1780   31.5190 C.ar  154  HEM154      0.0000
     21  C4B       38.9270  -29.8090   30.7060 C.ar  154  HEM154      0.0000
     22  CMB       40.9910  -26.7790   31.6280 C.3   154  HEM154      0.0000
     23  CAB       40.6150  -29.8570   32.7430 C.2   154  HEM154      0.0000
     24  CBB       40.8240  -29.1570   33.8710 C.2   154  HEM154      0.0000
     25  NC        37.4480  -31.2060   28.5280 N.2   154  HEM154      0.0000
     26  C1C       37.9120  -31.8080   29.6720 C.2   154  HEM154      0.0000
     27  C2C       37.7000  -33.2110   29.5760 C.2   154  HEM154      0.0000
     28  C3C       37.2140  -33.4950   28.3660 C.2   154  HEM154      0.0000
     29  C4C       37.0440  -32.2430   27.6830 C.2   154  HEM154      0.0000
     30  CMC       37.9170  -34.1990   30.7180 C.3   154  HEM154      0.0000
     31  CAC       36.7550  -34.8260   27.7420 C.2   154  HEM154      0.0000
     32  CBC       37.3080  -35.3640   26.6650 C.2   154  HEM154      0.0000
     33  ND        36.3670  -29.7240   26.3180 N.ar  154  HEM154      0.0000
     34  C1D       36.0250  -30.9790   25.8750 C.ar  154  HEM154      0.0000
     35  C2D       35.2490  -30.8580   24.6240 C.ar  154  HEM154      0.0000
     36  C3D       35.2230  -29.5600   24.3210 C.ar  154  HEM154      0.0000
     37  C4D       35.9230  -28.8260   25.3280 C.ar  154  HEM154      0.0000
     38  CMD       34.6830  -32.1000   23.9170 C.3   154  HEM154      0.0000
     39  CAD       34.6240  -28.8890   23.0500 C.3   154  HEM154      0.0000
     40  CBD       34.1880  -29.8920   21.9810 C.3   154  HEM154      0.0000
     41  CGD       34.5250  -29.6930   20.5380 C.2   154  HEM154      0.0000
     42  O1D       35.4710  -28.9290   20.1860 O.co2 154  HEM154      0.0000
     43  O2D       33.8550  -30.4120   19.7220 O.co2 154  HEM154      0.0000
@<TRIPOS>BOND
     1    43    41   ar
     2    42    41   ar
     3    41    40    1
     4    40    39    1
     5    39    36    1
     6    16    14   ar
     7    38    35    1
     8    36    35   ar
     9    36    37   ar
    10    14    15   ar
    11    14    13    1
    12    35    34   ar
    13    12    13    1
    14    12     8    1
    15    37     2    2
    16    37    33   ar
    17     2     7    1
    18    34    33   ar
    19    34     5    2
    20     8     7    1
    21     8     9    2
    22    33     1    1
    23     7     6    2
    24     5    29    1
    25    32    31    2
    26     9    11    1
    27     9    10    1
    28     6     1    1
    29     6    10    1
    30    29    28    1
    31    29    25    2
    32    31    28    1
    33     1    25    1
    34     1    17    1
    35    10     3    2
    36    28    27    2
    37    25    26    1
    38     3    18    1
    39    27    26    1
    40    27    30    1
    41    26     4    2
    42    17    18   ar
    43    17    21   ar
    44    18    19   ar
    45    21     4    1
    46    21    20   ar
    47    19    20   ar
    48    19    22    1
    49    20    23    1
    50    23    24    2
