@<TRIPOS>MOLECULE
1gdl_HEM_A_1.pdb
 43 50 0 0 0
SMALL
GASTEIGER

@<TRIPOS>ATOM
      1 FE         38.0260  -29.5510   28.2480 Fe    154  HEM154      0.0000
      2  CHA       36.6110  -27.7400   25.7710 C.2   154  HEM154      0.0000
      3  CHB       39.5080  -26.9420   29.5950 C.2   154  HEM154      0.0000
      4  CHC       38.9670  -31.5350   30.9310 C.2   154  HEM154      0.0000
      5  CHD       36.7560  -32.4380   26.6970 C.2   154  HEM154      0.0000
      6  NA        38.0320  -27.8010   27.8090 N.2   154  HEM154      0.0000
      7  C1A       37.3920  -27.1770   26.7410 C.2   154  HEM154      0.0000
      8  C2A       37.9000  -25.8350   26.6490 C.2   154  HEM154      0.0000
      9  C3A       38.5840  -25.5530   27.7370 C.2   154  HEM154      0.0000
     10  C4A       38.7310  -26.8210   28.4620 C.2   154  HEM154      0.0000
     11  CMA       39.2070  -24.2100   28.1750 C.3   154  HEM154      0.0000
     12  CAA       37.3290  -24.8000   25.6280 C.3   154  HEM154      0.0000
     13  CBA       36.1820  -24.0080   26.3040 C.3   154  HEM154      0.0000
     14  CGA       35.4560  -23.0640   25.4190 C.2   154  HEM154      0.0000
     15  O1A       34.4010  -23.5310   24.8900 O.co2 154  HEM154      0.0000
     16  O2A       35.9920  -21.9530   25.2340 O.co2 154  HEM154      0.0000
     17  NB        39.0590  -29.3230   29.9810 N.ar  154  HEM154      0.0000
     18  C1B       39.5440  -28.0860   30.3520 C.ar  154  HEM154      0.0000
     19  C2B       40.3880  -28.2680   31.5180 C.ar  154  HEM154      0.0000
     20  C3B       40.2290  -29.5260   31.9150 C.ar  154  HEM154      0.0000
     21  C4B       39.3940  -30.1870   30.9430 C.ar  154  HEM154      0.0000
     22  CMB       41.1660  -27.0530   32.1000 C.3   154  HEM154      0.0000
     23  CAB       40.8540  -30.2210   33.1580 C.3   154  HEM154      0.0000
     24  CBB       41.0460  -29.3090   34.2240 C.3   154  HEM154      0.0000
     25  NC        37.8240  -31.5530   28.7720 N.2   154  HEM154      0.0000
     26  C1C       38.3350  -32.1920   29.8780 C.2   154  HEM154      0.0000
     27  C2C       38.0430  -33.5880   29.8190 C.2   154  HEM154      0.0000
     28  C3C       37.5090  -33.8580   28.5770 C.2   154  HEM154      0.0000
     29  C4C       37.3270  -32.5550   27.9410 C.2   154  HEM154      0.0000
     30  CMC       38.3850  -34.6790   30.8120 C.3   154  HEM154      0.0000
     31  CAC       37.0310  -35.1710   28.0110 C.2   154  HEM154      0.0000
     32  CBC       37.6950  -36.0710   27.2630 C.2   154  HEM154      0.0000
     33  ND        36.9210  -30.0330   26.5360 N.ar  154  HEM154      0.0000
     34  C1D       36.4500  -31.2610   26.1070 C.ar  154  HEM154      0.0000
     35  C2D       35.6680  -31.0620   24.8970 C.ar  154  HEM154      0.0000
     36  C3D       35.6450  -29.7570   24.6590 C.ar  154  HEM154      0.0000
     37  C4D       36.4300  -29.0960   25.6500 C.ar  154  HEM154      0.0000
     38  CMD       34.9850  -32.2400   24.1470 C.3   154  HEM154      0.0000
     39  CAD       35.0210  -29.0120   23.4500 C.3   154  HEM154      0.0000
     40  CBD       36.1020  -28.5280   22.4390 C.3   154  HEM154      0.0000
     41  CGD       35.6260  -28.5970   21.0020 C.2   154  HEM154      0.0000
     42  O1D       34.9670  -29.6110   20.6970 O.co2 154  HEM154      0.0000
     43  O2D       35.8910  -27.6580   20.2000 O.co2 154  HEM154      0.0000
@<TRIPOS>BOND
     1    43    41   ar
     2    42    41   ar
     3    41    40    1
     4    40    39    1
     5    39    36    1
     6    38    35    1
     7    36    35   ar
     8    36    37   ar
     9    15    14   ar
    10    35    34   ar
    11    16    14   ar
    12    14    13    1
    13    12    13    1
    14    12     8    1
    15    37     2    2
    16    37    33   ar
    17     2     7    1
    18    34    33   ar
    19    34     5    2
    20    33     1    1
    21     8     7    1
    22     8     9    2
    23     5    29    1
    24     7     6    2
    25    32    31    2
    26     9    11    1
    27     9    10    1
    28     6     1    1
    29     6    10    1
    30    29    28    1
    31    29    25    2
    32    31    28    1
    33     1    25    1
    34     1    17    1
    35    10     3    2
    36    28    27    2
    37    25    26    1
    38     3    18    1
    39    27    26    1
    40    27    30    1
    41    26     4    2
    42    17    18   ar
    43    17    21   ar
    44    18    19   ar
    45     4    21    1
    46    21    20   ar
    47    19    20   ar
    48    19    22    1
    49    20    23    1
    50    23    24    1
