@<TRIPOS>MOLECULE
1gdn_III_B_1.pdb
 18 17 0 0 0
SMALL
GASTEIGER

@<TRIPOS>ATOM
      1  N         11.4340    0.1950  -10.2610 N.3     1  GLY1       -0.1210
      2  CA        10.0310    0.3670  -10.5910 C.3     1  GLY1        0.1956
      3  C          9.1660    0.5690   -9.3650 C.2     1  GLY1        0.2612
      4  O          7.9610    0.6080   -9.4060 O.2     1  GLY1       -0.2717
      5  N          9.7890    0.7270   -8.2010 N.am    2  ALA2       -0.1965
      6  CA         9.1110    0.8700   -6.9200 C.3     2  ALA2        0.1728
      7  C          8.3030    2.1590   -6.8490 C.2     2  ALA2        0.2612
      8  O          8.7280    3.1950   -7.3200 O.2     2  ALA2       -0.2715
      9  CB        10.1460    0.8000   -5.8040 C.3     2  ALA2        0.0334
     10  N          7.1500    2.0090   -6.1830 N.am    3  LYS3       -0.2031
     11  CA         6.2670    3.1780   -6.0780 C.3     3  LYS3        0.1282
     12  C          6.5060    4.0410   -4.6820 C.3     3  LYS3        0.2036
     13  O          5.6160    4.8590   -4.1830 O.3     3  LYS3       -0.2185
     14  CB         4.8210    2.7390   -6.3810 C.3     3  LYS3        0.0244
     15  CG         4.7130    2.3570   -7.8410 C.3     3  LYS3        0.0034
     16  CD         3.5300    1.4520   -8.1880 C.3     3  LYS3        0.0206
     17  CE         3.4080    1.6190   -9.7010 C.3     3  LYS3        0.1093
     18  NZ         2.1790    1.2470  -10.3570 N.3     3  LYS3       -0.1314
@<TRIPOS>BOND
     1     2     1    1
     2     2     3    1
     3    18    17    1
     4    17    16    1
     5     4     3    2
     6     3     5   am
     7     5     6    1
     8    16    15    1
     9    15    14    1
    10     8     7    2
    11     6     7    1
    12     6     9    1
    13     7    10   am
    14    14    11    1
    15    10    11    1
    16    11    12    1
    17    12    13    1
