@<TRIPOS>MOLECULE
1gdq_ARG_B_1.pdb
 11 10 0 0 0
SMALL
GASTEIGER

@<TRIPOS>ATOM
      1  N          7.0820    2.6850   -6.3780 N.3     3  ARG3       -0.1301
      2  CA         6.0280    3.6090   -5.9350 C.3     3  ARG3        0.1248
      3  C          6.4580    3.7320   -4.4680 C.3     3  ARG3        0.2009
      4  O          5.9750    5.1260   -3.9570 O.3     3  ARG3       -0.2188
      5  CB         4.6550    3.0580   -6.3960 C.3     3  ARG3        0.0254
      6  CG         4.6780    2.5620   -7.8330 C.3     3  ARG3        0.0485
      7  CD         3.2580    2.4270   -8.3680 C.3     3  ARG3        0.2205
      8  NE         3.2380    2.0320   -9.7770 N.pl3   3  ARG3       -0.0865
      9  CZ         2.2180    1.4980  -10.4130 C.cat   3  ARG3        0.5346
     10  NH1        1.1140    1.2890   -9.7190 N.pl3   3  ARG3        0.1354
     11  NH2        2.3340    1.1880  -11.6930 N.pl3   3  ARG3        0.1354
@<TRIPOS>BOND
     1    11     9    1
     2     9     8    2
     3     9    10    1
     4     8     7    1
     5     7     6    1
     6     6     5    1
     7     5     2    1
     8     1     2    1
     9     2     3    1
    10     3     4    1
