@<TRIPOS>MOLECULE
1gdu_III_B_1.pdb
 20 19 0 0 0
SMALL
GASTEIGER

@<TRIPOS>ATOM
      1  N         11.2630    0.8110  -10.5720 N.3     1  GLY1       -0.1210
      2  CA         9.8500    0.5530  -10.7780 C.3     1  GLY1        0.1956
      3  C          9.0610    0.6000   -9.4810 C.2     1  GLY1        0.2612
      4  O          7.8370    0.6540   -9.5050 O.2     1  GLY1       -0.2717
      5  N          9.8050    0.6050   -8.3630 N.am    2  ALA2       -0.1965
      6  CA         9.0740    0.5620   -7.0680 C.3     2  ALA2        0.1728
      7  C          8.3330    1.8740   -6.8600 C.2     2  ALA2        0.2612
      8  O          8.8500    2.9450   -7.1900 O.2     2  ALA2       -0.2715
      9  CB        10.0410    0.1450   -5.9590 C.3     2  ALA2        0.0334
     10  N          7.1010    1.8440   -6.3770 N.am    3  ARG3       -0.2031
     11  CA         6.3290    3.1070   -6.1770 C.3     3  ARG3        0.1283
     12  C          6.7470    3.8320   -4.7870 C.3     3  ARG3        0.2036
     13  O          5.8360    4.6300   -4.3310 O.3     3  ARG3       -0.2185
     14  CB         4.8360    2.7380   -6.4820 C.3     3  ARG3        0.0281
     15  CG         4.7600    2.5350   -8.0030 C.3     3  ARG3        0.0488
     16  CD         3.3230    2.2030   -8.4040 C.3     3  ARG3        0.2205
     17  NE         3.3520    1.8850   -9.8340 N.pl3   3  ARG3       -0.0865
     18  CZ         2.2810    1.5320  -10.5230 C.cat   3  ARG3        0.5346
     19  NH1        1.1460    1.4600   -9.8370 N.pl3   3  ARG3        0.1354
     20  NH2        2.3280    1.2450  -11.8240 N.pl3   3  ARG3        0.1354
@<TRIPOS>BOND
     1    20    18    1
     2     2     1    1
     3     2     3    1
     4    18    19    1
     5    18    17    2
     6    17    16    1
     7     4     3    2
     8     3     5   am
     9    16    15    1
    10     5     6    1
    11    15    14    1
    12     8     7    2
    13     6     7    1
    14     6     9    1
    15     7    10   am
    16    14    11    1
    17    10    11    1
    18    11    12    1
    19    12    13    1
