@<TRIPOS>MOLECULE
1gdv_HEM_A_1.pdb
 43 50 0 0 0
SMALL
GASTEIGER

@<TRIPOS>ATOM
      1 FE         36.9860   18.7520   27.2010 Fe    101  HEM101      0.0000
      2  CHA       39.6050   20.8010   26.3760 C.2   101  HEM101      0.0000
      3  CHB       36.8800   20.0530   30.3090 C.2   101  HEM101      0.0000
      4  CHC       34.1410   16.9310   27.8070 C.2   101  HEM101      0.0000
      5  CHD       37.3530   17.1270   24.2250 C.2   101  HEM101      0.0000
      6  NA        38.0470   20.0620   28.1680 N.2   101  HEM101      0.0000
      7  C1A       39.1220   20.7990   27.7090 C.2   101  HEM101      0.0000
      8  C2A       39.6790   21.6370   28.7980 C.2   101  HEM101      0.0000
      9  C3A       38.8600   21.4640   29.8500 C.2   101  HEM101      0.0000
     10  C4A       37.8670   20.4940   29.4730 C.2   101  HEM101      0.0000
     11  CMA       38.9510   22.1830   31.2190 C.3   101  HEM101      0.0000
     12  CAA       40.9170   22.5710   28.6790 C.3   101  HEM101      0.0000
     13  CBA       42.1940   21.7420   28.8500 C.3   101  HEM101      0.0000
     14  CGA       43.4650   22.5180   28.5720 C.2   101  HEM101      0.0000
     15  O1A       43.3840   23.6870   28.2000 O.co2 101  HEM101      0.0000
     16  O2A       44.5590   21.9520   28.7320 O.co2 101  HEM101      0.0000
     17  NB        35.7610   18.5800   28.6940 N.ar  101  HEM101      0.0000
     18  C1B       35.8960   19.1530   29.9480 C.ar  101  HEM101      0.0000
     19  C2B       34.8300   18.7380   30.8750 C.ar  101  HEM101      0.0000
     20  C3B       33.9690   17.9370   30.1540 C.ar  101  HEM101      0.0000
     21  C4B       34.6070   17.8230   28.7980 C.ar  101  HEM101      0.0000
     22  CMB       34.7200   19.0770   32.3730 C.3   101  HEM101      0.0000
     23  CAB       32.7260   17.3680   30.6060 C.3   101  HEM101      0.0000
     24  CBB       31.6000   18.3860   30.8090 C.3   101  HEM101      0.0000
     25  NC        35.9310   17.3800   26.1950 N.2   101  HEM101      0.0000
     26  C1C       34.7830   16.7210   26.5720 C.2   101  HEM101      0.0000
     27  C2C       34.4080   15.7140   25.6760 C.2   101  HEM101      0.0000
     28  C3C       35.3820   15.7110   24.6870 C.2   101  HEM101      0.0000
     29  C4C       36.2840   16.7650   25.0170 C.2   101  HEM101      0.0000
     30  CMC       33.2120   14.7760   25.8460 C.3   101  HEM101      0.0000
     31  CAC       35.6050   14.7450   23.5920 C.3   101  HEM101      0.0000
     32  CBC       34.4430   14.5050   22.6330 C.3   101  HEM101      0.0000
     33  ND        38.2010   18.9710   25.6260 N.ar  101  HEM101      0.0000
     34  C1D       38.2070   18.2000   24.4710 C.ar  101  HEM101      0.0000
     35  C2D       39.1020   18.7560   23.4910 C.ar  101  HEM101      0.0000
     36  C3D       39.6970   19.8450   24.0630 C.ar  101  HEM101      0.0000
     37  C4D       39.1350   19.9420   25.3970 C.ar  101  HEM101      0.0000
     38  CMD       39.3570   18.1450   22.1160 C.3   101  HEM101      0.0000
     39  CAD       40.7380   20.7850   23.4290 C.3   101  HEM101      0.0000
     40  CBD       39.9190   21.8400   22.6900 C.3   101  HEM101      0.0000
     41  CGD       40.8070   22.7800   21.9030 C.2   101  HEM101      0.0000
     42  O1D       41.6860   23.4130   22.5230 O.co2 101  HEM101      0.0000
     43  O2D       40.6370   22.8710   20.6710 O.co2 101  HEM101      0.0000
@<TRIPOS>BOND
     1    43    41   ar
     2    41    42   ar
     3    41    40    1
     4    38    35    1
     5    32    31    1
     6    40    39    1
     7    39    36    1
     8    35    36   ar
     9    35    34   ar
    10    31    28    1
    11    36    37   ar
    12     5    34    2
    13     5    29    1
    14    34    33   ar
    15    28    29    1
    16    28    27    2
    17    29    25    2
    18    37    33   ar
    19    37     2    2
    20    33     1    1
    21    27    30    1
    22    27    26    1
    23    25    26    1
    24    25     1    1
    25     2     7    1
    26    26     4    2
    27     1     6    1
    28     1    17    1
    29     7     6    2
    30     7     8    1
    31     4    21    1
    32     6    10    1
    33    15    14   ar
    34    14    16   ar
    35    14    13    1
    36    12     8    1
    37    12    13    1
    38    17    21   ar
    39    17    18   ar
    40    21    20   ar
    41     8     9    2
    42    10     9    1
    43    10     3    2
    44     9    11    1
    45    18     3    1
    46    18    19   ar
    47    20    23    1
    48    20    19   ar
    49    23    24    1
    50    19    22    1
