@<TRIPOS>MOLECULE
1ge5_MAN_A_1.pdb
 11 11 0 0 0
SMALL
GASTEIGER

@<TRIPOS>ATOM
      1  C1        -9.9660   10.1150   12.5590 C.3   900  MAN900      0.1777
      2  C2       -10.0440    9.0280   13.5480 C.3   900  MAN900      0.2141
      3  C3       -11.5180    8.4250   13.6450 C.3   900  MAN900      0.2173
      4  C4       -12.6420    9.5150   13.6310 C.3   900  MAN900      0.2142
      5  C5       -12.2760   10.8040   12.9260 C.3   900  MAN900      0.1810
      6  C6       -12.9750   12.0660   13.4040 C.3   900  MAN900      0.2141
      7  O2        -9.6340    9.5750   14.8230 O.3   900  MAN900     -0.2176
      8  O3       -11.6920    7.6330   14.8290 O.3   900  MAN900     -0.2175
      9  O4       -13.7970    9.0110   12.9790 O.3   900  MAN900     -0.2176
     10  O5       -10.8510   11.1850   12.9950 O.3   900  MAN900     -0.3481
     11  O6       -13.2410   13.0370   12.3900 O.3   900  MAN900     -0.2176
@<TRIPOS>BOND
     1    11     6    1
     2     1    10    1
     3     1     2    1
     4     5    10    1
     5     5     6    1
     6     5     4    1
     7     9     4    1
     8     2     3    1
     9     2     7    1
    10     4     3    1
    11     3     8    1
