@<TRIPOS>MOLECULE
1ge6_MAN_A_1.pdb
 11 11 0 0 0
SMALL
GASTEIGER

@<TRIPOS>ATOM
      1  C1        17.6890    6.8280   -1.6190 C.3   900  MAN900      0.1777
      2  C2        17.1980    5.4470   -1.4640 C.3   900  MAN900      0.2141
      3  C3        18.2910    4.4940   -0.8350 C.3   900  MAN900      0.2173
      4  C4        19.7060    4.6830   -1.4700 C.3   900  MAN900      0.2142
      5  C5        20.0000    6.0950   -1.9490 C.3   900  MAN900      0.1810
      6  C6        21.0500    6.2360   -3.0500 C.3   900  MAN900      0.2141
      7  O2        16.8220    4.9540   -2.7620 O.3   900  MAN900     -0.2176
      8  O3        17.9130    3.1200   -0.9790 O.3   900  MAN900     -0.2175
      9  O4        20.7170    4.3460   -0.5250 O.3   900  MAN900     -0.2176
     10  O5        18.8380    6.8160   -2.5110 O.3   900  MAN900     -0.3481
     11  O6        21.4980    7.5690   -3.3270 O.3   900  MAN900     -0.2176
@<TRIPOS>BOND
     1    11     6    1
     2     6     5    1
     3     7     2    1
     4    10     5    1
     5    10     1    1
     6     5     4    1
     7     1     2    1
     8     4     3    1
     9     4     9    1
    10     2     3    1
    11     8     3    1
