@<TRIPOS>MOLECULE
1ge7_MAN_A_1.pdb
 11 11 0 0 0
SMALL
GASTEIGER

@<TRIPOS>ATOM
      1  C1         8.6190    6.8190   13.3280 C.3   900  MAN900      0.1777
      2  C2         8.1150    5.7790   12.4230 C.3   900  MAN900      0.2141
      3  C3         6.5320    5.6290   12.5090 C.3   900  MAN900      0.2173
      4  C4         5.8890    6.0250   13.8940 C.3   900  MAN900      0.2142
      5  C5         6.8360    6.5970   14.9340 C.3   900  MAN900      0.1810
      6  C6         6.7000    6.0900   16.3640 C.3   900  MAN900      0.2141
      7  O2         8.7480    4.5360   12.7800 O.3   900  MAN900     -0.2176
      8  O3         6.1310    4.2900   12.2050 O.3   900  MAN900     -0.2175
      9  O4         4.8700    7.0080   13.6930 O.3   900  MAN900     -0.2176
     10  O5         8.2670    6.4040   14.6620 O.3   900  MAN900     -0.3481
     11  O6         6.8910    7.0640   17.3940 O.3   900  MAN900     -0.2176
@<TRIPOS>BOND
     1     8     3    1
     2     2     3    1
     3     2     7    1
     4     2     1    1
     5     3     4    1
     6     1    10    1
     7     9     4    1
     8     4     5    1
     9    10     5    1
    10     5     6    1
    11     6    11    1
