@<TRIPOS>MOLECULE
1geb_HEM_A_1.pdb
 43 50 0 0 0
SMALL
GASTEIGER

@<TRIPOS>ATOM
      1 FE         46.5960   45.5950    7.7060 Fe    417  HEM417      0.0000
      2  CHA       43.5180   44.1060    7.7730 C.2   417  HEM417      0.0000
      3  CHB       48.0900   42.4900    8.2430 C.2   417  HEM417      0.0000
      4  CHC       49.6060   47.0890    8.3480 C.2   417  HEM417      0.0000
      5  CHD       45.0290   48.7020    8.0780 C.2   417  HEM417      0.0000
      6  NA        45.9580   43.7420    7.9920 N.2   417  HEM417      0.0000
      7  C1A       44.6350   43.2770    7.9280 C.2   417  HEM417      0.0000
      8  C2A       44.5890   41.8110    7.9850 C.2   417  HEM417      0.0000
      9  C3A       45.8740   41.3750    8.0860 C.2   417  HEM417      0.0000
     10  C4A       46.7100   42.5590    8.1390 C.2   417  HEM417      0.0000
     11  CMA       46.3820   39.9310    8.0880 C.3   417  HEM417      0.0000
     12  CAA       43.3530   40.9090    7.8680 C.3   417  HEM417      0.0000
     13  CBA       42.6380   40.6770    9.1850 C.3   417  HEM417      0.0000
     14  CGA       41.4790   39.7070    9.0510 C.2   417  HEM417      0.0000
     15  O1A       41.2540   39.2070    7.9330 O.co2 417  HEM417      0.0000
     16  O2A       40.7910   39.4420   10.0590 O.co2 417  HEM417      0.0000
     17  NB        48.4330   44.9260    8.1350 N.ar  417  HEM417      0.0000
     18  C1B       48.8980   43.6090    8.2250 C.ar  417  HEM417      0.0000
     19  C2B       50.3480   43.5470    8.2650 C.ar  417  HEM417      0.0000
     20  C3B       50.8020   44.8540    8.2910 C.ar  417  HEM417      0.0000
     21  C4B       49.5960   45.6960    8.2460 C.ar  417  HEM417      0.0000
     22  CMB       51.1600   42.2580    8.2270 C.3   417  HEM417      0.0000
     23  CAB       52.1000   45.3440    8.4200 C.3   417  HEM417      0.0000
     24  CBB       53.2700   44.7360    7.9400 C.3   417  HEM417      0.0000
     25  NC        47.1630   47.4530    8.1650 N.2   417  HEM417      0.0000
     26  C1C       48.4840   47.9050    8.2970 C.2   417  HEM417      0.0000
     27  C2C       48.5560   49.3480    8.3050 C.2   417  HEM417      0.0000
     28  C3C       47.2880   49.8160    8.2850 C.2   417  HEM417      0.0000
     29  C4C       46.4200   48.6420    8.2160 C.2   417  HEM417      0.0000
     30  CMC       49.8340   50.1740    8.1500 C.3   417  HEM417      0.0000
     31  CAC       46.9360   51.1640    8.1430 C.3   417  HEM417      0.0000
     32  CBC       46.3420   51.9240    9.1540 C.3   417  HEM417      0.0000
     33  ND        44.7100   46.2500    7.8100 N.ar  417  HEM417      0.0000
     34  C1D       44.2390   47.5710    7.8860 C.ar  417  HEM417      0.0000
     35  C2D       42.8030   47.6280    7.7770 C.ar  417  HEM417      0.0000
     36  C3D       42.3760   46.3590    7.6380 C.ar  417  HEM417      0.0000
     37  C4D       43.5600   45.4940    7.7140 C.ar  417  HEM417      0.0000
     38  CMD       41.9290   48.8720    7.8840 C.3   417  HEM417      0.0000
     39  CAD       40.9160   45.9520    7.4320 C.3   417  HEM417      0.0000
     40  CBD       40.5180   45.5760    6.0170 C.3   417  HEM417      0.0000
     41  CGD       39.1220   44.9720    5.9450 C.2   417  HEM417      0.0000
     42  O1D       38.5040   45.0100    4.8590 O.co2 417  HEM417      0.0000
     43  O2D       38.6420   44.4590    6.9760 O.co2 417  HEM417      0.0000
@<TRIPOS>BOND
     1    42    41   ar
     2    41    40    1
     3    41    43   ar
     4    40    39    1
     5    39    36    1
     6    36    37   ar
     7    36    35   ar
     8     1    33    1
     9     1     6    1
    10     1    17    1
    11     1    25    1
    12    37     2    2
    13    37    33   ar
    14     2     7    1
    15    35    38    1
    16    35    34   ar
    17    33    34   ar
    18    12     8    1
    19    12    13    1
    20    34     5    2
    21     7     8    1
    22     7     6    2
    23    15    14   ar
    24    24    23    1
    25     8     9    2
    26     6    10    1
    27     5    29    1
    28     9    11    1
    29     9    10    1
    30    17    18   ar
    31    17    21   ar
    32    10     3    2
    33    31    28    1
    34    31    32    1
    35    30    27    1
    36    25    29    2
    37    25    26    1
    38    29    28    1
    39    18     3    1
    40    18    19   ar
    41    22    19    1
    42    21    20   ar
    43    21     4    1
    44    19    20   ar
    45    28    27    2
    46    20    23    1
    47    26    27    1
    48    26     4    2
    49    14    13    1
    50    14    16   ar
