@<TRIPOS>MOLECULE
1geb_CAM_A_1.pdb
 11 12 0 0 0
SMALL
GASTEIGER

@<TRIPOS>ATOM
      1  C1        44.2030   44.0240   13.6540 C.3   418  CAM418      0.0515
      2  C2        42.5870   43.9700   13.5670 C.2   418  CAM418      0.1498
      3  O         41.8360   44.1080   14.5130 O.2   418  CAM418     -0.2961
      4  C3        42.3020   43.6980   12.0690 C.3   418  CAM418      0.0645
      5  C4        43.7850   43.6580   11.5060 C.3   418  CAM418      0.0077
      6  C5        44.4110   45.1200   11.4370 C.3   418  CAM418      0.0009
      7  C6        44.6820   45.4020   12.9750 C.3   418  CAM418      0.0069
      8  C7        44.6250   42.9220   12.6270 C.3   418  CAM418      0.0066
      9  C8        44.2130   41.4260   12.9860 C.3   418  CAM418      0.0004
     10  C9        46.1700   42.7240   12.3810 C.3   418  CAM418      0.0004
     11  C10       44.7210   43.9050   15.0980 C.3   418  CAM418      0.0073
@<TRIPOS>BOND
     1     6     5    1
     2     6     7    1
     3     5     4    1
     4     5     8    1
     5     4     2    1
     6    10     8    1
     7     8     9    1
     8     8     1    1
     9     7     1    1
    10     2     1    1
    11     2     3    2
    12     1    11    1
