@<TRIPOS>MOLECULE
1gec_III_I_1.pdb
 30 30 0 0 0
SMALL
GASTEIGER

@<TRIPOS>ATOM
      1  C1        28.2310   43.1880   40.5920 C.2     1  PHQ1        0.4218
      2  O1        27.5770   42.9120   39.5950 O.2     1  PHQ1       -0.2245
      3  O2        28.6460   42.2160   41.4990 O.3     1  PHQ1       -0.4285
      4  C2        28.8490   40.8700   41.0060 C.3     1  PHQ1        0.2368
      5  C3        30.2310   40.2990   41.2580 C.ar    1  PHQ1        0.0213
      6  C4        31.2540   40.3820   40.3300 C.ar    1  PHQ1       -0.0007
      7  C5        32.4500   39.7130   40.5520 C.ar    1  PHQ1       -0.0002
      8  C6        32.6300   38.9490   41.7380 C.ar    1  PHQ1       -0.0000
      9  C7        31.6370   38.8780   42.6660 C.ar    1  PHQ1       -0.0002
     10  C8        30.4490   39.5450   42.4330 C.ar    1  PHQ1       -0.0007
     11  N         28.3640   44.4310   41.0130 N.am    2  LEU2       -0.1611
     12  CA        27.9000   45.5650   40.2170 C.3     2  LEU2        0.1761
     13  C         28.5380   45.7100   38.8140 C.2     2  LEU2        0.2617
     14  O         29.6930   46.0840   38.6470 O.2     2  LEU2       -0.2715
     15  CB        27.9890   46.8370   41.0880 C.3     2  LEU2        0.0312
     16  CG        27.2780   48.1590   40.8030 C.3     2  LEU2        0.0022
     17  CD1       25.8500   47.9640   40.4600 C.3     2  LEU2        0.0001
     18  CD2       27.4470   49.0490   42.0380 C.3     2  LEU2        0.0001
     19  N         27.7260   45.4340   37.8070 N.am    3  VAL3       -0.1963
     20  CA        28.1330   45.4600   36.4010 C.3     3  VAL3        0.1727
     21  C         27.1060   46.2130   35.5310 C.2     3  VAL3        0.2616
     22  O         25.9210   46.2300   35.8310 O.2     3  VAL3       -0.2715
     23  CB        28.2790   44.0020   35.8250 C.3     3  VAL3        0.0290
     24  CG1       29.3440   43.2400   36.5660 C.3     3  VAL3        0.0023
     25  CG2       26.9610   43.2450   35.9360 C.3     3  VAL3        0.0023
     26  N         27.5950   46.8940   34.5000 N.am    4  GLY4       -0.1959
     27  CA        26.7360   47.6060   33.5780 C.3     4  GLY4        0.1792
     28  C         27.1540   47.1760   32.1850 C.2     4  GLY4        0.1729
     29  O         28.3070   47.3620   31.8090 O.2     4  GLY4       -0.2942
     30  C1        26.2890   46.2950   31.3810 C.3     5  0HQ5        0.0742
@<TRIPOS>BOND
     1    30    28    1
     2    29    28    2
     3    28    27    1
     4    27    26    1
     5    26    21   am
     6    21    22    2
     7    21    20    1
     8    23    25    1
     9    23    20    1
    10    23    24    1
    11    20    19    1
    12    19    13   am
    13    14    13    2
    14    13    12    1
    15     2     1    2
    16    12    11    1
    17    12    15    1
    18     6     7   ar
    19     6     5   ar
    20    17    16    1
    21     7     8   ar
    22     1    11   am
    23     1     3    1
    24    16    15    1
    25    16    18    1
    26     4     5    1
    27     4     3    1
    28     5    10   ar
    29     8     9   ar
    30    10     9   ar
