@<TRIPOS>MOLECULE
1ged_HEM_A_1.pdb
 43 50 0 0 0
SMALL
GASTEIGER

@<TRIPOS>ATOM
      1 FE         50.3880   11.2440   20.7810 Fe    501  HEM501      0.0000
      2  CHA       47.9200   10.9270   23.1310 C.2   501  HEM501      0.0000
      3  CHB       48.3970    9.6880   18.4160 C.2   501  HEM501      0.0000
      4  CHC       52.9530   11.1920   18.4700 C.2   501  HEM501      0.0000
      5  CHD       52.6390   12.1000   23.2570 C.2   501  HEM501      0.0000
      6  NA        48.5860   10.5280   20.7640 N.ar  501  HEM501      0.0000
      7  C1A       47.6720   10.4700   21.8320 C.ar  501  HEM501      0.0000
      8  C2A       46.4210    9.8680   21.3980 C.ar  501  HEM501      0.0000
      9  C3A       46.5680    9.4770   20.0810 C.ar  501  HEM501      0.0000
     10  C4A       47.8870    9.9480   19.6780 C.ar  501  HEM501      0.0000
     11  CMA       45.5950    8.6590   19.2180 C.3   501  HEM501      0.0000
     12  CAA       45.1310    9.7990   22.1980 C.3   501  HEM501      0.0000
     13  CBA       44.5120   11.1790   22.3750 C.3   501  HEM501      0.0000
     14  CGA       43.1370   11.1080   23.0050 C.2   501  HEM501      0.0000
     15  O1A       42.1460   11.2090   22.2620 O.co2 501  HEM501      0.0000
     16  O2A       43.0390   10.9490   24.2390 O.co2 501  HEM501      0.0000
     17  NB        50.6730   10.4500   18.9240 N.2   501  HEM501      0.0000
     18  C1B       49.7230    9.8820   18.0720 C.2   501  HEM501      0.0000
     19  C2B       50.2260    9.6890   16.7170 C.2   501  HEM501      0.0000
     20  C3B       51.5260   10.0570   16.7600 C.2   501  HEM501      0.0000
     21  C4B       51.7880   10.5480   18.1080 C.2   501  HEM501      0.0000
     22  CMB       49.4730    9.1960   15.4560 C.3   501  HEM501      0.0000
     23  CAB       52.4670    9.9040   15.7240 C.3   501  HEM501      0.0000
     24  CBB       52.2950   10.3090   14.3720 C.3   501  HEM501      0.0000
     25  NC        52.3100   11.6340   20.8210 N.ar  501  HEM501      0.0000
     26  C1C       53.1910   11.7050   19.7420 C.ar  501  HEM501      0.0000
     27  C2C       54.4800   12.1340   20.1400 C.ar  501  HEM501      0.0000
     28  C3C       54.4280   12.2750   21.4960 C.ar  501  HEM501      0.0000
     29  C4C       53.0920   11.9850   21.9230 C.ar  501  HEM501      0.0000
     30  CMC       55.6750   12.4480   19.2120 C.3   501  HEM501      0.0000
     31  CAC       55.4890   12.6240   22.3100 C.3   501  HEM501      0.0000
     32  CBC       55.7810   13.9680   22.5720 C.3   501  HEM501      0.0000
     33  ND        50.2830   11.5060   22.7530 N.2   501  HEM501      0.0000
     34  C1D       51.3100   11.8940   23.6410 C.2   501  HEM501      0.0000
     35  C2D       50.7850   12.1560   24.9460 C.2   501  HEM501      0.0000
     36  C3D       49.4460   11.8690   24.8970 C.2   501  HEM501      0.0000
     37  C4D       49.1510   11.4260   23.5600 C.2   501  HEM501      0.0000
     38  CMD       51.5690   12.6790   26.1480 C.3   501  HEM501      0.0000
     39  CAD       48.4020   12.0350   26.0240 C.3   501  HEM501      0.0000
     40  CBD       47.7140   13.3870   25.9720 C.3   501  HEM501      0.0000
     41  CGD       46.6490   13.5660   27.0360 C.2   501  HEM501      0.0000
     42  O1D       46.4860   14.7070   27.5170 O.co2 501  HEM501      0.0000
     43  O2D       45.9670   12.5820   27.3890 O.co2 501  HEM501      0.0000
@<TRIPOS>BOND
     1    24    23    1
     2    22    19    1
     3    23    20    1
     4    19    20    2
     5    19    18    1
     6    20    21    1
     7    18     3    1
     8    18    17    2
     9    21     4    2
    10    21    17    1
    11     3    10    2
    12     4    26    1
    13    17     1    1
    14    30    27    1
    15    11     9    1
    16    10     9   ar
    17    10     6   ar
    18    26    27   ar
    19    26    25   ar
    20     9     8   ar
    21    27    28   ar
    22     6     1    1
    23     6     7   ar
    24     1    25    1
    25     1    33    1
    26    25    29   ar
    27     8     7   ar
    28     8    12    1
    29    28    29   ar
    30    28    31    1
    31     7     2    2
    32    29     5    1
    33    12    13    1
    34    15    14   ar
    35    31    32    1
    36    13    14    1
    37    33    37    2
    38    33    34    1
    39    14    16   ar
    40     2    37    1
    41     5    34    2
    42    37    36    1
    43    34    35    1
    44    36    35    2
    45    36    39    1
    46    35    38    1
    47    40    39    1
    48    40    41    1
    49    41    43   ar
    50    41    42   ar
