@<TRIPOS>MOLECULE
1gee_NAD_A_1.pdb
 44 48 0 0 0
SMALL
GASTEIGER

@<TRIPOS>ATOM
      1  PA        36.6510   12.0510   -8.0060 P.3   1262  NAD1262     0.2189
      2  O1A       36.0430   12.5400   -6.7430 O.3   1262  NAD1262    -0.4371
      3  O2A       36.3630   12.8520   -9.2200 O.2   1262  NAD1262    -0.5170
      4  O5B       36.2330   10.5340   -8.3260 O.3   1262  NAD1262    -0.3112
      5  C5B       35.8640    9.6440   -7.2580 C.3   1262  NAD1262     0.1813
      6  C4B       34.4850    9.1180   -7.5630 C.3   1262  NAD1262     0.1821
      7  O4B       34.1570    8.2420   -6.4680 O.3   1262  NAD1262    -0.3135
      8  C3B       33.4100   10.2060   -7.5910 C.3   1262  NAD1262     0.2184
      9  O3B       32.7810   10.2230   -8.8790 O.3   1262  NAD1262    -0.2174
     10  C2B       32.5310    9.8270   -6.4010 C.3   1262  NAD1262     0.2570
     11  O2B       31.1400   10.1740   -6.5990 O.3   1262  NAD1262    -0.2130
     12  C1B       32.7860    8.3430   -6.2780 C.3   1262  NAD1262     0.3186
     13  N9A       32.4790    7.7850   -4.9720 N.pl3 1262  NAD1262    -0.1439
     14  C8A       32.8880    8.2330   -3.7490 C.3   1262  NAD1262     0.3377
     15  N7A       32.4240    7.5100   -2.7400 N.2   1262  NAD1262    -0.2095
     16  C5A       31.6670    6.5330   -3.3520 C.2   1262  NAD1262     0.2526
     17  C6A       30.9140    5.4670   -2.8220 C.2   1262  NAD1262     0.4393
     18  N6A       30.7720    5.1750   -1.5450 N.pl3 1262  NAD1262     0.2180
     19  N1A       30.2590    4.6490   -3.7090 N.2   1262  NAD1262     0.0021
     20  C2A       30.3890    4.9340   -5.0460 C.3   1262  NAD1262     0.5254
     21  N3A       31.0570    5.8970   -5.6470 N.2   1262  NAD1262    -0.0055
     22  C4A       31.6890    6.6780   -4.7310 C.2   1262  NAD1262     0.3518
     23  O3        38.1690   11.8810   -7.7810 O.3   1262  NAD1262    -0.2703
     24  PN        39.3600   11.3660   -8.7650 P.3   1262  NAD1262     0.2189
     25  O1N       40.3320   12.4580   -8.8070 O.3   1262  NAD1262    -0.4371
     26  O2N       38.7640   11.0370  -10.0910 O.2   1262  NAD1262    -0.5170
     27  O5D       39.9080   10.1580   -7.9180 O.3   1262  NAD1262    -0.3112
     28  C5D       39.7750    8.8480   -8.4790 C.3   1262  NAD1262     0.1813
     29  C4D       40.4360    7.8720   -7.5450 C.3   1262  NAD1262     0.1799
     30  O4D       41.8480    8.1630   -7.7120 O.3   1262  NAD1262    -0.3327
     31  C3D       40.1860    8.0080   -6.0370 C.3   1262  NAD1262     0.2158
     32  O3D       40.2750    6.7120   -5.4260 O.3   1262  NAD1262    -0.2175
     33  C2D       41.3300    8.9080   -5.5900 C.3   1262  NAD1262     0.2309
     34  O2D       41.6280    8.7090   -4.1940 O.3   1262  NAD1262    -0.2158
     35  C1D       42.4410    8.4470   -6.4780 C.3   1262  NAD1262     0.2263
     36  N1N       43.4830    9.4500   -6.6470 N.pl3 1262  NAD1262    -0.2787
     37  C2N       43.2660   10.6810   -7.2990 C.3   1262  NAD1262     0.1244
     38  C3N       44.3660   11.6800   -7.4220 C.2   1262  NAD1262     0.0544
     39  C7N       44.0780   12.9510   -8.1070 C.2   1262  NAD1262     0.2818
     40  O7N       45.0120   13.7620   -8.1860 O.2   1262  NAD1262    -0.2670
     41  N7N       42.8910   13.2550   -8.6320 N.am  1262  NAD1262    -0.0839
     42  C4N       45.7280   11.3360   -6.8690 C.2   1262  NAD1262     0.0033
     43  C5N       45.7780    9.9980   -6.2300 C.2   1262  NAD1262     0.0157
     44  C6N       44.7730    9.1600   -6.1300 C.2   1262  NAD1262     0.0633
@<TRIPOS>BOND
     1    26    24    2
     2     3     1    2
     3     9     8    1
     4    25    24    1
     5    24    27    1
     6    24    23    1
     7    41    39   am
     8    28    27    1
     9    28    29    1
    10     4     1    1
    11     4     5    1
    12    40    39    2
    13    39    38    1
    14     1    23    1
    15     1     2    1
    16    30    29    1
    17    30    35    1
    18     8     6    1
    19     8    10    1
    20     6     5    1
    21     6     7    1
    22    29    31    1
    23    38    37    1
    24    38    42    2
    25    37    36    1
    26    42    43    1
    27    36    35    1
    28    36    44    1
    29    11    10    1
    30    35    33    1
    31     7    12    1
    32    10    12    1
    33    12    13    1
    34    43    44    2
    35    31    33    1
    36    31    32    1
    37    21    20    1
    38    21    22    2
    39    33    34    1
    40    20    19    1
    41    13    22    1
    42    13    14    1
    43    22    16    1
    44    14    15    1
    45    19    17    2
    46    16    17    1
    47    16    15    2
    48    17    18    1
