@<TRIPOS>MOLECULE
1geg_GLC_A_1.pdb
 12 12 0 0 0
SMALL
GASTEIGER

@<TRIPOS>ATOM
      1  C1        35.3580    4.6500  -13.9680 C.3   302  GLC302      0.3024
      2  C2        36.6770    3.9760  -14.3690 C.3   302  GLC302      0.2434
      3  C3        36.8630    2.6460  -13.6310 C.3   302  GLC302      0.2199
      4  C4        36.6660    2.8310  -12.1250 C.3   302  GLC302      0.2144
      5  C5        35.3220    3.5100  -11.8580 C.3   302  GLC302      0.1836
      6  C6        35.0860    3.7810  -10.3850 C.3   302  GLC302      0.2142
      7  O1        34.2930    3.8820  -14.3980 O.3   302  GLC302     -0.1869
      8  O2        36.6790    3.7380  -15.7680 O.3   302  GLC302     -0.2148
      9  O3        38.1690    2.1440  -13.8790 O.3   302  GLC302     -0.2174
     10  O4        36.7030    1.5670  -11.4770 O.3   302  GLC302     -0.2176
     11  O5        35.2680    4.7820  -12.5410 O.3   302  GLC302     -0.3236
     12  O6        35.8470    4.8940   -9.9390 O.3   302  GLC302     -0.2176
@<TRIPOS>BOND
     1     8     2    1
     2     7     1    1
     3     2     1    1
     4     2     3    1
     5     1    11    1
     6     9     3    1
     7     3     4    1
     8    11     5    1
     9     4     5    1
    10     4    10    1
    11     5     6    1
    12     6    12    1
