@<TRIPOS>MOLECULE
1geg_NAD_A_1.pdb
 44 48 0 0 0
SMALL
GASTEIGER

@<TRIPOS>ATOM
      1  PA        24.5270  -18.2970   -1.5060 P.3   2001  NAD2001     0.2189
      2  O1A       25.5100  -18.1970   -0.4010 O.3   2001  NAD2001    -0.4371
      3  O2A       23.9270  -19.6380   -1.7390 O.2   2001  NAD2001    -0.5170
      4  O5B       25.1740  -17.7850   -2.8830 O.3   2001  NAD2001    -0.3112
      5  C5B       25.9400  -16.5640   -2.8500 C.3   2001  NAD2001     0.1813
      6  C4B       26.8060  -16.4340   -4.0840 C.3   2001  NAD2001     0.1821
      7  O4B       27.4910  -15.1860   -3.8460 O.3   2001  NAD2001    -0.3135
      8  C3B       27.8750  -17.5180   -4.1800 C.3   2001  NAD2001     0.2184
      9  O3B       27.7900  -18.1350   -5.4790 O.3   2001  NAD2001    -0.2174
     10  C2B       29.1620  -16.7480   -3.8880 C.3   2001  NAD2001     0.2570
     11  O2B       30.3040  -17.2910   -4.5730 O.3   2001  NAD2001    -0.2130
     12  C1B       28.8090  -15.3240   -4.2790 C.3   2001  NAD2001     0.3186
     13  N9A       29.5880  -14.3080   -3.5790 N.pl3 2001  NAD2001    -0.1439
     14  C8A       29.7780  -14.1930   -2.2310 C.3   2001  NAD2001     0.3377
     15  N7A       30.5480  -13.1700   -1.8830 N.2   2001  NAD2001    -0.2095
     16  C5A       30.8790  -12.5830   -3.0850 C.2   2001  NAD2001     0.2526
     17  C6A       31.6760  -11.4610   -3.3790 C.2   2001  NAD2001     0.4393
     18  N6A       32.3050  -10.7050   -2.5020 N.pl3 2001  NAD2001     0.2180
     19  N1A       31.8210  -11.1160   -4.6990 N.2   2001  NAD2001     0.0021
     20  C2A       31.1760  -11.8960   -5.6320 C.3   2001  NAD2001     0.5254
     21  N3A       30.4140  -12.9600   -5.4750 N.2   2001  NAD2001    -0.0055
     22  C4A       30.2980  -13.2630   -4.1530 C.2   2001  NAD2001     0.3518
     23  O3        23.4170  -17.2310   -1.2450 O.3   2001  NAD2001    -0.2703
     24  PN        21.8600  -17.0890   -1.7470 P.3   2001  NAD2001     0.2189
     25  O1N       21.8220  -17.5170   -3.1550 O.2   2001  NAD2001    -0.5170
     26  O2N       21.0100  -17.8830   -0.8380 O.3   2001  NAD2001    -0.4371
     27  O5D       21.7320  -15.5150   -1.5760 O.3   2001  NAD2001    -0.3112
     28  C5D       21.5710  -14.7040   -2.7450 C.3   2001  NAD2001     0.1813
     29  C4D       21.1650  -13.3120   -2.3040 C.3   2001  NAD2001     0.1799
     30  O4D       19.8180  -13.4280   -1.7740 O.3   2001  NAD2001    -0.3327
     31  C3D       21.9760  -12.6560   -1.1790 C.3   2001  NAD2001     0.2158
     32  O3D       22.0600  -11.2400   -1.3940 O.3   2001  NAD2001    -0.2175
     33  C2D       21.1540  -12.9840    0.0570 C.3   2001  NAD2001     0.2309
     34  O2D       21.4020  -12.0270    1.1060 O.3   2001  NAD2001    -0.2158
     35  C1D       19.7650  -12.8960   -0.4770 C.3   2001  NAD2001     0.2263
     36  N1N       18.8000  -13.6330    0.3180 N.pl3 2001  NAD2001    -0.2787
     37  C2N       18.8870  -15.0200    0.5420 C.3   2001  NAD2001     0.1244
     38  C3N       17.8940  -15.7150    1.4050 C.2   2001  NAD2001     0.0544
     39  C7N       18.0640  -17.1600    1.6320 C.2   2001  NAD2001     0.2818
     40  O7N       17.2290  -17.7100    2.3690 O.2   2001  NAD2001    -0.2670
     41  N7N       19.0560  -17.8810    1.0960 N.am  2001  NAD2001    -0.0839
     42  C4N       16.7190  -14.9240    1.9430 C.2   2001  NAD2001     0.0033
     43  C5N       16.7890  -13.4800    1.6110 C.2   2001  NAD2001     0.0157
     44  C6N       17.7180  -12.9070    0.8840 C.2   2001  NAD2001     0.0633
@<TRIPOS>BOND
     1    20    21    1
     2    20    19    1
     3     9     8    1
     4    21    22    2
     5    19    17    2
     6    11    10    1
     7    12    10    1
     8    12     7    1
     9    12    13    1
    10     8     6    1
    11     8    10    1
    12    22    13    1
    13    22    16    1
    14     6     7    1
    15     6     5    1
    16    13    14    1
    17    17    16    1
    18    17    18    1
    19    25    24    2
    20    16    15    2
    21     4     5    1
    22     4     1    1
    23    28    29    1
    24    28    27    1
    25    29    30    1
    26    29    31    1
    27    14    15    1
    28    30    35    1
    29    24    27    1
    30    24    23    1
    31    24    26    1
    32     3     1    2
    33     1    23    1
    34     1     2    1
    35    32    31    1
    36    31    33    1
    37    35    33    1
    38    35    36    1
    39    33    34    1
    40    36    37    1
    41    36    44    1
    42    37    38    1
    43    44    43    2
    44    41    39   am
    45    38    39    1
    46    38    42    2
    47    43    42    1
    48    39    40    2
