@<TRIPOS>MOLECULE
1gei_HEM_A_1.pdb
 43 50 0 0 0
SMALL
GASTEIGER

@<TRIPOS>ATOM
      1 FE         51.8310   11.0930   20.6380 Fe    501  HEM501      0.0000
      2  CHA       49.2910   10.9570   22.9080 C.2   501  HEM501      0.0000
      3  CHB       49.7420    9.7140   18.2040 C.2   501  HEM501      0.0000
      4  CHC       54.3300   11.3870   18.2860 C.2   501  HEM501      0.0000
      5  CHD       53.9710   12.2510   23.0650 C.2   501  HEM501      0.0000
      6  NA        49.9340   10.4870   20.5720 N.ar  501  HEM501      0.0000
      7  C1A       49.0160   10.5270   21.6060 C.ar  501  HEM501      0.0000
      8  C2A       47.7520    9.9170   21.1780 C.ar  501  HEM501      0.0000
      9  C3A       47.8620    9.5240   19.8940 C.ar  501  HEM501      0.0000
     10  C4A       49.2300    9.9070   19.4930 C.ar  501  HEM501      0.0000
     11  CMA       46.8060    8.7870   19.0800 C.3   501  HEM501      0.0000
     12  CAA       46.5040    9.7800   22.0190 C.3   501  HEM501      0.0000
     13  CBA       45.8480   11.1410   22.1350 C.3   501  HEM501      0.0000
     14  CGA       44.4950   11.0670   22.8150 C.2   501  HEM501      0.0000
     15  O1A       43.4810   11.4650   22.1900 O.co2 501  HEM501      0.0000
     16  O2A       44.4470   10.6060   23.9750 O.co2 501  HEM501      0.0000
     17  NB        52.0000   10.6320   18.6820 N.2   501  HEM501      0.0000
     18  C1B       51.0330   10.0520   17.8270 C.2   501  HEM501      0.0000
     19  C2B       51.5820    9.8130   16.4960 C.2   501  HEM501      0.0000
     20  C3B       52.8750   10.2780   16.5170 C.2   501  HEM501      0.0000
     21  C4B       53.1200   10.8040   17.8750 C.2   501  HEM501      0.0000
     22  CMB       50.8740    9.1810   15.2900 C.3   501  HEM501      0.0000
     23  CAB       53.8320   10.2140   15.4880 C.3   501  HEM501      0.0000
     24  CBB       53.6000   10.4390   14.1210 C.3   501  HEM501      0.0000
     25  NC        53.7260   11.7370   20.6490 N.ar  501  HEM501      0.0000
     26  C1C       54.6070   11.8480   19.5760 C.ar  501  HEM501      0.0000
     27  C2C       55.9090   12.3480   20.0150 C.ar  501  HEM501      0.0000
     28  C3C       55.8390   12.5030   21.3920 C.ar  501  HEM501      0.0000
     29  C4C       54.4730   12.1490   21.7600 C.ar  501  HEM501      0.0000
     30  CMC       57.0800   12.6950   19.0940 C.3   501  HEM501      0.0000
     31  CAC       56.8470   12.8570   22.3060 C.3   501  HEM501      0.0000
     32  CBC       57.5660   14.0440   22.2780 C.3   501  HEM501      0.0000
     33  ND        51.6810   11.4800   22.5840 N.2   501  HEM501      0.0000
     34  C1D       52.6760   11.9280   23.4510 C.2   501  HEM501      0.0000
     35  C2D       52.1590   12.1030   24.8000 C.2   501  HEM501      0.0000
     36  C3D       50.8340   11.7700   24.7520 C.2   501  HEM501      0.0000
     37  C4D       50.5440   11.3790   23.3730 C.2   501  HEM501      0.0000
     38  CMD       52.9310   12.5790   26.0270 C.3   501  HEM501      0.0000
     39  CAD       49.8200   11.8900   25.8810 C.3   501  HEM501      0.0000
     40  CBD       49.1370   13.2480   25.8550 C.3   501  HEM501      0.0000
     41  CGD       48.0600   13.3780   26.9140 C.2   501  HEM501      0.0000
     42  O1D       47.8250   14.5020   27.3820 O.co2 501  HEM501      0.0000
     43  O2D       47.4470   12.3520   27.2750 O.co2 501  HEM501      0.0000
@<TRIPOS>BOND
     1    24    23    1
     2    22    19    1
     3    23    20    1
     4    19    20    2
     5    19    18    1
     6    20    21    1
     7    18     3    1
     8    18    17    2
     9    21     4    2
    10    21    17    1
    11     3    10    2
    12     4    26    1
    13    17     1    1
    14    11     9    1
    15    30    27    1
    16    10     9   ar
    17    10     6   ar
    18    26    27   ar
    19    26    25   ar
    20     9     8   ar
    21    27    28   ar
    22     6     1    1
    23     6     7   ar
    24     1    25    1
    25     1    33    1
    26    25    29   ar
    27     8     7   ar
    28     8    12    1
    29    28    29   ar
    30    28    31    1
    31     7     2    2
    32    29     5    1
    33    12    13    1
    34    13    14    1
    35    15    14   ar
    36    32    31    1
    37    33    37    2
    38    33    34    1
    39    14    16   ar
    40     2    37    1
    41     5    34    2
    42    37    36    1
    43    34    35    1
    44    36    35    2
    45    36    39    1
    46    35    38    1
    47    40    39    1
    48    40    41    1
    49    41    43   ar
    50    41    42   ar
