@<TRIPOS>MOLECULE
1gej_HEM_A_1.pdb
 43 50 0 0 0
SMALL
GASTEIGER

@<TRIPOS>ATOM
      1 FE         51.7580   11.2370   20.5090 Fe    501  HEM501      0.0000
      2  CHA       49.2380   11.0420   22.8170 C.2   501  HEM501      0.0000
      3  CHB       49.6980    9.7890   18.1200 C.2   501  HEM501      0.0000
      4  CHC       54.2930   11.4750   18.1820 C.2   501  HEM501      0.0000
      5  CHD       53.9120   12.3560   22.9470 C.2   501  HEM501      0.0000
      6  NA        49.8700   10.6030   20.4620 N.ar  501  HEM501      0.0000
      7  C1A       48.9610   10.6020   21.5140 C.ar  501  HEM501      0.0000
      8  C2A       47.7090    9.9500   21.1110 C.ar  501  HEM501      0.0000
      9  C3A       47.8430    9.5640   19.8200 C.ar  501  HEM501      0.0000
     10  C4A       49.1800   10.0050   19.3970 C.ar  501  HEM501      0.0000
     11  CMA       46.8250    8.7870   18.9950 C.3   501  HEM501      0.0000
     12  CAA       46.4630    9.8400   21.9460 C.3   501  HEM501      0.0000
     13  CBA       45.7830   11.1970   22.0070 C.3   501  HEM501      0.0000
     14  CGA       44.4540   11.1330   22.7300 C.2   501  HEM501      0.0000
     15  O1A       43.4180   11.4930   22.1230 O.co2 501  HEM501      0.0000
     16  O2A       44.4420   10.7210   23.9070 O.co2 501  HEM501      0.0000
     17  NB        51.9700   10.7270   18.5850 N.2   501  HEM501      0.0000
     18  C1B       50.9930   10.1340   17.7320 C.2   501  HEM501      0.0000
     19  C2B       51.5400    9.8940   16.4010 C.2   501  HEM501      0.0000
     20  C3B       52.8490   10.3440   16.4340 C.2   501  HEM501      0.0000
     21  C4B       53.0930   10.8780   17.7800 C.2   501  HEM501      0.0000
     22  CMB       50.8270    9.2970   15.1850 C.3   501  HEM501      0.0000
     23  CAB       53.8160   10.2480   15.4220 C.3   501  HEM501      0.0000
     24  CBB       53.6050   10.6050   14.0930 C.3   501  HEM501      0.0000
     25  NC        53.6610   11.8460   20.5420 N.ar  501  HEM501      0.0000
     26  C1C       54.5570   11.9330   19.4730 C.ar  501  HEM501      0.0000
     27  C2C       55.8640   12.4110   19.9200 C.ar  501  HEM501      0.0000
     28  C3C       55.7670   12.5800   21.2820 C.ar  501  HEM501      0.0000
     29  C4C       54.4090   12.2510   21.6480 C.ar  501  HEM501      0.0000
     30  CMC       57.0440   12.7260   19.0090 C.3   501  HEM501      0.0000
     31  CAC       56.7480   12.9780   22.1920 C.3   501  HEM501      0.0000
     32  CBC       57.6030   14.0470   21.9770 C.3   501  HEM501      0.0000
     33  ND        51.6100   11.6290   22.4560 N.2   501  HEM501      0.0000
     34  C1D       52.5960   12.0790   23.3200 C.2   501  HEM501      0.0000
     35  C2D       52.0930   12.2340   24.6670 C.2   501  HEM501      0.0000
     36  C3D       50.7900   11.8770   24.6350 C.2   501  HEM501      0.0000
     37  C4D       50.4890   11.4900   23.2620 C.2   501  HEM501      0.0000
     38  CMD       52.8760   12.6880   25.8940 C.3   501  HEM501      0.0000
     39  CAD       49.8020   11.9930   25.7790 C.3   501  HEM501      0.0000
     40  CBD       49.0750   13.3210   25.7100 C.3   501  HEM501      0.0000
     41  CGD       47.9870   13.4460   26.7560 C.2   501  HEM501      0.0000
     42  O1D       47.7290   14.5760   27.2060 O.co2 501  HEM501      0.0000
     43  O2D       47.3880   12.4130   27.1270 O.co2 501  HEM501      0.0000
@<TRIPOS>BOND
     1    24    23    1
     2    22    19    1
     3    23    20    1
     4    19    20    2
     5    19    18    1
     6    20    21    1
     7    18     3    1
     8    18    17    2
     9    21     4    2
    10    21    17    1
    11     3    10    2
    12     4    26    1
    13    17     1    1
    14    11     9    1
    15    30    27    1
    16    10     9   ar
    17    10     6   ar
    18    26    27   ar
    19    26    25   ar
    20     9     8   ar
    21    27    28   ar
    22     6     1    1
    23     6     7   ar
    24     1    25    1
    25     1    33    1
    26    25    29   ar
    27     8     7   ar
    28     8    12    1
    29    28    29   ar
    30    28    31    1
    31     7     2    2
    32    29     5    1
    33    12    13    1
    34    32    31    1
    35    13    14    1
    36    15    14   ar
    37    33    37    2
    38    33    34    1
    39    14    16   ar
    40     2    37    1
    41     5    34    2
    42    37    36    1
    43    34    35    1
    44    36    35    2
    45    36    39    1
    46    35    38    1
    47    40    39    1
    48    40    41    1
    49    41    43   ar
    50    41    42   ar
