@<TRIPOS>MOLECULE
1gek_HEM_A_1.pdb
 43 50 0 0 0
SMALL
GASTEIGER

@<TRIPOS>ATOM
      1 FE          6.0680    5.8520    9.1740 Fe    417  HEM417      0.0000
      2  CHA        9.2650    7.2290    8.8570 C.2   417  HEM417      0.0000
      3  CHB        4.7410    8.9720    9.2900 C.2   417  HEM417      0.0000
      4  CHC        2.9270    4.4610    9.3830 C.2   417  HEM417      0.0000
      5  CHD        7.4060    2.6940    9.3430 C.2   417  HEM417      0.0000
      6  NA         6.8730    7.6890    9.1720 N.2   417  HEM417      0.0000
      7  C1A        8.1870    8.0950    8.9790 C.2   417  HEM417      0.0000
      8  C2A        8.2590    9.5650    8.8750 C.2   417  HEM417      0.0000
      9  C3A        6.9870   10.0180    9.0320 C.2   417  HEM417      0.0000
     10  C4A        6.1400    8.8660    9.2430 C.2   417  HEM417      0.0000
     11  CMA        6.4830   11.4730    8.9170 C.3   417  HEM417      0.0000
     12  CAA        9.5080   10.4180    8.6730 C.3   417  HEM417      0.0000
     13  CBA       10.0470   10.9180    9.9990 C.3   417  HEM417      0.0000
     14  CGA       11.3450   11.6760    9.8490 C.2   417  HEM417      0.0000
     15  O1A       11.7030   12.0540    8.7170 O.co2 417  HEM417      0.0000
     16  O2A       12.0110   11.8970   10.8700 O.co2 417  HEM417      0.0000
     17  NB         4.2430    6.5500    9.3300 N.ar  417  HEM417      0.0000
     18  C1B        3.8570    7.9020    9.3120 C.ar  417  HEM417      0.0000
     19  C2B        2.4210    8.0290    9.2720 C.ar  417  HEM417      0.0000
     20  C3B        1.8950    6.7530    9.2820 C.ar  417  HEM417      0.0000
     21  C4B        3.0400    5.8590    9.3320 C.ar  417  HEM417      0.0000
     22  CMB        1.5700    9.2950    9.1480 C.3   417  HEM417      0.0000
     23  CAB        0.5590    6.3420    9.2380 C.3   417  HEM417      0.0000
     24  CBB       -0.6330    7.0440    9.0500 C.3   417  HEM417      0.0000
     25  NC         5.3320    3.9810    9.4430 N.2   417  HEM417      0.0000
     26  C1C        4.0140    3.6040    9.4720 C.2   417  HEM417      0.0000
     27  C2C        3.8840    2.1690    9.5690 C.2   417  HEM417      0.0000
     28  C3C        5.1150    1.6530    9.6510 C.2   417  HEM417      0.0000
     29  C4C        6.0390    2.7880    9.5370 C.2   417  HEM417      0.0000
     30  CMC        2.5650    1.4130    9.5830 C.3   417  HEM417      0.0000
     31  CAC        5.3510    0.2800    9.8370 C.3   417  HEM417      0.0000
     32  CBC        6.1970   -0.2340   10.8330 C.3   417  HEM417      0.0000
     33  ND         7.8600    5.1610    9.0190 N.ar  417  HEM417      0.0000
     34  C1D        8.2420    3.7770    9.0660 C.ar  417  HEM417      0.0000
     35  C2D        9.6570    3.6340    8.8930 C.ar  417  HEM417      0.0000
     36  C3D       10.1700    4.8680    8.7830 C.ar  417  HEM417      0.0000
     37  C4D        9.0860    5.8360    8.8780 C.ar  417  HEM417      0.0000
     38  CMD       10.4700    2.3390    8.8610 C.3   417  HEM417      0.0000
     39  CAD       11.6310    5.1670    8.5920 C.3   417  HEM417      0.0000
     40  CBD       12.0850    5.5540    7.1840 C.3   417  HEM417      0.0000
     41  CGD       13.4850    6.1520    7.1790 C.2   417  HEM417      0.0000
     42  O1D       14.1310    6.1630    6.1150 O.co2 417  HEM417      0.0000
     43  O2D       13.9470    6.6150    8.2460 O.co2 417  HEM417      0.0000
@<TRIPOS>BOND
     1    42    41   ar
     2    41    40    1
     3    41    43   ar
     4    40    39    1
     5    39    36    1
     6    12     8    1
     7    12    13    1
     8    15    14   ar
     9    36    37   ar
    10    36    35   ar
    11     2    37    2
    12     2     7    1
    13    38    35    1
    14     8     7    1
    15     8     9    2
    16    37    33   ar
    17    35    34   ar
    18    11     9    1
    19     7     6    2
    20    33    34   ar
    21    33     1    1
    22     9    10    1
    23    24    23    1
    24    34     5    2
    25    22    19    1
    26     6     1    1
    27     6    10    1
    28     1    17    1
    29     1    25    1
    30    23    20    1
    31    10     3    2
    32    19    20   ar
    33    19    18   ar
    34    20    21   ar
    35     3    18    1
    36    18    17   ar
    37    17    21   ar
    38    21     4    1
    39     5    29    1
    40     4    26    2
    41    25    26    1
    42    25    29    2
    43    26    27    1
    44    29    28    1
    45    27    30    1
    46    27    28    2
    47    28    31    1
    48    31    32    1
    49    14    13    1
    50    14    16   ar
