@<TRIPOS>MOLECULE
1gem_HEM_A_1.pdb
 43 50 0 0 0
SMALL
GASTEIGER

@<TRIPOS>ATOM
      1 FE         48.3970   46.4870    8.8550 Fe    417  HEM417      0.0000
      2  CHA       45.2740   45.0820    8.6680 C.2   417  HEM417      0.0000
      3  CHB       49.7880   43.3130    9.0230 C.2   417  HEM417      0.0000
      4  CHC       51.4800   47.8650    9.2860 C.2   417  HEM417      0.0000
      5  CHD       46.9460   49.6280    9.1530 C.2   417  HEM417      0.0000
      6  NA        47.6860   44.6180    8.8870 N.2   417  HEM417      0.0000
      7  C1A       46.3620   44.2160    8.7620 C.2   417  HEM417      0.0000
      8  C2A       46.2580   42.7730    8.7340 C.2   417  HEM417      0.0000
      9  C3A       47.5310   42.2900    8.8600 C.2   417  HEM417      0.0000
     10  C4A       48.4060   43.4300    8.9510 C.2   417  HEM417      0.0000
     11  CMA       48.0070   40.8500    8.8810 C.3   417  HEM417      0.0000
     12  CAA       44.9680   41.9770    8.5940 C.3   417  HEM417      0.0000
     13  CBA       44.3870   41.5900    9.9450 C.3   417  HEM417      0.0000
     14  CGA       43.1680   40.6870    9.8260 C.2   417  HEM417      0.0000
     15  O1A       42.8720   40.2220    8.7010 O.co2 417  HEM417      0.0000
     16  O2A       42.5090   40.4460   10.8610 O.co2 417  HEM417      0.0000
     17  NB        50.2420   45.7410    9.0950 N.ar  417  HEM417      0.0000
     18  C1B       50.6540   44.4010    9.0930 C.ar  417  HEM417      0.0000
     19  C2B       52.1110   44.2840    9.1310 C.ar  417  HEM417      0.0000
     20  C3B       52.6010   45.5740    9.1930 C.ar  417  HEM417      0.0000
     21  C4B       51.4270   46.4640    9.1920 C.ar  417  HEM417      0.0000
     22  CMB       52.8910   42.9720    9.0440 C.3   417  HEM417      0.0000
     23  CAB       53.9160   46.0450    9.2000 C.3   417  HEM417      0.0000
     24  CBB       55.0910   45.3300    8.9780 C.3   417  HEM417      0.0000
     25  NC        49.0450   48.3280    9.3020 N.2   417  HEM417      0.0000
     26  C1C       50.3720   48.7320    9.3590 C.2   417  HEM417      0.0000
     27  C2C       50.4720   50.1870    9.4810 C.2   417  HEM417      0.0000
     28  C3C       49.1970   50.6760    9.5630 C.2   417  HEM417      0.0000
     29  C4C       48.3080   49.5180    9.4330 C.2   417  HEM417      0.0000
     30  CMC       51.7570   51.0130    9.4380 C.3   417  HEM417      0.0000
     31  CAC       48.8510   52.0200    9.6720 C.3   417  HEM417      0.0000
     32  CBC       48.5010   52.5730   10.9090 C.3   417  HEM417      0.0000
     33  ND        46.5510   47.2080    8.7710 N.ar  417  HEM417      0.0000
     34  C1D       46.1400   48.5490    8.8030 C.ar  417  HEM417      0.0000
     35  C2D       44.7050   48.6560    8.6560 C.ar  417  HEM417      0.0000
     36  C3D       44.2230   47.3810    8.6240 C.ar  417  HEM417      0.0000
     37  C4D       45.3680   46.4800    8.6840 C.ar  417  HEM417      0.0000
     38  CMD       43.8980   49.9430    8.5020 C.3   417  HEM417      0.0000
     39  CAD       42.7630   46.9650    8.5510 C.3   417  HEM417      0.0000
     40  CBD       42.2840   46.7280    7.1290 C.3   417  HEM417      0.0000
     41  CGD       40.8810   46.1380    7.0760 C.2   417  HEM417      0.0000
     42  O1D       40.2060   46.3150    6.0420 O.co2 417  HEM417      0.0000
     43  O2D       40.4550   45.5000    8.0660 O.co2 417  HEM417      0.0000
@<TRIPOS>BOND
     1    42    41   ar
     2    41    40    1
     3    41    43   ar
     4    40    39    1
     5    38    35    1
     6    39    36    1
     7    12     8    1
     8    12    13    1
     9    36    35   ar
    10    36    37   ar
    11    35    34   ar
    12     2    37    2
    13     2     7    1
    14    37    33   ar
    15    15    14   ar
    16     8     7    1
    17     8     9    2
    18     7     6    2
    19    33    34   ar
    20    33     1    1
    21    34     5    2
    22     1     6    1
    23     1    17    1
    24     1    25    1
    25     9    11    1
    26     9    10    1
    27     6    10    1
    28    10     3    2
    29    24    23    1
    30     3    18    1
    31    22    19    1
    32    18    17   ar
    33    18    19   ar
    34    17    21   ar
    35    19    20   ar
    36     5    29    1
    37    21    20   ar
    38    21     4    1
    39    20    23    1
    40     4    26    2
    41    25    26    1
    42    25    29    2
    43    26    27    1
    44    29    28    1
    45    30    27    1
    46    27    28    2
    47    28    31    1
    48    31    32    1
    49    14    13    1
    50    14    16   ar
