@<TRIPOS>MOLECULE
1get_NAP_A_1.pdb
 48 52 0 0 0
SMALL
GASTEIGER

@<TRIPOS>ATOM
      1  PA        21.0560   24.0790   -1.2600 P.3   452  NAP452      0.2189
      2  O1A       21.6710   22.8890   -0.6260 O.2   452  NAP452     -0.5170
      3  O2A       20.5760   25.1390   -0.3370 O.3   452  NAP452     -0.4371
      4  O5B       22.1660   24.7080   -2.2320 O.3   452  NAP452     -0.3112
      5  C5B       21.9490   25.8210   -3.1010 C.3   452  NAP452      0.1813
      6  C4B       23.2090   26.6670   -3.0660 C.3   452  NAP452      0.1820
      7  O4B       23.3130   27.3630   -4.3030 O.3   452  NAP452     -0.3136
      8  C3B       23.2490   27.7280   -1.9810 C.3   452  NAP452      0.2157
      9  O3B       23.8550   27.2290   -0.7850 O.3   452  NAP452     -0.2175
     10  C2B       24.1740   28.7830   -2.5490 C.3   452  NAP452      0.2314
     11  O2B       25.5550   28.4440   -2.2860 O.3   452  NAP452     -0.2630
     12  C1B       23.8070   28.6870   -4.0120 C.3   452  NAP452      0.3158
     13  N9A       22.9040   29.7640   -4.4850 N.pl3 452  NAP452     -0.1439
     14  C8A       21.8290   30.3230   -3.8840 C.3   452  NAP452      0.3377
     15  N7A       21.2940   31.3050   -4.6340 N.2   452  NAP452     -0.2095
     16  C5A       22.0690   31.3050   -5.7060 C.2   452  NAP452      0.2526
     17  C6A       21.9420   32.0980   -6.8350 C.2   452  NAP452      0.4393
     18  N6A       21.0950   33.1180   -6.8990 N.pl3 452  NAP452      0.2180
     19  N1A       22.8070   31.8890   -7.8330 N.2   452  NAP452      0.0021
     20  C2A       23.7640   30.9780   -7.7400 C.3   452  NAP452      0.5254
     21  N3A       23.9310   30.2210   -6.6680 N.2   452  NAP452     -0.0055
     22  C4A       23.0790   30.3650   -5.6540 C.2   452  NAP452      0.3518
     23  O3        19.8390   23.6020   -2.1730 O.3   452  NAP452     -0.2703
     24  PN        19.5880   22.3230   -3.1230 P.3   452  NAP452      0.2189
     25  O1N       20.9010   21.6700   -3.3770 O.3   452  NAP452     -0.4371
     26  O2N       18.8120   22.8010   -4.2920 O.2   452  NAP452     -0.5170
     27  O5D       18.6710   21.2340   -2.3480 O.3   452  NAP452     -0.3112
     28  C5D       17.9430   21.4410   -1.1280 C.3   452  NAP452      0.1813
     29  C4D       18.1140   20.2070   -0.2450 C.3   452  NAP452      0.1799
     30  O4D       17.6850   18.9470   -0.8300 O.3   452  NAP452     -0.3327
     31  C3D       19.5790   20.0000    0.0740 C.3   452  NAP452      0.2158
     32  O3D       20.0540   20.9080    1.0740 O.3   452  NAP452     -0.2175
     33  C2D       19.6140   18.5540    0.5460 C.3   452  NAP452      0.2309
     34  O2D       19.3670   18.4270    1.9530 O.3   452  NAP452     -0.2158
     35  C1D       18.5070   17.8850   -0.2610 C.3   452  NAP452      0.2263
     36  N1N       19.1000   16.8760   -1.1780 N.pl3 452  NAP452     -0.2787
     37  C2N       19.6470   15.6900   -0.6770 C.3   452  NAP452      0.1244
     38  C3N       20.4700   14.8740   -1.4550 C.2   452  NAP452      0.0544
     39  C7N       21.2600   13.6940   -0.8560 C.2   452  NAP452      0.2818
     40  O7N       21.4370   13.6040    0.3590 O.2   452  NAP452     -0.2670
     41  N7N       21.7400   12.8000   -1.7210 N.am  452  NAP452     -0.0839
     42  C4N       20.7230   15.2410   -2.7660 C.2   452  NAP452      0.0033
     43  C5N       20.1590   16.3870   -3.2800 C.2   452  NAP452      0.0157
     44  C6N       19.3550   17.2000   -2.4980 C.2   452  NAP452      0.0633
     45  P2B       26.6000   29.6560   -2.3360 P.3   452  NAP452      0.5328
     46  O1X       27.8760   28.9400   -2.0940 O.3   452  NAP452     -0.1145
     47  O2X       26.2380   30.5650   -1.2160 O.3   452  NAP452     -0.1145
     48  O3X       26.4660   30.2500   -3.6850 O.2   452  NAP452     -0.2224
@<TRIPOS>BOND
     1    19    20    1
     2    19    17    2
     3    20    21    1
     4    18    17    1
     5    17    16    1
     6    21    22    2
     7    16    22    1
     8    16    15    2
     9    22    13    1
    10    15    14    1
    11    13    12    1
    12    13    14    1
    13     7    12    1
    14     7     6    1
    15    26    24    2
    16    12    10    1
    17    48    45    2
    18    25    24    1
    19    43    42    1
    20    43    44    2
    21    24    27    1
    22    24    23    1
    23     5     6    1
    24     5     4    1
    25     6     8    1
    26    42    38    2
    27    10    11    1
    28    10     8    1
    29    44    36    1
    30    27    28    1
    31    45    11    1
    32    45    46    1
    33    45    47    1
    34     4     1    1
    35    23     1    1
    36     8     9    1
    37    41    39   am
    38    38    39    1
    39    38    37    1
    40     1     2    2
    41     1     3    1
    42    36    37    1
    43    36    35    1
    44    28    29    1
    45    39    40    2
    46    30    35    1
    47    30    29    1
    48    35    33    1
    49    29    31    1
    50    31    33    1
    51    31    32    1
    52    33    34    1
