@<TRIPOS>MOLECULE
1geu_NAD_A_1.pdb
 44 48 0 0 0
SMALL
GASTEIGER

@<TRIPOS>ATOM
      1  PA        21.5460   23.8500   -2.1560 P.3   452  NAD452      0.2189
      2  O1A       22.1250   22.5830   -1.6720 O.2   452  NAD452     -0.5170
      3  O2A       21.1350   24.9270   -1.2290 O.3   452  NAD452     -0.4371
      4  O5B       22.5970   24.5000   -3.2020 O.3   452  NAD452     -0.3112
      5  C5B       22.2620   25.7000   -3.8970 C.3   452  NAD452      0.1813
      6  C4B       23.5590   26.2430   -4.4760 C.3   452  NAD452      0.1821
      7  O4B       23.3540   27.2480   -5.4890 O.3   452  NAD452     -0.3135
      8  C3B       24.3670   26.8870   -3.3660 C.3   452  NAD452      0.2184
      9  O3B       25.7450   26.5500   -3.4960 O.3   452  NAD452     -0.2174
     10  C2B       24.2220   28.3760   -3.5920 C.3   452  NAD452      0.2570
     11  O2B       25.3900   29.0530   -3.0800 O.3   452  NAD452     -0.2130
     12  C1B       24.1360   28.3830   -5.1020 C.3   452  NAD452      0.3186
     13  N9A       23.5130   29.6070   -5.5830 N.pl3 452  NAD452     -0.1439
     14  C8A       22.4410   30.1970   -5.0400 C.3   452  NAD452      0.3377
     15  N7A       22.0000   31.1950   -5.8120 N.2   452  NAD452     -0.2095
     16  C5A       22.8480   31.1800   -6.8250 C.2   452  NAD452      0.2526
     17  C6A       22.8060   31.9840   -7.9480 C.2   452  NAD452      0.4393
     18  N6A       21.9140   32.9820   -8.0120 N.pl3 452  NAD452      0.2180
     19  N1A       23.7120   31.7780   -8.9150 N.2   452  NAD452      0.0021
     20  C2A       24.6660   30.8420   -8.7830 C.3   452  NAD452      0.5254
     21  N3A       24.7490   30.0740   -7.6970 N.2   452  NAD452     -0.0055
     22  C4A       23.8280   30.2060   -6.7220 C.2   452  NAD452      0.3518
     23  O3        20.2800   23.5140   -3.0740 O.3   452  NAD452     -0.2703
     24  PN        19.7790   22.2430   -3.9030 P.3   452  NAD452      0.2189
     25  O1N       20.9350   21.4450   -4.3670 O.3   452  NAD452     -0.4371
     26  O2N       18.8070   22.7790   -4.9050 O.2   452  NAD452     -0.5170
     27  O5D       19.1060   21.2480   -2.8200 O.3   452  NAD452     -0.3112
     28  C5D       18.1740   21.6020   -1.7920 C.3   452  NAD452      0.1813
     29  C4D       18.2260   20.4520   -0.7950 C.3   452  NAD452      0.1799
     30  O4D       17.7740   19.1870   -1.3280 O.3   452  NAD452     -0.3327
     31  C3D       19.6500   20.2180   -0.3060 C.3   452  NAD452      0.2158
     32  O3D       20.0080   21.0490    0.8060 O.3   452  NAD452     -0.2175
     33  C2D       19.6080   18.7770    0.1720 C.3   452  NAD452      0.2309
     34  O2D       19.3560   18.7080    1.5780 O.3   452  NAD452     -0.2158
     35  C1D       18.4900   18.1270   -0.6380 C.3   452  NAD452      0.2263
     36  N1N       19.0580   17.0590   -1.5050 N.pl3 452  NAD452     -0.2787
     37  C2N       19.5640   15.8620   -0.9400 C.3   452  NAD452      0.1244
     38  C3N       20.3120   14.9750   -1.7250 C.2   452  NAD452      0.0544
     39  C7N       21.1010   13.8210   -1.0910 C.2   452  NAD452      0.2818
     40  O7N       21.1260   13.6550    0.1300 O.2   452  NAD452     -0.2670
     41  N7N       21.7250   12.9950   -1.9350 N.am  452  NAD452     -0.0839
     42  C4N       20.5100   15.2660   -3.0720 C.2   452  NAD452      0.0033
     43  C5N       19.9810   16.4120   -3.6570 C.2   452  NAD452      0.0157
     44  C6N       19.2580   17.3070   -2.8720 C.2   452  NAD452      0.0633
@<TRIPOS>BOND
     1    19    20    1
     2    19    17    2
     3    20    21    1
     4    18    17    1
     5    17    16    1
     6    21    22    2
     7    16    22    1
     8    16    15    2
     9    22    13    1
    10    15    14    1
    11    13    12    1
    12    13    14    1
    13     7    12    1
    14     7     6    1
    15    12    10    1
    16    26    24    2
    17     6     5    1
    18     6     8    1
    19    25    24    1
    20    24    23    1
    21    24    27    1
    22     5     4    1
    23    43    42    1
    24    43    44    2
    25    10     8    1
    26    10    11    1
    27     9     8    1
    28     4     1    1
    29    23     1    1
    30    42    38    2
    31    44    36    1
    32    27    28    1
    33     1     2    2
    34     1     3    1
    35    41    39   am
    36    28    29    1
    37    38    39    1
    38    38    37    1
    39    36    37    1
    40    36    35    1
    41    30    29    1
    42    30    35    1
    43    39    40    2
    44    29    31    1
    45    35    33    1
    46    31    33    1
    47    31    32    1
    48    33    34    1
