@<TRIPOS>MOLECULE
1gew_PLP_A_1.pdb
 15 15 0 0 0
SMALL
GASTEIGER

@<TRIPOS>ATOM
      1  N1        15.8670   24.5070    2.1010 N.ar  413  PLP413     -0.2452
      2  C2        16.7750   25.0440    2.9570 C.ar  413  PLP413      0.0978
      3  C2A       18.1090   24.3210    3.1330 C.3   413  PLP413      0.0555
      4  C3        16.4690   26.2070    3.6310 C.ar  413  PLP413      0.2049
      5  O3        17.3260   26.7100    4.5630 O.3   413  PLP413     -0.2857
      6  C4        15.2320   26.8250    3.4190 C.ar  413  PLP413      0.0182
      7  C4A       14.9530   28.1620    4.1350 C.3   413  PLP413      0.0342
      8  C5        14.3130   26.2100    2.5270 C.ar  413  PLP413      0.0261
      9  C6        14.6630   25.0710    1.8890 C.ar  413  PLP413      0.0965
     10  C5A       12.8760   26.6520    2.2870 C.3   413  PLP413      0.1815
     11  O4P       12.5530   27.9690    2.0280 O.3   413  PLP413     -0.2653
     12  P         11.0730   28.4490    1.7740 P.3   413  PLP413      0.5329
     13  O1P       11.0750   29.1330    0.4830 O.2   413  PLP413     -0.2224
     14  O2P       10.9430   29.4470    2.9650 O.3   413  PLP413     -0.1145
     15  O3P       10.1250   27.3360    1.9830 O.3   413  PLP413     -0.1145
@<TRIPOS>BOND
     1    13    12    2
     2    12    15    1
     3    12    11    1
     4    12    14    1
     5     9     1   ar
     6     9     8   ar
     7    11    10    1
     8     1     2   ar
     9    10     8    1
    10     8     6   ar
    11     2     3    1
    12     2     4   ar
    13     6     4   ar
    14     6     7    1
    15     4     5    1
