@<TRIPOS>MOLECULE
1gex_HSA_A_1.pdb
 14 14 0 0 0
SMALL
GASTEIGER

@<TRIPOS>ATOM
      1  CB        13.0130   28.3060    7.5330 C.3   414  HSA414      0.0650
      2  CG        11.9200   27.2950    7.3580 C.2   414  HSA414      0.0646
      3  CD2       10.9080   27.2210    6.4590 C.3   414  HSA414      0.1682
      4  ND1       11.8170   26.1640    8.1400 N.2   414  HSA414     -0.2310
      5  CE1       10.7940   25.4350    7.7310 C.2   414  HSA414      0.1939
      6  NE2       10.2260   26.0560    6.7140 N.2   414  HSA414     -0.2440
      7  C         15.5720   27.8840    7.9760 C.3   414  HSA414      0.1730
      8  OP4       16.3560   26.7560    8.3510 O.3   414  HSA414     -0.2687
      9  P         16.0450   25.8880    9.6520 P.3   414  HSA414      0.5326
     10  OP1       16.4270   26.7240   10.8140 O.3   414  HSA414     -0.1145
     11  OP2       17.0140   24.6550    9.4030 O.2   414  HSA414     -0.2224
     12  OP3       14.6680   25.3920    9.5990 O.3   414  HSA414     -0.1145
     13  N         14.4400   26.9350    5.9570 N.3   414  HSA414     -0.1298
     14  CA        14.3480   27.6900    7.0900 C.3   414  HSA414      0.1275
@<TRIPOS>BOND
     1    13    14    1
     2     3     6    1
     3     3     2    1
     4     6     5    2
     5    14     1    1
     6    14     7    1
     7     2     1    1
     8     2     4    2
     9     5     4    1
    10     7     8    1
    11     8     9    1
    12    11     9    2
    13    12     9    1
    14     9    10    1
