@<TRIPOS>MOLECULE
1gex_PLP_A_1.pdb
 15 15 0 0 0
SMALL
GASTEIGER

@<TRIPOS>ATOM
      1  N1        15.8600   24.5620    1.9790 N.ar  413  PLP413     -0.2452
      2  C2        16.7210   24.9350    2.9780 C.ar  413  PLP413      0.0978
      3  C2A       18.0930   24.2500    3.0630 C.3   413  PLP413      0.0555
      4  C3        16.3220   25.8690    3.8950 C.ar  413  PLP413      0.2049
      5  O3        17.1700   26.2680    4.8760 O.3   413  PLP413     -0.2857
      6  C4        15.0380   26.4200    3.8110 C.ar  413  PLP413      0.0182
      7  C4A       14.5900   27.4510    4.7690 C.3   413  PLP413      0.0342
      8  C5        14.1820   25.9950    2.7630 C.ar  413  PLP413      0.0261
      9  C6        14.6190   25.0770    1.8700 C.ar  413  PLP413      0.0965
     10  C5A       12.7680   26.4800    2.5480 C.3   413  PLP413      0.1815
     11  O4P       12.4710   27.8400    2.5410 O.3   413  PLP413     -0.2653
     12  P         11.0800   28.3930    2.0120 P.3   413  PLP413      0.5329
     13  O1P       11.3140   28.8940    0.6520 O.2   413  PLP413     -0.2224
     14  O2P       10.8860   29.5800    3.0250 O.3   413  PLP413     -0.1145
     15  O3P       10.0320   27.3680    2.2350 O.3   413  PLP413     -0.1145
@<TRIPOS>BOND
     1    13    12    2
     2     9     1   ar
     3     9     8   ar
     4     1     2   ar
     5    12    15    1
     6    12    11    1
     7    12    14    1
     8    11    10    1
     9    10     8    1
    10     8     6   ar
    11     2     3    1
    12     2     4   ar
    13     6     4   ar
    14     6     7    1
    15     4     5    1
