@<TRIPOS>MOLECULE
1gey_PPE_A_1.pdb
 25 25 0 0 0
SMALL
GASTEIGER

@<TRIPOS>ATOM
      1  N1        15.9580   24.5300    2.1220 N.ar  413  PPE413     -0.2452
      2  C2        16.8070   24.8700    3.1280 C.ar  413  PPE413      0.0978
      3  C2A       18.1980   24.2460    3.1530 C.3   413  PPE413      0.0555
      4  C3        16.3920   25.7490    4.0960 C.ar  413  PPE413      0.2062
      5  O3        17.2310   26.0860    5.1120 O.3   413  PPE413     -0.2856
      6  C4        15.1010   26.2840    4.0390 C.ar  413  PPE413      0.0353
      7  C4A       14.6220   27.2110    5.0810 C.3   413  PPE413      0.1186
      8  C5        14.2480   25.9010    2.9650 C.ar  413  PPE413      0.0275
      9  C6        14.7030   25.0280    2.0330 C.ar  413  PPE413      0.0965
     10  C5A       12.8380   26.4200    2.7340 C.3   413  PPE413      0.1816
     11  OP4       12.6220   27.7830    2.5550 O.3   413  PPE413     -0.2653
     12  P         11.2440   28.3700    2.0930 P.3   413  PPE413      0.5329
     13  OP1       11.4560   28.9420    0.7490 O.2   413  PPE413     -0.2224
     14  OP2       11.0720   29.4890    3.1930 O.3   413  PPE413     -0.1145
     15  OP3       10.1900   27.3570    2.2680 O.3   413  PPE413     -0.1145
     16  NA        14.9610   26.6800    6.4060 N.3   413  PPE413     -0.2034
     17  CAA       14.9010   27.7230    7.4530 C.3   413  PPE413      0.1766
     18  CBA       13.5030   27.7360    8.0850 C.3   413  PPE413      0.0407
     19  CGA       13.2780   28.8350    9.1190 C.3   413  PPE413      0.1161
     20  CDA       11.9160   28.7540    9.7930 C.2   413  PPE413      0.3649
     21  OE1       11.1970   27.7540    9.5750 O.co2 413  PPE413     -0.2457
     22  OE2       11.5630   29.6910   10.5460 O.co2 413  PPE413     -0.2457
     23  CA        15.9690   27.4700    8.5470 C.2   413  PPE413      0.3803
     24  OA        16.2820   28.3950    9.3220 O.co2 413  PPE413     -0.2441
     25  OXT       16.5020   26.3460    8.6550 O.co2 413  PPE413     -0.2441
@<TRIPOS>BOND
     1    13    12    2
     2     9     1   ar
     3     9     8   ar
     4    12    15    1
     5    12    11    1
     6    12    14    1
     7     1     2   ar
     8    11    10    1
     9    10     8    1
    10     8     6   ar
    11     2     3    1
    12     2     4   ar
    13     6     4   ar
    14     6     7    1
    15     4     5    1
    16     7    16    1
    17    16    17    1
    18    17    18    1
    19    17    23    1
    20    18    19    1
    21    23    25   ar
    22    23    24   ar
    23    19    20    1
    24    21    20   ar
    25    20    22   ar
