@<TRIPOS>MOLECULE
1gfi_GDP_A_1.pdb
 28 30 0 0 0
SMALL
GASTEIGER

@<TRIPOS>ATOM
      1  PB        36.5740  -30.8730   10.1950 P.3   355  GDP355      0.5373
      2  O1B       36.1280  -31.7490    9.1260 O.2   355  GDP355     -0.2221
      3  O2B       35.4950  -30.0670   10.8190 O.3   355  GDP355     -0.1143
      4  O3B       37.6730  -31.4650   10.9820 O.3   355  GDP355     -0.1143
      5  O3A       37.3730  -29.7260    9.4070 O.3   355  GDP355     -0.2261
      6  PA        37.6200  -28.1480    9.5910 P.3   355  GDP355      0.2231
      7  O1A       36.4310  -27.4400    9.0730 O.2   355  GDP355     -0.5169
      8  O2A       38.1050  -27.8280   11.0120 O.3   355  GDP355     -0.4370
      9  O5'       38.7520  -27.8620    8.5220 O.3   355  GDP355     -0.3111
     10  C5'       40.1940  -28.0240    8.7130 C.3   355  GDP355      0.1813
     11  C4'       41.0670  -26.8760    8.1940 C.3   355  GDP355      0.1799
     12  O4'       41.0460  -26.7700    6.7110 O.3   355  GDP355     -0.3326
     13  C3'       40.6470  -25.5130    8.7820 C.3   355  GDP355      0.2158
     14  O3'       41.7720  -24.7110    9.1570 O.3   355  GDP355     -0.2175
     15  C2'       40.0390  -24.8310    7.4990 C.3   355  GDP355      0.2310
     16  O2'       40.1940  -23.4140    7.4610 O.3   355  GDP355     -0.2158
     17  C1'       40.7730  -25.4290    6.3070 C.3   355  GDP355      0.2293
     18  N9        39.8220  -25.5210    5.2330 N.pl3 355  GDP355     -0.2354
     19  C8        38.5660  -26.1130    5.1900 C.3   355  GDP355      0.2246
     20  N7        38.0550  -26.2660    3.9720 N.2   355  GDP355     -0.2322
     21  C5        39.0620  -25.6320    3.1650 C.2   355  GDP355      0.2182
     22  C6        39.1660  -25.4050    1.7110 C.1   355  GDP355      0.2372
     23  O6        38.3930  -25.7220    0.8170 O.2   355  GDP355     -0.2069
     24  N1        40.3310  -24.7460    1.3300 N.2   355  GDP355     -0.2485
     25  C2        41.3750  -24.4630    2.1900 C.1   355  GDP355      0.2531
     26  N2        42.3380  -23.6780    1.8010 N.pl3 355  GDP355     -0.0226
     27  N3        41.3650  -24.8490    3.4720 N.2   355  GDP355     -0.3074
     28  C4        40.1490  -25.2880    3.9300 C.2   355  GDP355      0.2300
@<TRIPOS>BOND
     1    23    22    2
     2    24    22    2
     3    24    25    2
     4    22    21    1
     5    26    25    1
     6    25    27    2
     7    21    28    1
     8    21    20    2
     9    27    28    2
    10    28    18    1
    11    20    19    1
    12    19    18    1
    13    18    17    1
    14    17    12    1
    15    17    15    1
    16    12    11    1
    17    16    15    1
    18    15    13    1
    19    11    10    1
    20    11    13    1
    21     9    10    1
    22     9     6    1
    23    13    14    1
    24     7     6    2
    25     2     1    2
    26     5     6    1
    27     5     1    1
    28     6     8    1
    29     1     3    1
    30     1     4    1
