@<TRIPOS>MOLECULE
1gfw_MSI_A_1.pdb
 28 31 0 0 0
SMALL
GASTEIGER

@<TRIPOS>ATOM
      1  S1        37.8320   31.9580   27.6090 S.O2    1  MSI1        0.0633
      2  N1        34.8990   36.0180   31.0490 N.am    1  MSI1       -0.2547
      3  N2        39.5730   32.0690   27.8470 N.3     1  MSI1       -0.1532
      4  O1        41.0500   32.5810   25.0020 O.3     1  MSI1       -0.4740
      5  O2        33.6150   35.3330   32.8950 O.2     1  MSI1       -0.2714
      6  O3        34.1410   32.7110   31.6750 O.3     1  MSI1       -0.2083
      7  O4        37.4530   30.6450   28.0400 O.2     1  MSI1       -0.1528
      8  O5        37.7590   32.3160   26.2430 O.2     1  MSI1       -0.1528
      9  C2        34.4470   35.1090   32.0080 C.2     1  MSI1        0.2643
     10  C3        35.1120   33.7590   31.8460 C.3     1  MSI1        0.2514
     11  C4        36.5000   32.9310   29.9060 C.ar    1  MSI1        0.0198
     12  C5        36.9700   33.2280   28.5810 C.ar    1  MSI1        0.1221
     13  C6        36.7770   34.5390   28.0230 C.ar    1  MSI1        0.0212
     14  C7        36.1200   35.5620   28.7630 C.ar    1  MSI1        0.0160
     15  C8        35.6390   35.2460   30.0630 C.ar    1  MSI1        0.0529
     16  C9        35.8110   33.9710   30.6060 C.ar    1  MSI1        0.0316
     17  C20       40.2580   33.3410   27.4860 C.3     1  MSI1        0.1231
     18  C10       40.9650   33.9310   28.7030 C.3     1  MSI1        0.0230
     19  C11       40.6350   32.9930   29.8420 C.3     1  MSI1        0.0207
     20  C12       40.0610   31.7480   29.1930 C.3     1  MSI1        0.0959
     21  C13       41.2910   33.2390   26.2930 C.3     1  MSI1        0.2229
     22  C14       39.8930   32.8910   24.2330 C.ar    1  MSI1        0.1386
     23  C15       39.5470   34.2470   23.9090 C.ar    1  MSI1        0.0369
     24  C16       38.4070   34.5440   23.1000 C.ar    1  MSI1        0.0031
     25  C17       37.6050   33.4880   22.6070 C.ar    1  MSI1        0.0002
     26  C18       37.9400   32.1280   22.9190 C.ar    1  MSI1        0.0031
     27  C19       39.0770   31.8330   23.7280 C.ar    1  MSI1        0.0369
     28  C1        34.7320   37.4700   31.0830 C.3     1  MSI1        0.1201
@<TRIPOS>BOND
     1    25    26   ar
     2    25    24   ar
     3    26    27   ar
     4    24    23   ar
     5    27    22   ar
     6    23    22   ar
     7    22     4    1
     8     4    21    1
     9     8     1    2
    10    21    17    1
    11    17     3    1
    12    17    18    1
    13     1     3    1
    14     1     7    2
    15     1    12    1
    16     3    20    1
    17    13    12   ar
    18    13    14   ar
    19    12    11   ar
    20    18    19    1
    21    14    15   ar
    22    20    19    1
    23    11    16   ar
    24    15    16   ar
    25    15     2    1
    26    16    10    1
    27     2    28    1
    28     2     9   am
    29     6    10    1
    30    10     9    1
    31     9     5    2
