@<TRIPOS>MOLECULE
1gfy_COL_A_1.pdb
 18 19 0 0 0
SMALL
GASTEIGER

@<TRIPOS>ATOM
      1  S1        14.1940   45.0590   17.0060 S.3   301  COL301     -0.1346
      2  C2        13.9580   45.5700   18.7020 C.3   301  COL301      0.0900
      3  C3        12.4990   45.5480   18.9700 C.ar  301  COL301      0.0157
      4  C4        11.4490   45.2640   18.1670 C.ar  301  COL301     -0.0103
      5  C5        11.4060   44.6490   16.8120 C.3   301  COL301      0.0385
      6  C6        12.7610   43.9420   16.7200 C.3   301  COL301      0.0626
      7  S13       11.9960   46.2350   20.4790 S.2   301  COL301     -0.0740
      8  C14       10.4010   46.0440   20.0200 C.ar  301  COL301      0.1090
      9  C15       10.1660   45.5560   18.8180 C.ar  301  COL301      0.0974
     10  C16        8.7290   45.4290   18.2840 C.2   301  COL301      0.3892
     11  O17        7.7380   45.4230   18.9570 O.co2 301  COL301     -0.2405
     12  O18        8.6670   45.3550   17.0130 O.co2 301  COL301     -0.2405
     13  N19        9.3080   46.5050   20.8510 N.am  301  COL301     -0.1630
     14  C20        9.4980   47.2040   21.9760 C.2   301  COL301      0.3496
     15  C21        8.1590   47.6450   22.5460 C.2   301  COL301      0.4422
     16  O22        7.1580   46.7170   22.4000 O.co2 301  COL301     -0.2353
     17  O23        7.9420   48.5860   23.2340 O.co2 301  COL301     -0.2353
     18  O24       10.5690   47.2680   22.6010 O.2   301  COL301     -0.2607
@<TRIPOS>BOND
     1     6     5    1
     2     6     1    1
     3     5     4    1
     4     1     2    1
     5    12    10   ar
     6     4     9   ar
     7     4     3   ar
     8    10     9    1
     9    10    11   ar
    10     2     3    1
    11     9     8   ar
    12     3     7   ar
    13     8     7   ar
    14     8    13    1
    15    13    14   am
    16    14    15    1
    17    14    18    2
    18    16    15   ar
    19    15    17   ar
