@<TRIPOS>MOLECULE
1gfz_PLP_A_1.pdb
 15 15 0 0 0
SMALL
GASTEIGER

@<TRIPOS>ATOM
      1  N1        24.7560   25.6400   30.3600 N.ar  999  PLP999     -0.2452
      2  C2        23.6370   24.8940   30.5970 C.ar  999  PLP999      0.0978
      3  C2A       22.6200   25.4560   31.5730 C.3   999  PLP999      0.0555
      4  C3        23.3970   23.7520   29.8660 C.ar  999  PLP999      0.2049
      5  O3        22.2020   23.1310   29.9800 O.3   999  PLP999     -0.2857
      6  C4        24.3010   23.3620   28.8900 C.ar  999  PLP999      0.0182
      7  C4A       24.0590   22.0920   28.0540 C.3   999  PLP999      0.0342
      8  C5        25.4480   24.1490   28.6720 C.ar  999  PLP999      0.0261
      9  C6        25.6500   25.2760   29.4130 C.ar  999  PLP999      0.0965
     10  C5A       26.4570   23.8720   27.4870 C.3   999  PLP999      0.1815
     11  O4P       26.0500   24.5660   26.2780 O.3   999  PLP999     -0.2653
     12  P         27.0120   24.8130   25.0200 P.3   999  PLP999      0.5329
     13  O1P       26.1750   25.4660   24.0010 O.2   999  PLP999     -0.2224
     14  O2P       28.0740   25.9320   25.5190 O.3   999  PLP999     -0.1145
     15  O3P       27.7350   23.5460   24.7250 O.3   999  PLP999     -0.1145
@<TRIPOS>BOND
     1    13    12    2
     2    15    12    1
     3    12    14    1
     4    12    11    1
     5    11    10    1
     6    10     8    1
     7     7     6    1
     8     8     6   ar
     9     8     9   ar
    10     6     4   ar
    11     9     1   ar
    12     4     5    1
    13     4     2   ar
    14     1     2   ar
    15     2     3    1
