@<TRIPOS>MOLECULE
1gfz_IMP_A_1.pdb
 23 25 0 0 0
SMALL
GASTEIGER

@<TRIPOS>ATOM
      1  P         30.9140    2.1640   51.2640 P.3   930  IMP930      0.5327
      2  O1P       31.1580    1.9160   49.8040 O.2   930  IMP930     -0.2224
      3  O2P       30.4430    3.5600   51.4930 O.3   930  IMP930     -0.1145
      4  O3P       32.0990    1.8630   52.0470 O.3   930  IMP930     -0.1145
      5  O5'       29.7240    1.2120   51.7580 O.3   930  IMP930     -0.2675
      6  C5'       29.0800    0.2380   50.8450 C.3   930  IMP930      0.1860
      7  C4'       27.8960   -0.6220   51.5170 C.3   930  IMP930      0.1823
      8  O4'       28.5810   -1.9190   51.6820 O.3   930  IMP930     -0.3135
      9  C3'       27.5330   -0.3550   52.9640 C.3   930  IMP930      0.2184
     10  O3'       26.3890    0.5270   53.0300 O.3   930  IMP930     -0.2174
     11  C2'       27.1030   -1.7740   53.4600 C.3   930  IMP930      0.2570
     12  O2'       25.8470   -2.2950   52.9730 O.3   930  IMP930     -0.2130
     13  C1'       28.1530   -2.6540   52.8460 C.3   930  IMP930      0.3186
     14  N9        29.3480   -2.8920   53.7790 N.pl3 930  IMP930     -0.1435
     15  C8        30.4680   -2.1500   53.7590 C.3   930  IMP930      0.3382
     16  N7        31.3640   -2.6570   54.7500 N.2   930  IMP930     -0.2054
     17  C5        30.6790   -3.7530   55.3140 C.2   930  IMP930      0.2446
     18  C6        31.1680   -4.6410   56.3350 C.1   930  IMP930      0.1792
     19  O6        32.2050   -4.6170   56.9710 O.2   930  IMP930     -0.2203
     20  N1        30.1680   -5.5680   56.5920 N.2   930  IMP930     -0.1458
     21  C2        28.9550   -5.6810   55.9530 C.3   930  IMP930      0.4017
     22  N3        28.5860   -4.8250   54.9990 N.2   930  IMP930     -0.0334
     23  C4        29.4690   -3.9270   54.7100 C.2   930  IMP930      0.3528
@<TRIPOS>BOND
     1     2     1    2
     2     6     7    1
     3     6     5    1
     4     1     3    1
     5     1     5    1
     6     1     4    1
     7     7     8    1
     8     7     9    1
     9     8    13    1
    10    13    11    1
    11    13    14    1
    12     9    10    1
    13     9    11    1
    14    12    11    1
    15    15    14    1
    16    15    16    1
    17    14    23    1
    18    23    22    2
    19    23    17    1
    20    16    17    2
    21    22    21    1
    22    17    18    1
    23    21    20    1
    24    18    20    2
    25    18    19    2
