@<TRIPOS>MOLECULE
1gfz_CFF_A_1.pdb
 14 15 0 0 0
SMALL
GASTEIGER

@<TRIPOS>ATOM
      1  N1        38.9840   37.0340   29.9650 N.am  940  CFF940     -0.1903
      2  C2        38.4900   35.8800   29.0750 C.2   940  CFF940      0.4044
      3  C10       39.9540   37.9900   29.3080 C.3   940  CFF940      0.1267
      4  C6        38.6080   37.2070   31.3250 C.2   940  CFF940      0.2609
      5  N3        37.6350   35.0650   29.7120 N.am  940  CFF940     -0.1218
      6  O11       38.8880   35.8200   27.9430 O.2   940  CFF940     -0.2230
      7  C12       37.0800   33.9050   28.9680 C.3   940  CFF940      0.2626
      8  C4        37.2180   35.2060   31.0620 C.2   940  CFF940      0.3276
      9  C5        37.6480   36.2440   31.8440 C.3   940  CFF940      0.2453
     10  N9        36.3750   34.4240   31.7000 N.2   940  CFF940     -0.0479
     11  O13       39.0560   38.2000   32.0060 O.2   940  CFF940     -0.2723
     12  N7        37.0550   36.0650   33.0970 N.3   940  CFF940     -0.2098
     13  C8        36.2960   34.9680   32.9260 C.3   940  CFF940      0.3428
     14  C14       37.2010   36.9290   34.3060 C.3   940  CFF940      0.0945
@<TRIPOS>BOND
     1     6     2    2
     2     7     5    1
     3     2     5   am
     4     2     1   am
     5     3     1    1
     6     5     8    1
     7     1     4   am
     8     8    10    2
     9     8     9    1
    10     4     9    1
    11     4    11    2
    12    10    13    1
    13     9    12    1
    14    13    12    1
    15    12    14    1
