@<TRIPOS>MOLECULE
1gg2_GDP_A_1.pdb
 28 30 0 0 0
SMALL
GASTEIGER

@<TRIPOS>ATOM
      1  PB         0.4100   52.9830  -31.3220 P.3   355  GDP355      0.5373
      2  O1B        0.5390   53.7560  -32.5390 O.2   355  GDP355     -0.2221
      3  O2B        1.1190   51.7380  -31.2870 O.3   355  GDP355     -0.1143
      4  O3B       -1.0000   52.8460  -30.9020 O.3   355  GDP355     -0.1143
      5  O3A        1.1770   53.9570  -30.2080 O.3   355  GDP355     -0.2261
      6  PA         2.6930   53.7340  -29.6670 P.3   355  GDP355      0.2231
      7  O1A        3.5920   53.8070  -30.8430 O.2   355  GDP355     -0.5169
      8  O2A        2.7900   52.6290  -28.7090 O.3   355  GDP355     -0.4370
      9  O5'        2.9610   55.0570  -28.8670 O.3   355  GDP355     -0.3111
     10  C5'        3.0950   56.2750  -29.5810 C.3   355  GDP355      0.1813
     11  C4'        4.1840   57.0760  -28.9900 C.3   355  GDP355      0.1799
     12  O4'        3.8810   57.5770  -27.7270 O.3   355  GDP355     -0.3326
     13  C3'        5.4060   56.1920  -28.7550 C.3   355  GDP355      0.2158
     14  O3'        6.5200   57.0810  -28.7260 O.3   355  GDP355     -0.2175
     15  C2'        5.2460   55.6080  -27.3510 C.3   355  GDP355      0.2310
     16  O2'        6.4300   55.1370  -26.6350 O.3   355  GDP355     -0.2158
     17  C1'        4.7180   56.8470  -26.7210 C.3   355  GDP355      0.2293
     18  N9         3.9930   56.4190  -25.4810 N.pl3 355  GDP355     -0.2354
     19  C8         2.9360   55.5610  -25.3880 C.3   355  GDP355      0.2246
     20  N7         2.1280   55.7030  -24.3820 N.2   355  GDP355     -0.2322
     21  C5         2.7160   56.7420  -23.7120 C.2   355  GDP355      0.2182
     22  C6         2.3080   57.3800  -22.4890 C.1   355  GDP355      0.2372
     23  O6         1.3310   57.1360  -21.7730 O.2   355  GDP355     -0.2069
     24  N1         3.1850   58.4190  -22.1470 N.2   355  GDP355     -0.2485
     25  C2         4.3060   58.7960  -22.8600 C.1   355  GDP355      0.2531
     26  N2         5.0270   59.7990  -22.3680 N.pl3 355  GDP355     -0.0226
     27  N3         4.7030   58.1810  -23.9980 N.2   355  GDP355     -0.3074
     28  C4         3.8660   57.1660  -24.3600 C.2   355  GDP355      0.2300
@<TRIPOS>BOND
     1     2     1    2
     2     1     3    1
     3     1     4    1
     4     1     5    1
     5     7     6    2
     6     5     6    1
     7     6     9    1
     8     6     8    1
     9    10    11    1
    10    10     9    1
    11    11    13    1
    12    11    12    1
    13    13    14    1
    14    13    15    1
    15    12    17    1
    16    15    17    1
    17    15    16    1
    18    17    18    1
    19    18    19    1
    20    18    28    1
    21    19    20    1
    22    20    21    2
    23    28    27    2
    24    28    21    1
    25    27    25    2
    26    21    22    1
    27    25    26    1
    28    25    24    2
    29    22    24    2
    30    22    23    2
