@<TRIPOS>MOLECULE
1gg5_E09_A_1.pdb
 21 23 0 0 0
SMALL
GASTEIGER

@<TRIPOS>ATOM
      1  C1       -12.0230    2.5970   -6.0060 C.2   703  E09703      0.0907
      2  C2       -13.2240    2.8550   -6.9420 C.2   703  E09703      0.2102
      3  C3       -14.5830    2.5290   -6.4100 C.ar  703  E09703      0.0590
      4  C4       -14.7520    1.9940   -5.0600 C.ar  703  E09703      0.1023
      5  C5       -12.2290    2.0910   -4.7430 C.2   703  E09703      0.0613
      6  C6       -13.5640    1.7560   -4.1760 C.2   703  E09703      0.2127
      7  O8       -13.0890    3.3100   -8.0840 O.2   703  E09703     -0.2852
      8  O9       -13.6360    1.3080   -3.0400 O.2   703  E09703     -0.2850
      9  N1       -10.6170    2.8930   -6.4370 N.pl3 703  E09703     -0.3015
     10  C11      -10.0770    2.2610   -7.6800 C.3   703  E09703      0.1123
     11  C12       -9.7100    1.6920   -6.3950 C.3   703  E09703      0.1123
     12  C17      -15.9230    2.6460   -7.0210 C.ar  703  E09703      0.0310
     13  C18      -16.8720    2.2130   -6.1370 C.ar  703  E09703      0.0583
     14  N19      -16.2010    1.7950   -4.8750 N.ar  703  E09703     -0.3228
     15  C20      -16.1670    3.1690   -8.4240 C.3   703  E09703      0.2102
     16  O21      -15.7050    4.5180   -8.5620 O.3   703  E09703     -0.2151
     17  C25      -18.3300    2.1540   -6.3520 C.2   703  E09703      0.0150
     18  C26      -19.2350    3.0010   -5.8640 C.2   703  E09703      0.0105
     19  C7       -20.6850    2.8600   -6.2510 C.3   703  E09703      0.2084
     20  C31      -16.8360    1.2710   -3.6620 C.3   703  E09703      0.1305
     21  O1       -21.5230    3.3400   -5.2000 O.3   703  E09703     -0.2152
@<TRIPOS>BOND
     1    16    15    1
     2    15    12    1
     3     7     2    2
     4    10     9    1
     5    10    11    1
     6    12     3   ar
     7    12    13   ar
     8     2     3    1
     9     2     1    1
    10     9    11    1
    11     9     1    1
    12     3     4   ar
    13    17    13    1
    14    17    18    2
    15    19    18    1
    16    19    21    1
    17    13    14   ar
    18     1     5    2
    19     4    14   ar
    20     4     6    1
    21    14    20    1
    22     5     6    1
    23     6     8    2
