@<TRIPOS>MOLECULE
1gg6_APL_B_1.pdb
 19 19 0 0 0
SMALL
GASTEIGER

@<TRIPOS>ATOM
      1  CN2       15.9080  -10.1600   23.3730 C.3   302  APL302      0.0964
      2  CN1       15.9390   -9.6950   24.8200 C.2   302  APL302      0.2421
      3  ON1       16.8320  -10.0920   25.5720 O.2   302  APL302     -0.2733
      4  N3        14.9670   -8.8790   25.2270 N.am  302  APL302     -0.1987
      5  C3        14.2690   -7.9740   24.3190 C.3   302  APL302      0.1922
      6  C2        14.9970   -6.6030   24.2650 C.3   302  APL302      0.4537
      7  C1        14.4240   -5.6510   23.1960 C.3   302  APL302      0.4789
      8  C4        12.7960   -7.8390   24.7520 C.3   302  APL302      0.0561
      9  OY        14.9740   -5.9190   25.4760 O.2   302  APL302     -0.2641
     10  OX        16.3310   -6.7820   23.8440 O.2   302  APL302     -0.2641
     11  F11       14.2570   -6.2900   22.0410 F     302  APL302     -0.1633
     12  F12       15.2410   -4.6170   22.9510 F     302  APL302     -0.1633
     13  F13       13.2370   -5.1440   23.5370 F     302  APL302     -0.1633
     14  CP1       12.0820   -9.1700   24.8170 C.ar  302  APL302     -0.0202
     15  CP2       11.7840   -9.8780   23.6480 C.ar  302  APL302     -0.0042
     16  CP3       11.1590  -11.1260   23.7040 C.ar  302  APL302     -0.0003
     17  CP4       10.8270  -11.6760   24.9390 C.ar  302  APL302     -0.0000
     18  CP5       11.1120  -10.9880   26.1100 C.ar  302  APL302     -0.0003
     19  CP6       11.7350   -9.7400   26.0460 C.ar  302  APL302     -0.0042
@<TRIPOS>BOND
     1    11     7    1
     2    12     7    1
     3     7    13    1
     4     7     6    1
     5     1     2    1
     6    15    16   ar
     7    15    14   ar
     8    16    17   ar
     9    10     6    1
    10     6     5    1
    11     6     9    1
    12     5     8    1
    13     5     4    1
    14     8    14    1
    15    14    19   ar
    16     2     4   am
    17     2     3    2
    18    17    18   ar
    19    19    18   ar
