@<TRIPOS>MOLECULE
1gg6_APF_C_1.pdb
 18 18 0 0 0
SMALL
GASTEIGER

@<TRIPOS>ATOM
      1  CN2       31.3000    2.5380   38.0570 C.3   301  APF301      0.0964
      2  CN1       29.9320    1.8930   38.2490 C.2   301  APF301      0.2419
      3  ON1       29.8370    0.7900   38.7790 O.2   301  APF301     -0.2733
      4  N3        28.8780    2.5780   37.8190 N.am  301  APF301     -0.2039
      5  C3        27.5400    1.9970   37.7600 C.3   301  APF301      0.1385
      6  C2        27.1910    1.5920   36.3090 C.3   301  APF301      0.2660
      7  C1        27.9590    0.3170   35.8230 C.3   301  APF301      0.4270
      8  C4        26.5070    3.0160   38.2560 C.3   301  APF301      0.0509
      9  O2        25.8390    1.2250   36.2170 O.3   301  APF301     -0.2121
     10  F11       29.2700    0.5530   35.6880 F     301  APF301     -0.1673
     11  F12       27.5210   -0.1310   34.6410 F     301  APF301     -0.1673
     12  F13       27.8210   -0.7060   36.6780 F     301  APF301     -0.1673
     13  CP1       26.6410    3.3770   39.7100 C.ar  301  APF301     -0.0204
     14  CP2       26.3770    4.6760   40.1370 C.ar  301  APF301     -0.0042
     15  CP3       26.4630    5.0150   41.4810 C.ar  301  APF301     -0.0003
     16  CP4       26.8250    4.0480   42.4190 C.ar  301  APF301     -0.0000
     17  CP5       27.0940    2.7490   42.0050 C.ar  301  APF301     -0.0003
     18  CP6       27.0030    2.4210   40.6540 C.ar  301  APF301     -0.0042
@<TRIPOS>BOND
     1    11     7    1
     2    10     7    1
     3     7     6    1
     4     7    12    1
     5     9     6    1
     6     6     5    1
     7     5     4    1
     8     5     8    1
     9     4     2   am
    10     1     2    1
    11     2     3    2
    12     8    13    1
    13    13    14   ar
    14    13    18   ar
    15    14    15   ar
    16    18    17   ar
    17    15    16   ar
    18    17    16   ar
