@<TRIPOS>MOLECULE
1gg8_GLG_A_1.pdb
 14 14 0 0 0
SMALL
GASTEIGER

@<TRIPOS>ATOM
      1  C1        34.0980   22.6600   27.7810 C.3   998  GLG998      0.2272
      2  C2        34.2060   23.0310   26.2430 C.3   998  GLG998      0.2206
      3  C3        32.9120   22.5190   25.4950 C.3   998  GLG998      0.2177
      4  C4        32.5550   21.0510   25.8660 C.3   998  GLG998      0.2143
      5  C5        32.4370   20.9070   27.4550 C.3   998  GLG998      0.1815
      6  C6        32.1560   19.4470   27.8130 C.3   998  GLG998      0.2141
      7  O2        34.3460   24.4350   26.1280 O.3   998  GLG998     -0.2171
      8  O3        33.1050   22.5530   24.0830 O.3   998  GLG998     -0.2175
      9  O4        31.3600   20.6320   25.2250 O.3   998  GLG998     -0.2176
     10  O5        33.7040   21.2940   28.0450 O.3   998  GLG998     -0.3417
     11  O6        33.2610   18.6580   27.3810 O.3   998  GLG998     -0.2176
     12  N         31.8990   23.7730   28.6420 N.am  998  GLG998     -0.0856
     13  C7        33.2210   23.5990   28.6340 C.2   998  GLG998      0.2906
     14  O7        33.9570   24.1360   29.4540 O.2   998  GLG998     -0.2689
@<TRIPOS>BOND
     1     8     3    1
     2     9     4    1
     3     3     4    1
     4     3     2    1
     5     4     5    1
     6     7     2    1
     7     2     1    1
     8    11     6    1
     9     5     6    1
    10     5    10    1
    11     1    10    1
    12     1    13    1
    13    13    12   am
    14    13    14    2
