@<TRIPOS>MOLECULE
1gg8_IMP_A_1.pdb
 23 25 0 0 0
SMALL
GASTEIGER

@<TRIPOS>ATOM
      1  P         30.9430    2.0620   51.1530 P.3   930  IMP930      0.5327
      2  O1P       31.1550    1.8550   49.6730 O.2   930  IMP930     -0.2224
      3  O2P       30.4770    3.4520   51.4850 O.3   930  IMP930     -0.1145
      4  O3P       32.1500    1.7110   51.8860 O.3   930  IMP930     -0.1145
      5  O5'       29.7520    1.0990   51.6460 O.3   930  IMP930     -0.2675
      6  C5'       29.0600    0.1470   50.7330 C.3   930  IMP930      0.1860
      7  C4'       27.8830   -0.7020   51.4450 C.3   930  IMP930      0.1823
      8  O4'       28.5590   -2.0070   51.6060 O.3   930  IMP930     -0.3135
      9  C3'       27.5670   -0.4110   52.9000 C.3   930  IMP930      0.2184
     10  O3'       26.4850    0.5410   53.0350 O.3   930  IMP930     -0.2174
     11  C2'       27.0810   -1.8260   53.3880 C.3   930  IMP930      0.2570
     12  O2'       25.8230   -2.3090   52.8640 O.3   930  IMP930     -0.2130
     13  C1'       28.1320   -2.7300   52.7950 C.3   930  IMP930      0.3186
     14  N9        29.3390   -2.9580   53.7300 N.pl3 930  IMP930     -0.1435
     15  C8        30.4640   -2.2020   53.7370 C.3   930  IMP930      0.3382
     16  N7        31.3710   -2.7180   54.7310 N.2   930  IMP930     -0.2054
     17  C5        30.6770   -3.8210   55.2670 C.2   930  IMP930      0.2446
     18  C6        31.1620   -4.7260   56.3210 C.1   930  IMP930      0.1792
     19  O6        32.2190   -4.7060   56.9390 O.2   930  IMP930     -0.2203
     20  N1        30.1630   -5.6830   56.5520 N.2   930  IMP930     -0.1458
     21  C2        28.9260   -5.7750   55.8800 C.3   930  IMP930      0.4017
     22  N3        28.5650   -4.9400   54.9650 N.2   930  IMP930     -0.0334
     23  C4        29.4670   -3.9970   54.6640 C.2   930  IMP930      0.3528
@<TRIPOS>BOND
     1     2     1    2
     2     6     7    1
     3     6     5    1
     4     1     3    1
     5     1     5    1
     6     1     4    1
     7     7     8    1
     8     7     9    1
     9     8    13    1
    10    13    11    1
    11    13    14    1
    12    12    11    1
    13     9    10    1
    14     9    11    1
    15    14    15    1
    16    14    23    1
    17    15    16    1
    18    23    22    2
    19    23    17    1
    20    16    17    2
    21    22    21    1
    22    17    18    1
    23    21    20    1
    24    18    20    2
    25    18    19    2
