@<TRIPOS>MOLECULE
1gg9_HEM_A_1.pdb
 43 50 0 0 0
SMALL
GASTEIGER

@<TRIPOS>ATOM
      1 FE         -1.5210   -1.7380   20.9630 Fe    760  HEM760      0.0000
      2  CHA        1.6910   -3.0430   20.8230 C.2   760  HEM760      0.0000
      3  CHB       -2.2330   -3.8600   23.5700 C.2   760  HEM760      0.0000
      4  CHC       -4.1460    0.2860   21.9370 C.2   760  HEM760      0.0000
      5  CHD       -0.6550    0.5830   18.6260 C.2   760  HEM760      0.0000
      6  NA        -0.4680   -3.1110   22.0150 N.2   760  HEM760      0.0000
      7  C1A        0.8020   -3.5840   21.7390 C.2   760  HEM760      0.0000
      8  C2A        1.0820   -4.7330   22.5730 C.2   760  HEM760      0.0000
      9  C3A       -0.0010   -4.9610   23.3270 C.2   760  HEM760      0.0000
     10  C4A       -0.9780   -3.9470   22.9940 C.2   760  HEM760      0.0000
     11  CMA       -0.2300   -6.0570   24.3830 C.3   760  HEM760      0.0000
     12  CAA        2.3960   -5.5340   22.5510 C.3   760  HEM760      0.0000
     13  CBA        2.3740   -6.8050   21.6790 C.3   760  HEM760      0.0000
     14  CGA        3.6670   -7.5750   21.7950 C.2   760  HEM760      0.0000
     15  O1A        4.4180   -7.5210   20.7920 O.co2 760  HEM760      0.0000
     16  O2A        3.8460   -8.1450   22.8980 O.co2 760  HEM760      0.0000
     17  NB        -2.8450   -1.7210   22.5060 N.ar  760  HEM760      0.0000
     18  C1B       -3.0790   -2.7910   23.3530 C.ar  760  HEM760      0.0000
     19  C2B       -4.3790   -2.6360   23.9860 C.ar  760  HEM760      0.0000
     20  C3B       -4.9030   -1.4930   23.5490 C.ar  760  HEM760      0.0000
     21  C4B       -3.9490   -0.9050   22.6160 C.ar  760  HEM760      0.0000
     22  CMB       -4.9680   -3.6610   24.9800 C.3   760  HEM760      0.0000
     23  CAB       -6.2520   -0.8520   23.8910 C.2   760  HEM760      0.0000
     24  CBB       -7.3370   -1.5600   24.1740 C.2   760  HEM760      0.0000
     25  NC        -2.1850    0.1180   20.4720 N.2   760  HEM760      0.0000
     26  C1C       -3.4130    0.6640   20.8360 C.2   760  HEM760      0.0000
     27  C2C       -3.7810    1.6990   19.8970 C.2   760  HEM760      0.0000
     28  C3C       -2.8270    1.7700   18.9730 C.2   760  HEM760      0.0000
     29  C4C       -1.8160    0.7900   19.3210 C.2   760  HEM760      0.0000
     30  CMC       -5.0880    2.5310   19.9690 C.3   760  HEM760      0.0000
     31  CAC       -2.7160    2.6960   17.7370 C.2   760  HEM760      0.0000
     32  CBC       -3.8450    3.1970   17.2010 C.2   760  HEM760      0.0000
     33  ND         0.2070   -1.2590   20.0200 N.ar  760  HEM760      0.0000
     34  C1D        0.2910   -0.3600   18.9700 C.ar  760  HEM760      0.0000
     35  C2D        1.5210   -0.5800   18.2440 C.ar  760  HEM760      0.0000
     36  C3D        2.1650   -1.5720   18.8500 C.ar  760  HEM760      0.0000
     37  C4D        1.3570   -2.0230   19.9600 C.ar  760  HEM760      0.0000
     38  CMD        1.9380    0.2480   17.0030 C.3   760  HEM760      0.0000
     39  CAD        3.5310   -2.1960   18.4580 C.3   760  HEM760      0.0000
     40  CBD        3.3550   -3.5200   17.7020 C.3   760  HEM760      0.0000
     41  CGD        4.6000   -4.0880   17.0760 C.2   760  HEM760      0.0000
     42  O1D        5.6010   -3.3410   16.9660 O.co2 760  HEM760      0.0000
     43  O2D        4.5330   -5.2910   16.7060 O.co2 760  HEM760      0.0000
@<TRIPOS>BOND
     1    43    41   ar
     2    42    41   ar
     3    38    35    1
     4    41    40    1
     5    32    31    2
     6    40    39    1
     7    31    28    1
     8    35    36   ar
     9    35    34   ar
    10    39    36    1
    11     5    34    2
    12     5    29    1
    13    36    37   ar
    14    34    33   ar
    15    28    29    1
    16    28    27    2
    17    29    25    2
    18    27    30    1
    19    27    26    1
    20    37    33   ar
    21    37     2    2
    22    33     1    1
    23    25    26    1
    24    25     1    1
    25    15    14   ar
    26     2     7    1
    27    26     4    2
    28     1     6    1
    29     1    17    1
    30    13    14    1
    31    13    12    1
    32     7     6    2
    33     7     8    1
    34    14    16   ar
    35     4    21    1
    36     6    10    1
    37    17    21   ar
    38    17    18   ar
    39    12     8    1
    40     8     9    2
    41    21    20   ar
    42    10     9    1
    43    10     3    2
    44     9    11    1
    45    18     3    1
    46    18    19   ar
    47    20    23    1
    48    20    19   ar
    49    23    24    2
    50    19    22    1
