@<TRIPOS>MOLECULE
1ggd_FAF_C_1.pdb
 22 22 0 0 0
SMALL
GASTEIGER

@<TRIPOS>ATOM
      1  CX        31.5080    2.0840   42.0320 C.2   301  FAF301      0.2423
      2  OX        30.6660    2.9800   42.1110 O.2   301  FAF301     -0.2733
      3  CAX       32.1850    1.5580   43.2890 C.3   301  FAF301      0.0964
      4  NL        31.8720    1.5300   40.8810 N.am  301  FAF301     -0.1978
      5  CAL       31.3140    1.9880   39.6180 C.3   301  FAF301      0.1727
      6  CBL       32.2020    1.5480   38.4560 C.3   301  FAF301      0.0311
      7  CGL       33.5960    2.1670   38.4130 C.3   301  FAF301      0.0022
      8  CDL       34.0640    2.2360   36.9660 C.3   301  FAF301      0.0001
      9  CDM       33.5790    3.5520   39.0390 C.3   301  FAF301      0.0001
     10  C         29.9050    1.4630   39.4010 C.2   301  FAF301      0.2612
     11  O         29.6170    0.2960   39.6390 O.2   301  FAF301     -0.2715
     12  N         29.0250    2.3360   38.9340 N.am  301  FAF301     -0.2027
     13  CA        27.6430    1.9550   38.6950 C.3   301  FAF301      0.1325
     14  CB        26.6950    3.0600   39.1890 C.3   301  FAF301      0.0507
     15  CG        26.6600    3.2170   40.7010 C.ar  301  FAF301     -0.0204
     16  CD1       27.0500    2.1730   41.5310 C.ar  301  FAF301     -0.0042
     17  CD2       26.2360    4.4090   41.2900 C.ar  301  FAF301     -0.0042
     18  CE1       27.0210    2.3050   42.9230 C.ar  301  FAF301     -0.0003
     19  CE2       26.2010    4.5570   42.6830 C.ar  301  FAF301     -0.0003
     20  CZ        26.5950    3.4970   43.5030 C.ar  301  FAF301     -0.0000
     21  CW        27.4750    1.7290   37.2060 C.3   301  FAF301      0.2039
     22  OW        26.3130    0.9760   36.9940 O.3   301  FAF301     -0.2185
@<TRIPOS>BOND
     1     8     7    1
     2    22    21    1
     3    21    13    1
     4     7     6    1
     5     7     9    1
     6     6     5    1
     7    13    12    1
     8    13    14    1
     9    12    10   am
    10    14    15    1
    11    10     5    1
    12    10    11    2
    13     5     4    1
    14    15    17   ar
    15    15    16   ar
    16     4     1   am
    17    17    19   ar
    18    16    18   ar
    19     1     2    2
    20     1     3    1
    21    19    20   ar
    22    18    20   ar
