@<TRIPOS>MOLECULE
1gge_HDD_A_1.pdb
 44 52 0 0 0
SMALL
GASTEIGER

@<TRIPOS>ATOM
      1 FE         -1.4700   -1.6100   21.1810 Fe    760  HDD760      0.0000
      2  CHA        1.6000   -3.1320   20.8230 C.2   760  HDD760      0.0000
      3  CHB       -2.2540   -3.9740   23.6570 C.2   760  HDD760      0.0000
      4  CHC       -4.2000    0.2960   22.0900 C.2   760  HDD760      0.0000
      5  CHD       -0.6810    0.5290   18.5680 C.2   760  HDD760      0.0000
      6  NA        -0.5120   -3.1980   22.0560 N.2   760  HDD760      0.0000
      7  C1A        0.7330   -3.6590   21.7210 C.2   760  HDD760      0.0000
      8  C2A        0.9880   -4.8130   22.6160 C.2   760  HDD760      0.0000
      9  C3A       -0.0260   -5.0280   23.4570 C.2   760  HDD760      0.0000
     10  C4A       -0.9830   -3.9350   23.1580 C.2   760  HDD760      0.0000
     11  CMA       -0.2360   -6.0970   24.5290 C.3   760  HDD760      0.0000
     12  CAA        2.2800   -5.6360   22.5440 C.3   760  HDD760      0.0000
     13  CBA        2.2250   -6.9220   21.6180 C.3   760  HDD760      0.0000
     14  CGA        3.6220   -7.5800   21.7920 C.2   760  HDD760      0.0000
     15  O1A        4.3140   -7.5260   20.7810 O.co2 760  HDD760      0.0000
     16  O2A        3.7870   -8.1110   22.9050 O.co2 760  HDD760      0.0000
     17  NB        -2.9230   -1.8260   22.6790 N.ar  760  HDD760      0.0000
     18  C1B       -3.0930   -2.8640   23.5040 C.ar  760  HDD760      0.0000
     19  C2B       -4.4440   -2.7960   24.0910 C.ar  760  HDD760      0.0000
     20  C3B       -4.8500   -1.5910   23.6540 C.ar  760  HDD760      0.0000
     21  C4B       -3.9890   -0.9350   22.7040 C.ar  760  HDD760      0.0000
     22  CMB       -5.2120   -3.8010   24.9850 C.3   760  HDD760      0.0000
     23  CAB       -6.1320   -0.8390   24.0250 C.2   760  HDD760      0.0000
     24  CBB       -7.2310   -1.4020   24.1600 C.2   760  HDD760      0.0000
     25  NC        -2.1890    0.1750   20.6000 N.2   760  HDD760      0.0000
     26  C1C       -3.4700    0.6110   20.9630 C.2   760  HDD760      0.0000
     27  C2C       -3.7630    1.7630   20.0960 C.2   760  HDD760      0.0000
     28  C3C       -2.9010    1.6450   19.0640 C.2   760  HDD760      0.0000
     29  C4C       -1.8540    0.6360   19.3530 C.2   760  HDD760      0.0000
     30  CMC       -5.0400    2.6690   20.1200 C.3   760  HDD760      0.0000
     31  CAC       -2.5570    2.5400   17.8650 C.2   760  HDD760      0.0000
     32  CBC       -3.5490    3.0310   17.2460 C.2   760  HDD760      0.0000
     33  ND         0.2710   -1.3630   20.0220 N.pl3 760  HDD760      0.0000
     34  C1D        0.2050   -0.4430   18.9820 C.2   760  HDD760      0.0000
     35  C2D        1.4020   -0.7840   18.0800 C.2   760  HDD760      0.0000
     36  C3D        2.0640   -1.7610   18.5680 C.2   760  HDD760      0.0000
     37  C4D        1.3650   -2.1310   19.8450 C.2   760  HDD760      0.0000
     38  CMD        2.1450    0.5430   17.6920 C.3   760  HDD760      0.0000
     39  CAD        3.7500   -1.6010   19.0360 C.3   760  HDD760      0.0000
     40  CBD        4.3570   -2.2620   17.8120 C.3   760  HDD760      0.0000
     41  CGD        3.5770   -3.4940   17.6460 C.2   760  HDD760      0.0000
     42  O1D        2.3620   -3.1410   17.9260 O.3   760  HDD760      0.0000
     43  O2D        3.8310   -4.4770   17.0250 O.2   760  HDD760      0.0000
     44  OND        1.0060   -1.2920   16.7110 O.2   760  HDD760      0.0000
@<TRIPOS>BOND
     1    44    35    1
     2    43    41    2
     3    32    31    2
     4    41    40    1
     5    41    42    1
     6    38    35    1
     7    40    39    1
     8    31    28    1
     9    42    36    1
    10    35    36    2
    11    35    34    1
    12    36    39    1
    13    36    37    1
    14     5    34    2
    15     5    29    1
    16    34    33    1
    17    28    29    1
    18    28    27    2
    19    29    25    2
    20    37    33    1
    21    37     2    2
    22    33     1    1
    23    27    30    1
    24    27    26    1
    25    25    26    1
    26    25     1    1
    27    15    14   ar
    28     2     7    1
    29    26     4    2
    30     1     6    1
    31     1    17    1
    32    13    14    1
    33    13    12    1
    34     7     6    2
    35     7     8    1
    36    14    16   ar
    37     6    10    1
    38     4    21    1
    39    12     8    1
    40     8     9    2
    41    17    21   ar
    42    17    18   ar
    43    21    20   ar
    44    10     9    1
    45    10     3    2
    46     9    11    1
    47    18     3    1
    48    18    19   ar
    49    20    23    1
    50    20    19   ar
    51    23    24    2
    52    19    22    1
