@<TRIPOS>MOLECULE
1ggf_HEM_A_1.pdb
 43 50 0 0 0
SMALL
GASTEIGER

@<TRIPOS>ATOM
      1 FE         -1.4900   -1.6580   20.9290 Fe    760  HEM760      0.0000
      2  CHA        1.6120   -3.0330   20.7880 C.2   760  HEM760      0.0000
      3  CHB       -2.2680   -3.7340   23.5720 C.2   760  HEM760      0.0000
      4  CHC       -4.2450    0.3250   21.8050 C.2   760  HEM760      0.0000
      5  CHD       -0.6080    0.6270   18.5830 C.2   760  HEM760      0.0000
      6  NA        -0.5160   -3.0670   21.9920 N.2   760  HEM760      0.0000
      7  C1A        0.7560   -3.5330   21.7370 C.2   760  HEM760      0.0000
      8  C2A        1.0400   -4.6550   22.6180 C.2   760  HEM760      0.0000
      9  C3A       -0.0350   -4.8480   23.3850 C.2   760  HEM760      0.0000
     10  C4A       -1.0290   -3.8580   22.9890 C.2   760  HEM760      0.0000
     11  CMA       -0.2380   -5.9100   24.4730 C.3   760  HEM760      0.0000
     12  CAA        2.3600   -5.4590   22.6120 C.3   760  HEM760      0.0000
     13  CBA        2.3550   -6.7040   21.7030 C.3   760  HEM760      0.0000
     14  CGA        3.5980   -7.5570   21.8410 C.2   760  HEM760      0.0000
     15  O1A        4.3120   -7.6320   20.7960 O.co2 760  HEM760      0.0000
     16  O2A        3.8380   -8.0520   22.9710 O.co2 760  HEM760      0.0000
     17  NB        -2.8780   -1.6540   22.4330 N.ar  760  HEM760      0.0000
     18  C1B       -3.1230   -2.6880   23.3190 C.ar  760  HEM760      0.0000
     19  C2B       -4.4250   -2.5320   23.9490 C.ar  760  HEM760      0.0000
     20  C3B       -4.9610   -1.4140   23.4620 C.ar  760  HEM760      0.0000
     21  C4B       -4.0100   -0.8440   22.5000 C.ar  760  HEM760      0.0000
     22  CMB       -5.0380   -3.5200   24.9780 C.3   760  HEM760      0.0000
     23  CAB       -6.3150   -0.7720   23.7810 C.2   760  HEM760      0.0000
     24  CBB       -7.3940   -1.5080   24.0260 C.2   760  HEM760      0.0000
     25  NC        -2.2310    0.1300   20.3770 N.2   760  HEM760      0.0000
     26  C1C       -3.4270    0.6960   20.7610 C.2   760  HEM760      0.0000
     27  C2C       -3.7310    1.7920   19.8540 C.2   760  HEM760      0.0000
     28  C3C       -2.7590    1.8560   18.9540 C.2   760  HEM760      0.0000
     29  C4C       -1.8010    0.8250   19.2570 C.2   760  HEM760      0.0000
     30  CMC       -5.0090    2.6580   19.9580 C.3   760  HEM760      0.0000
     31  CAC       -2.6020    2.8580   17.7680 C.3   760  HEM760      0.0000
     32  CBC       -3.7680    3.1990   17.1520 C.3   760  HEM760      0.0000
     33  ND         0.2100   -1.2370   19.9480 N.ar  760  HEM760      0.0000
     34  C1D        0.3500   -0.3030   18.9200 C.ar  760  HEM760      0.0000
     35  C2D        1.6070   -0.5140   18.2650 C.ar  760  HEM760      0.0000
     36  C3D        2.2180   -1.5200   18.8740 C.ar  760  HEM760      0.0000
     37  C4D        1.3540   -1.9910   19.9250 C.ar  760  HEM760      0.0000
     38  CMD        2.1260    0.3290   17.0590 C.3   760  HEM760      0.0000
     39  CAD        3.6050   -2.1480   18.5500 C.3   760  HEM760      0.0000
     40  CBD        3.3970   -3.4730   17.7710 C.3   760  HEM760      0.0000
     41  CGD        4.6200   -4.0470   17.1550 C.2   760  HEM760      0.0000
     42  O1D        5.6440   -3.3300   17.0260 O.co2 760  HEM760      0.0000
     43  O2D        4.6010   -5.2460   16.7920 O.co2 760  HEM760      0.0000
@<TRIPOS>BOND
     1    43    41   ar
     2    42    41   ar
     3    38    35    1
     4    32    31    1
     5    41    40    1
     6    31    28    1
     7    40    39    1
     8    35    36   ar
     9    35    34   ar
    10    39    36    1
    11     5    34    2
    12     5    29    1
    13    36    37   ar
    14    34    33   ar
    15    28    29    1
    16    28    27    2
    17    29    25    2
    18    27    30    1
    19    27    26    1
    20    37    33   ar
    21    37     2    2
    22    33     1    1
    23    25    26    1
    24    25     1    1
    25    26     4    2
    26     2     7    1
    27    15    14   ar
    28     1     6    1
    29     1    17    1
    30    13    14    1
    31    13    12    1
    32     7     6    2
    33     7     8    1
    34     4    21    1
    35    14    16   ar
    36     6    10    1
    37    17    21   ar
    38    17    18   ar
    39    21    20   ar
    40    12     8    1
    41     8     9    2
    42    10     9    1
    43    10     3    2
    44    18     3    1
    45    18    19   ar
    46     9    11    1
    47    20    23    1
    48    20    19   ar
    49    23    24    2
    50    19    22    1
