@<TRIPOS>MOLECULE
1ggh_HEM_A_1.pdb
 43 50 0 0 0
SMALL
GASTEIGER

@<TRIPOS>ATOM
      1 FE         -1.4910   -1.7170   21.0830 Fe    760  HEM760      0.0000
      2  CHA        1.6180   -3.0330   20.8720 C.2   760  HEM760      0.0000
      3  CHB       -2.2450   -3.8370   23.6380 C.2   760  HEM760      0.0000
      4  CHC       -4.1680    0.2860   22.0020 C.2   760  HEM760      0.0000
      5  CHD       -0.7110    0.5380   18.5860 C.2   760  HEM760      0.0000
      6  NA        -0.4850   -3.1330   22.0900 N.2   760  HEM760      0.0000
      7  C1A        0.7810   -3.6060   21.8080 C.2   760  HEM760      0.0000
      8  C2A        1.0550   -4.7580   22.6320 C.2   760  HEM760      0.0000
      9  C3A       -0.0180   -4.9730   23.4030 C.2   760  HEM760      0.0000
     10  C4A       -0.9940   -3.9610   23.0760 C.2   760  HEM760      0.0000
     11  CMA       -0.2340   -6.0740   24.4600 C.3   760  HEM760      0.0000
     12  CAA        2.3680   -5.5720   22.5990 C.3   760  HEM760      0.0000
     13  CBA        2.2980   -6.8820   21.7830 C.3   760  HEM760      0.0000
     14  CGA        3.6190   -7.6230   21.8330 C.2   760  HEM760      0.0000
     15  O1A        4.3230   -7.5830   20.7940 O.co2 760  HEM760      0.0000
     16  O2A        3.8170   -8.1720   22.9530 O.co2 760  HEM760      0.0000
     17  NB        -2.8600   -1.7090   22.5780 N.ar  760  HEM760      0.0000
     18  C1B       -3.0980   -2.7750   23.4340 C.ar  760  HEM760      0.0000
     19  C2B       -4.3850   -2.6110   24.0760 C.ar  760  HEM760      0.0000
     20  C3B       -4.9140   -1.4700   23.6320 C.ar  760  HEM760      0.0000
     21  C4B       -3.9700   -0.8930   22.6820 C.ar  760  HEM760      0.0000
     22  CMB       -4.9950   -3.6300   25.0660 C.3   760  HEM760      0.0000
     23  CAB       -6.2720   -0.8380   23.9920 C.2   760  HEM760      0.0000
     24  CBB       -7.3590   -1.5920   24.1600 C.2   760  HEM760      0.0000
     25  NC        -2.2320    0.0730   20.4810 N.2   760  HEM760      0.0000
     26  C1C       -3.4230    0.6300   20.9060 C.2   760  HEM760      0.0000
     27  C2C       -3.7790    1.6930   19.9850 C.2   760  HEM760      0.0000
     28  C3C       -2.8380    1.7540   19.0390 C.2   760  HEM760      0.0000
     29  C4C       -1.8480    0.7380   19.3410 C.2   760  HEM760      0.0000
     30  CMC       -5.0480    2.5690   20.0900 C.3   760  HEM760      0.0000
     31  CAC       -2.7590    2.7130   17.8240 C.2   760  HEM760      0.0000
     32  CBC       -3.9590    3.1010   17.3190 C.2   760  HEM760      0.0000
     33  ND         0.1630   -1.2750   20.0190 N.ar  760  HEM760      0.0000
     34  C1D        0.2360   -0.3990   18.9450 C.ar  760  HEM760      0.0000
     35  C2D        1.4570   -0.6550   18.2100 C.ar  760  HEM760      0.0000
     36  C3D        2.1010   -1.6310   18.8360 C.ar  760  HEM760      0.0000
     37  C4D        1.3030   -2.0380   19.9720 C.ar  760  HEM760      0.0000
     38  CMD        1.8980    0.1270   16.9470 C.3   760  HEM760      0.0000
     39  CAD        3.4560   -2.2890   18.4790 C.3   760  HEM760      0.0000
     40  CBD        3.2590   -3.6230   17.7270 C.3   760  HEM760      0.0000
     41  CGD        4.5290   -4.1270   17.0850 C.2   760  HEM760      0.0000
     42  O1D        5.5190   -3.3440   16.9970 O.co2 760  HEM760      0.0000
     43  O2D        4.5060   -5.3110   16.6770 O.co2 760  HEM760      0.0000
@<TRIPOS>BOND
     1    43    41   ar
     2    38    35    1
     3    42    41   ar
     4    41    40    1
     5    32    31    2
     6    40    39    1
     7    31    28    1
     8    35    36   ar
     9    35    34   ar
    10    39    36    1
    11     5    34    2
    12     5    29    1
    13    36    37   ar
    14    34    33   ar
    15    28    29    1
    16    28    27    2
    17    29    25    2
    18    37    33   ar
    19    37     2    2
    20    27    30    1
    21    27    26    1
    22    33     1    1
    23    25    26    1
    24    25     1    1
    25    15    14   ar
    26     2     7    1
    27    26     4    2
    28     1     6    1
    29     1    17    1
    30    13    14    1
    31    13    12    1
    32     7     6    2
    33     7     8    1
    34    14    16   ar
    35     4    21    1
    36     6    10    1
    37    17    21   ar
    38    17    18   ar
    39    12     8    1
    40     8     9    2
    41    21    20   ar
    42    10     9    1
    43    10     3    2
    44     9    11    1
    45    18     3    1
    46    18    19   ar
    47    20    23    1
    48    20    19   ar
    49    23    24    2
    50    19    22    1
