@<TRIPOS>MOLECULE
1ggj_HDD_A_1.pdb
 44 52 0 0 0
SMALL
GASTEIGER

@<TRIPOS>ATOM
      1 FE         -1.3840   -1.5360   21.1550 Fe    760  HDD760      0.0000
      2  CHA        1.5460   -3.1630   20.7090 C.2   760  HDD760      0.0000
      3  CHB       -2.2420   -3.8730   23.6470 C.2   760  HDD760      0.0000
      4  CHC       -4.0970    0.3990   22.0170 C.2   760  HDD760      0.0000
      5  CHD       -0.6290    0.5860   18.4580 C.2   760  HDD760      0.0000
      6  NA        -0.4930   -3.1290   22.0600 N.2   760  HDD760      0.0000
      7  C1A        0.6890   -3.6630   21.6360 C.2   760  HDD760      0.0000
      8  C2A        0.9390   -4.8240   22.5420 C.2   760  HDD760      0.0000
      9  C3A       -0.0330   -5.0170   23.4330 C.2   760  HDD760      0.0000
     10  C4A       -0.9770   -3.9190   23.1240 C.2   760  HDD760      0.0000
     11  CMA       -0.3050   -6.2160   24.3580 C.3   760  HDD760      0.0000
     12  CAA        2.2740   -5.5660   22.4960 C.3   760  HDD760      0.0000
     13  CBA        2.3530   -6.7800   21.4710 C.3   760  HDD760      0.0000
     14  CGA        3.6790   -7.5160   21.8070 C.2   760  HDD760      0.0000
     15  O1A        4.3900   -7.6480   20.8040 O.co2 760  HDD760      0.0000
     16  O2A        3.7500   -8.0030   22.9550 O.co2 760  HDD760      0.0000
     17  NB        -2.8930   -1.7610   22.5920 N.ar  760  HDD760      0.0000
     18  C1B       -2.9160   -2.6400   23.5960 C.ar  760  HDD760      0.0000
     19  C2B       -4.1190   -2.3880   24.4290 C.ar  760  HDD760      0.0000
     20  C3B       -4.6630   -1.3530   23.7600 C.ar  760  HDD760      0.0000
     21  C4B       -3.8660   -0.7800   22.7080 C.ar  760  HDD760      0.0000
     22  CMB       -4.8910   -3.5140   25.1870 C.3   760  HDD760      0.0000
     23  CAB       -6.0870   -0.7930   23.8950 C.2   760  HDD760      0.0000
     24  CBB       -7.0380   -1.4530   24.3630 C.2   760  HDD760      0.0000
     25  NC        -2.1120    0.2490   20.5040 N.2   760  HDD760      0.0000
     26  C1C       -3.3880    0.6770   20.8730 C.2   760  HDD760      0.0000
     27  C2C       -3.7460    1.7490   19.9370 C.2   760  HDD760      0.0000
     28  C3C       -2.8680    1.6320   18.9210 C.2   760  HDD760      0.0000
     29  C4C       -1.8010    0.6770   19.2440 C.2   760  HDD760      0.0000
     30  CMC       -4.9720    2.7000   19.9110 C.3   760  HDD760      0.0000
     31  CAC       -2.5950    2.5710   17.7370 C.3   760  HDD760      0.0000
     32  CBC       -3.6380    3.1410   17.2800 C.3   760  HDD760      0.0000
     33  ND         0.3830   -1.2180   20.0060 N.pl3 760  HDD760      0.0000
     34  C1D        0.2050   -0.4390   18.8620 C.2   760  HDD760      0.0000
     35  C2D        1.4180   -0.7560   17.9710 C.2   760  HDD760      0.0000
     36  C3D        2.0430   -1.7410   18.4790 C.2   760  HDD760      0.0000
     37  C4D        1.3230   -2.1390   19.7370 C.2   760  HDD760      0.0000
     38  CMD        2.0040    0.6000   17.5400 C.3   760  HDD760      0.0000
     39  CAD        3.4600   -1.4910   19.0380 C.3   760  HDD760      0.0000
     40  CBD        4.2610   -2.1990   17.9690 C.3   760  HDD760      0.0000
     41  CGD        3.5500   -3.4450   17.6790 C.2   760  HDD760      0.0000
     42  O1D        2.2900   -3.1470   17.8420 O.3   760  HDD760      0.0000
     43  O2D        3.8830   -4.4080   17.0570 O.2   760  HDD760      0.0000
     44  OND        1.0390   -1.2680   16.5880 O.2   760  HDD760      0.0000
@<TRIPOS>BOND
     1    44    35    1
     2    43    41    2
     3    32    31    1
     4    38    35    1
     5    41    42    1
     6    41    40    1
     7    31    28    1
     8    42    36    1
     9    40    39    1
    10    35    36    2
    11    35    34    1
    12     5    34    2
    13     5    29    1
    14    36    39    1
    15    36    37    1
    16    34    33    1
    17    28    29    1
    18    28    27    2
    19    29    25    2
    20    37    33    1
    21    37     2    2
    22    30    27    1
    23    27    26    1
    24    33     1    1
    25    25    26    1
    26    25     1    1
    27     2     7    1
    28    15    14   ar
    29    26     4    2
    30     1     6    1
    31     1    17    1
    32    13    14    1
    33    13    12    1
    34     7     6    2
    35     7     8    1
    36    14    16   ar
    37     4    21    1
    38     6    10    1
    39    12     8    1
    40     8     9    2
    41    17    21   ar
    42    17    18   ar
    43    21    20   ar
    44    10     9    1
    45    10     3    2
    46     9    11    1
    47    18     3    1
    48    18    19   ar
    49    20    23    1
    50    20    19   ar
    51    23    24    2
    52    19    22    1
