@<TRIPOS>MOLECULE
1ggk_HEM_A_1.pdb
 43 50 0 0 0
SMALL
GASTEIGER

@<TRIPOS>ATOM
      1 FE         -1.3300   -1.6710   21.4000 Fe    760  HEM760      0.0000
      2  CHA        1.7680   -3.0340   21.2140 C.2   760  HEM760      0.0000
      3  CHB       -2.1220   -3.8170   23.9700 C.2   760  HEM760      0.0000
      4  CHC       -4.0230    0.3030   22.2310 C.2   760  HEM760      0.0000
      5  CHD       -0.5390    0.5410   18.8810 C.2   760  HEM760      0.0000
      6  NA        -0.3290   -3.0910   22.4220 N.2   760  HEM760      0.0000
      7  C1A        0.9070   -3.6160   22.1290 C.2   760  HEM760      0.0000
      8  C2A        1.1460   -4.8040   22.9280 C.2   760  HEM760      0.0000
      9  C3A        0.0700   -4.9980   23.6820 C.2   760  HEM760      0.0000
     10  C4A       -0.8810   -3.9470   23.3860 C.2   760  HEM760      0.0000
     11  CMA       -0.2290   -6.1130   24.7130 C.3   760  HEM760      0.0000
     12  CAA        2.4420   -5.6420   22.8680 C.3   760  HEM760      0.0000
     13  CBA        2.4780   -6.8600   21.9340 C.3   760  HEM760      0.0000
     14  CGA        3.7750   -7.6340   22.0120 C.2   760  HEM760      0.0000
     15  O1A        4.5350   -7.5790   21.0090 O.co2 760  HEM760      0.0000
     16  O2A        3.9470   -8.2730   23.0850 O.co2 760  HEM760      0.0000
     17  NB        -2.7250   -1.6980   22.8570 N.ar  760  HEM760      0.0000
     18  C1B       -2.9730   -2.7540   23.7170 C.ar  760  HEM760      0.0000
     19  C2B       -4.2910   -2.5770   24.3200 C.ar  760  HEM760      0.0000
     20  C3B       -4.8000   -1.4420   23.8530 C.ar  760  HEM760      0.0000
     21  C4B       -3.8360   -0.8790   22.9260 C.ar  760  HEM760      0.0000
     22  CMB       -4.9270   -3.5670   25.3210 C.3   760  HEM760      0.0000
     23  CAB       -6.1580   -0.7770   24.1530 C.2   760  HEM760      0.0000
     24  CBB       -7.2370   -1.4540   24.5250 C.2   760  HEM760      0.0000
     25  NC        -2.0990    0.0980   20.7430 N.2   760  HEM760      0.0000
     26  C1C       -3.2900    0.6830   21.1220 C.2   760  HEM760      0.0000
     27  C2C       -3.6410    1.7510   20.2030 C.2   760  HEM760      0.0000
     28  C3C       -2.6830    1.7940   19.2760 C.2   760  HEM760      0.0000
     29  C4C       -1.7000    0.7800   19.5980 C.2   760  HEM760      0.0000
     30  CMC       -4.9200    2.6210   20.3220 C.3   760  HEM760      0.0000
     31  CAC       -2.5220    2.7310   18.0510 C.2   760  HEM760      0.0000
     32  CBC       -3.5900    3.4680   17.6980 C.2   760  HEM760      0.0000
     33  ND         0.3330   -1.2490   20.3370 N.ar  760  HEM760      0.0000
     34  C1D        0.4090   -0.4030   19.2470 C.ar  760  HEM760      0.0000
     35  C2D        1.6230   -0.6850   18.5200 C.ar  760  HEM760      0.0000
     36  C3D        2.2600   -1.6740   19.1600 C.ar  760  HEM760      0.0000
     37  C4D        1.4640   -2.0460   20.2990 C.ar  760  HEM760      0.0000
     38  CMD        2.0640    0.0830   17.2540 C.3   760  HEM760      0.0000
     39  CAD        3.6100   -2.3500   18.8130 C.3   760  HEM760      0.0000
     40  CBD        3.3660   -3.6240   17.9810 C.3   760  HEM760      0.0000
     41  CGD        4.6210   -4.2540   17.4580 C.2   760  HEM760      0.0000
     42  O1D        5.6920   -3.5800   17.3930 O.co2 760  HEM760      0.0000
     43  O2D        4.5340   -5.4430   17.1070 O.co2 760  HEM760      0.0000
@<TRIPOS>BOND
     1    43    41   ar
     2    38    35    1
     3    42    41   ar
     4    41    40    1
     5    32    31    2
     6    40    39    1
     7    31    28    1
     8    35    36   ar
     9    35    34   ar
    10    39    36    1
    11     5    34    2
    12     5    29    1
    13    36    37   ar
    14    34    33   ar
    15    28    29    1
    16    28    27    2
    17    29    25    2
    18    27    30    1
    19    27    26    1
    20    37    33   ar
    21    37     2    2
    22    33     1    1
    23    25    26    1
    24    25     1    1
    25    15    14   ar
    26    26     4    2
    27     2     7    1
    28     1     6    1
    29     1    17    1
    30    13    14    1
    31    13    12    1
    32    14    16   ar
    33     7     6    2
    34     7     8    1
    35     4    21    1
    36     6    10    1
    37    17    21   ar
    38    17    18   ar
    39    12     8    1
    40    21    20   ar
    41     8     9    2
    42    10     9    1
    43    10     3    2
    44     9    11    1
    45    18     3    1
    46    18    19   ar
    47    20    23    1
    48    20    19   ar
    49    23    24    2
    50    19    22    1
