@<TRIPOS>MOLECULE
1ggm_GAP_A_1.pdb
 33 35 0 0 0
SMALL
GASTEIGER

@<TRIPOS>ATOM
      1  N         19.3080   24.4620   37.7090 N.4   1550  GAP1550     0.3877
      2  CA        19.5400   23.6690   36.4620 C.3   1550  GAP1550     0.0264
      3  C         21.0020   23.4470   36.0200 C.2   1550  GAP1550     0.2986
      4  O         21.8220   23.2740   36.9660 O.2   1550  GAP1550    -0.2522
      5  PA        22.7870   23.2110   34.2460 P.3   1550  GAP1550     0.2721
      6  O1A       22.6690   22.6740   32.8590 O.2   1550  GAP1550    -0.5082
      7  O2A       23.5570   22.4550   35.2610 O.3   1550  GAP1550    -0.4273
      8  O3A       21.2720   23.4430   34.7740 O.3   1550  GAP1550    -0.4115
      9  C5'       22.6260   25.7880   33.7720 C.3   1550  GAP1550     0.1823
     10  O5'       23.4250   24.6670   34.1310 O.3   1550  GAP1550    -0.3024
     11  C4'       23.4970   26.8850   33.2400 C.3   1550  GAP1550     0.1820
     12  O4'       24.4650   27.1520   34.2700 O.3   1550  GAP1550    -0.3136
     13  C3'       24.3120   26.5660   32.0000 C.3   1550  GAP1550     0.2149
     14  O3'       23.6050   26.9800   30.8370 O.3   1550  GAP1550    -0.2176
     15  C2'       25.5320   27.4570   32.1640 C.3   1550  GAP1550     0.2171
     16  O2'       25.3040   28.7710   31.6990 O.3   1550  GAP1550    -0.3762
     17  C1'       25.6960   27.4670   33.6830 C.3   1550  GAP1550     0.3150
     18  N9        26.6710   26.5470   34.2120 N.pl3 1550  GAP1550    -0.1440
     19  C8        26.4740   25.2890   34.7080 C.3   1550  GAP1550     0.3377
     20  N7        27.5620   24.7360   35.1810 N.2   1550  GAP1550    -0.2098
     21  C5        28.5420   25.6990   34.9690 C.2   1550  GAP1550     0.2438
     22  C6        29.9150   25.7420   35.2730 C.2   1550  GAP1550     0.3428
     23  N6        30.5800   24.7540   35.8550 N.pl3 1550  GAP1550    -0.2449
     24  N1        30.5930   26.8520   34.9520 N.2   1550  GAP1550    -0.0059
     25  C2        29.9250   27.8430   34.3520 C.3   1550  GAP1550     0.5252
     26  N3        28.6430   27.9230   34.0070 N.2   1550  GAP1550    -0.0055
     27  C4        28.0010   26.7990   34.3580 C.2   1550  GAP1550     0.3515
     28  H1        20.2460   24.7150   38.1070 H     1550  GAP1550    -0.0886
     29  H2A       18.7820   25.3230   37.4740 H     1550  GAP1550    -0.0886
     30  H3        18.7870   23.8870   38.3780 H     1550  GAP1550    -0.0886
     31 HO'2       26.1090   29.2600   31.8320 H     1550  GAP1550     0.2107
     32  H61       30.0910   23.9090   36.1160 H     1550  GAP1550     0.2885
     33  H62       31.5620   24.8520   36.0570 H     1550  GAP1550     0.2885
@<TRIPOS>BOND
     1    14    13    1
     2    16    31    1
     3    16    15    1
     4    13    15    1
     5    13    11    1
     6    15    17    1
     7     6     5    2
     8    11     9    1
     9    11    12    1
    10    17    18    1
    11    17    12    1
    12     9    10    1
    13    26    25    1
    14    26    27    2
    15    10     5    1
    16    18    27    1
    17    18    19    1
    18     5     8    1
    19     5     7    1
    20    25    24    1
    21    27    21    1
    22    19    20    1
    23     8     3    1
    24    24    22    2
    25    21    20    2
    26    21    22    1
    27    22    23    1
    28    23    33    1
    29    23    32    1
    30     3     2    1
    31     3     4    2
    32     2     1    1
    33    29     1    1
    34     1    28    1
    35     1    30    1
