@<TRIPOS>MOLECULE
1ggn_PLP_A_1.pdb
 15 15 0 0 0
SMALL
GASTEIGER

@<TRIPOS>ATOM
      1  N1        24.6320   25.6900   30.2140 N.ar  999  PLP999     -0.2452
      2  C2        23.5270   24.9430   30.4570 C.ar  999  PLP999      0.0978
      3  C2A       22.5530   25.4660   31.5080 C.3   999  PLP999      0.0555
      4  C3        23.3380   23.7360   29.7930 C.ar  999  PLP999      0.2049
      5  O3        22.1620   23.0090   29.9720 O.3   999  PLP999     -0.2857
      6  C4        24.2910   23.3140   28.8620 C.ar  999  PLP999      0.0182
      7  C4A       23.9960   22.0190   28.0180 C.3   999  PLP999      0.0342
      8  C5        25.4310   24.1170   28.6270 C.ar  999  PLP999      0.0261
      9  C6        25.5790   25.2880   29.3280 C.ar  999  PLP999      0.0965
     10  C5A       26.4410   23.8520   27.4590 C.3   999  PLP999      0.1815
     11  O4P       26.0030   24.6310   26.3340 O.3   999  PLP999     -0.2653
     12  P         26.9870   24.7950   25.0860 P.3   999  PLP999      0.5329
     13  O1P       26.0700   25.3540   24.0790 O.2   999  PLP999     -0.2224
     14  O2P       28.1100   25.9100   25.5490 O.3   999  PLP999     -0.1145
     15  O3P       27.7660   23.5030   24.8520 O.3   999  PLP999     -0.1145
@<TRIPOS>BOND
     1    13    12    2
     2    15    12    1
     3    12    14    1
     4    12    11    1
     5    11    10    1
     6    10     8    1
     7     7     6    1
     8     8     6   ar
     9     8     9   ar
    10     6     4   ar
    11     9     1   ar
    12     4     5    1
    13     4     2   ar
    14     1     2   ar
    15     2     3    1
