@<TRIPOS>MOLECULE
1ggn_GLS_A_1.pdb
 17 18 0 0 0
SMALL
GASTEIGER

@<TRIPOS>ATOM
      1  C1        33.9560   22.7890   27.8470 C.3   998  GLS998      0.3255
      2  C2        33.9560   23.1040   26.2930 C.3   998  GLS998      0.2483
      3  O2        34.0030   24.4890   26.0500 O.3   998  GLS998     -0.2143
      4  C3        32.6870   22.5180   25.6310 C.3   998  GLS998      0.2204
      5  O3        32.7050   22.6180   24.2440 O.3   998  GLS998     -0.2174
      6  C4        32.4930   21.0420   25.9840 C.3   998  GLS998      0.2145
      7  O4        31.3160   20.6290   25.3660 O.3   998  GLS998     -0.2176
      8  C5        32.3970   20.8580   27.5430 C.3   998  GLS998      0.1840
      9  C6        32.2530   19.3800   27.8620 C.3   998  GLS998      0.2142
     10  O6        33.3420   18.6600   27.3410 O.3   998  GLS998     -0.2176
     11  O5        33.6210   21.3670   28.1270 O.3   998  GLS998     -0.3200
     12  N2        35.2650   23.0730   28.3800 N.2   998  GLS998     -0.1323
     13  C8        35.1270   23.9830   29.3650 C.1   998  GLS998      0.3094
     14  O8        36.0420   24.3810   30.0720 O.2   998  GLS998     -0.1881
     15  N1        33.8880   24.4190   29.6180 N.2   998  GLS998     -0.2424
     16  C7        33.1430   23.7320   28.7390 C.1   998  GLS998      0.2421
     17  O7        31.9110   23.8450   28.6740 O.2   998  GLS998     -0.2089
@<TRIPOS>BOND
     1     5     4    1
     2     7     6    1
     3     4     6    1
     4     4     2    1
     5     6     8    1
     6     3     2    1
     7     2     1    1
     8    10     9    1
     9     8     9    1
    10     8    11    1
    11     1    11    1
    12     1    12    1
    13     1    16    1
    14    12    13    2
    15    17    16    2
    16    16    15    2
    17    13    15    2
    18    13    14    2
