@<TRIPOS>MOLECULE
1gha_III_P_1.pdb
 31 32 0 0 0
SMALL
GASTEIGER

@<TRIPOS>ATOM
      1  N         30.4680   71.7310   90.8220 N.3   571  PRO571     -0.2102
      2  CA        31.7560   72.0190   90.1370 C.3   571  PRO571      0.1504
      3  C         32.9630   71.6450   90.9910 C.2   571  PRO571      0.2576
      4  O         33.1340   70.4630   91.3290 O.2   571  PRO571     -0.2718
      5  CB        31.7940   73.4870   89.7270 C.3   571  PRO571      0.0282
      6  CG        30.4300   73.6970   89.3610 C.3   571  PRO571      0.0208
      7  CD        29.7050   72.9570   90.4950 C.3   571  PRO571      0.0893
      8  N         33.7350   72.6450   91.4210 N.am  572  GLY572     -0.1943
      9  CA        34.9440   72.3850   92.1860 C.3   572  GLY572      0.2014
     10  C         36.0110   72.8790   91.2310 C.2   572  GLY572      0.2639
     11  O         36.9790   73.5180   91.6180 O.2   572  GLY572     -0.2714
     12  N         35.7530   72.6360   89.9470 N.am  573  VAL573     -0.1963
     13  CA        36.6070   73.0660   88.8570 C.3   573  VAL573      0.1727
     14  C         35.9830   74.4070   88.3970 C.2   573  VAL573      0.2617
     15  O         34.7670   74.5830   88.5010 O.2   573  VAL573     -0.2715
     16  CB        36.5880   71.9960   87.7660 C.3   573  VAL573      0.0290
     17  CG1       35.2980   72.0730   86.9690 C.3   573  VAL573      0.0023
     18  CG2       37.8280   72.0930   86.9140 C.3   573  VAL573      0.0023
     19  N         36.7930   75.3480   87.9160 N.am  574  TYR574     -0.1938
     20  CA        36.2800   76.6700   87.5300 C.3   574  TYR574      0.2021
     21  C         35.7780   76.8670   86.0810 C.2   574  TYR574      0.3845
     22  O         35.5410   75.8550   85.3740 O.co2 574  TYR574     -0.2437
     23  CB        37.3150   77.7430   87.9110 C.3   574  TYR574      0.0596
     24  CG        37.6560   77.7980   89.3890 C.ar  574  TYR574     -0.0197
     25  CD1       36.6970   77.5120   90.3670 C.ar  574  TYR574     -0.0009
     26  CD2       38.9280   78.1870   89.8140 C.ar  574  TYR574     -0.0009
     27  CE1       36.9910   77.6100   91.7250 C.ar  574  TYR574      0.0417
     28  CE2       39.2340   78.2930   91.1620 C.ar  574  TYR574      0.0417
     29  CZ        38.2580   78.0070   92.1120 C.ar  574  TYR574      0.1957
     30  OH        38.5590   78.1590   93.4400 O.3   574  TYR574     -0.2866
     31  OXT       35.6590   78.0420   85.6510 O.co2 574  TYR574     -0.2437
@<TRIPOS>BOND
     1    22    21   ar
     2    31    21   ar
     3    21    20    1
     4    18    16    1
     5    17    16    1
     6    20    23    1
     7    20    19    1
     8    16    13    1
     9    23    24    1
    10    19    14   am
    11    14    15    2
    12    14    13    1
    13    13    12    1
    14     6     5    1
    15     6     7    1
    16    24    26   ar
    17    24    25   ar
    18     5     2    1
    19    26    28   ar
    20    12    10   am
    21     2     1    1
    22     2     3    1
    23    25    27   ar
    24     7     1    1
    25     3     4    2
    26     3     8   am
    27    28    29   ar
    28    10    11    2
    29    10     9    1
    30     8     9    1
    31    27    29   ar
    32    29    30    1
