@<TRIPOS>MOLECULE
1ghb_III_P_1.pdb
 17 17 0 0 0
SMALL
GASTEIGER

@<TRIPOS>ATOM
      1  N         30.1000   71.0930   90.9420 N.3   571  PRO571     -0.2102
      2  CA        31.4180   71.6140   90.4560 C.3   571  PRO571      0.1504
      3  C         32.5610   71.3730   91.4510 C.2   571  PRO571      0.2576
      4  O         32.3940   70.6190   92.4120 O.2   571  PRO571     -0.2718
      5  CB        31.2840   73.1020   90.1410 C.3   571  PRO571      0.0282
      6  CG        29.9410   73.1500   89.6630 C.3   571  PRO571      0.0208
      7  CD        29.2100   72.2370   90.6550 C.3   571  PRO571      0.0893
      8  N         33.6860   72.0580   91.2070 N.am  572  GLY572     -0.1943
      9  CA        34.9000   71.9710   92.0050 C.3   572  GLY572      0.2014
     10  C         35.9830   72.5860   91.1210 C.2   572  GLY572      0.2639
     11  O         37.0040   73.0980   91.5880 O.2   572  GLY572     -0.2714
     12  N         35.7550   72.4620   89.8160 N.am  573  ALA573     -0.1941
     13  CA        36.6230   72.9990   88.7780 C.3   573  ALA573      0.1979
     14  C         35.8840   74.1820   88.1560 C.2   573  ALA573      0.3842
     15  O         34.7130   74.4020   88.5370 O.co2 573  ALA573     -0.2437
     16  CB        36.8990   71.9520   87.7260 C.3   573  ALA573      0.0356
     17  OXT       36.4700   74.8650   87.2900 O.co2 573  ALA573     -0.2437
@<TRIPOS>BOND
     1    17    14   ar
     2    16    13    1
     3    14    15   ar
     4    14    13    1
     5    13    12    1
     6     6     5    1
     7     6     7    1
     8    12    10   am
     9     5     2    1
    10     2     1    1
    11     2     3    1
    12     7     1    1
    13    10    11    2
    14    10     9    1
    15     8     3   am
    16     8     9    1
    17     3     4    2
