@<TRIPOS>MOLECULE
1ghb_TRP_E_1.pdb
 15 16 0 0 0
SMALL
GASTEIGER

@<TRIPOS>ATOM
      1  N         40.4440   78.4660   91.5080 N.3   601  TRP601     -0.1205
      2  CA        40.5690   78.9630   90.1360 C.3   601  TRP601      0.1984
      3  C         42.0260   79.2150   89.7980 C.2   601  TRP601      0.3822
      4  O         42.4790   78.7870   88.7290 O.co2 601  TRP601     -0.2440
      5  CB        40.0480   77.9560   89.1260 C.3   601  TRP601      0.0549
      6  CG        38.6070   77.7230   89.1500 C.2   601  TRP601     -0.0138
      7  CD1       37.8230   77.4380   88.0820 C.2   601  TRP601      0.0907
      8  CD2       37.7650   77.6550   90.3060 C.3   601  TRP601      0.0819
      9  NE1       36.5500   77.1660   88.4970 N.2   601  TRP601     -0.2482
     10  CE2       36.4920   77.2960   89.8540 C.2   601  TRP601      0.0665
     11  CE3       37.9750   77.8610   91.6680 C.2   601  TRP601     -0.0164
     12  CZ2       35.4310   77.1480   90.7270 C.2   601  TRP601      0.0153
     13  CZ3       36.9460   77.7060   92.5190 C.2   601  TRP601     -0.0038
     14  CH2       35.6700   77.3710   92.0550 C.2   601  TRP601      0.0009
     15  OXT       42.7810   79.6280   90.6750 O.co2 601  TRP601     -0.2440
@<TRIPOS>BOND
     1     7     9    1
     2     7     6    2
     3     9    10    2
     4     4     3   ar
     5     5     6    1
     6     5     2    1
     7     6     8    1
     8     3     2    1
     9     3    15   ar
    10    10     8    1
    11    10    12    1
    12     2     1    1
    13     8    11    1
    14    12    14    2
    15    11    13    2
    16    14    13    1
