@<TRIPOS>MOLECULE
1ghm_CED_A_1.pdb
 22 23 0 0 0
SMALL
GASTEIGER

@<TRIPOS>ATOM
      1  S1         2.5790   -6.7200  -10.9940 S.3     1  CED1       -0.1145
      2  C2         4.2860   -6.2910  -10.5870 C.3     1  CED1        0.0656
      3  C3         5.3260   -6.3400  -11.6650 C.3     1  CED1        0.0574
      4  C3'        6.4980   -5.5480  -11.5110 C.3     1  CED1        0.0074
      5  C4         5.1130   -7.2520  -12.8720 C.2     1  CED1        0.1345
      6  C4'        6.1550   -7.3700  -13.9920 C.2     1  CED1        0.4007
      7  O4A        7.2400   -6.7450  -13.9740 O.co2   1  CED1       -0.2392
      8  O4B        5.7950   -8.1340  -14.8830 O.co2   1  CED1       -0.2392
      9  N5         3.9820   -8.0210  -13.0390 N.2     1  CED1       -0.2568
     10  C6         2.8480   -8.1230  -12.1300 C.3     1  CED1        0.1777
     11  C7         2.9390   -9.4790  -11.3500 C.3     1  CED1        0.1920
     12  C8         3.6400  -10.5130  -12.2480 C.2     1  CED1        0.2316
     13  O9         4.8290  -10.8380  -12.0460 O.2     1  CED1       -0.2863
     14  N10        3.7810   -9.4480  -10.0920 N.am    1  CED1       -0.1959
     15  C11        3.1560   -9.3880   -8.7920 C.2     1  CED1        0.2468
     16  O12        1.9210   -9.3470   -8.6340 O.2     1  CED1       -0.2729
     17  C13        4.1110   -9.4090   -7.5980 C.3     1  CED1        0.1196
     18  C14        4.6540   -8.0380   -7.3450 C.ar    1  CED1        0.0165
     19  C15        3.9000   -6.8050   -7.0520 C.ar    1  CED1        0.0032
     20  C16        4.8650   -5.7710   -6.9710 C.ar    1  CED1        0.0072
     21  C17        6.1740   -6.1090   -7.1290 C.ar    1  CED1        0.0351
     22  S19        6.2950   -7.7850   -7.4140 S.2     1  CED1       -0.0903
@<TRIPOS>BOND
     1     8     6   ar
     2     6     7   ar
     3     6     5    1
     4     9     5    2
     5     9    10    1
     6     5     3    1
     7    12    13    2
     8    12    11    1
     9    10    11    1
    10    10     1    1
    11     3     4    1
    12     3     2    1
    13    11    14    1
    14     1     2    1
    15    14    15   am
    16    15    16    2
    17    15    17    1
    18    17    18    1
    19    22    18   ar
    20    22    21   ar
    21    18    19   ar
    22    21    20   ar
    23    19    20   ar
