@<TRIPOS>MOLECULE
1ghp_PNM_A_1.pdb
 23 24 0 0 0
SMALL
GASTEIGER

@<TRIPOS>ATOM
      1  O8         4.8910  -10.9800  -11.9860 O.2     1  PNM1       -0.2863
      2  C7         3.7480  -10.5860  -12.1110 C.2     1  PNM1        0.2311
      3  N4         4.5660   -7.8970  -11.8060 N.3     1  PNM1       -0.1957
      4  C3         4.7990   -6.7730  -10.8610 C.3     1  PNM1        0.1857
      5  C11        6.1300   -6.0600  -11.1340 C.2     1  PNM1        0.3811
      6  O13        6.8470   -5.8460  -10.1320 O.co2   1  PNM1       -0.2441
      7  O12        6.5190   -5.8450  -12.2730 O.co2   1  PNM1       -0.2441
      8  C2         3.5630   -5.8580  -10.8620 C.3     1  PNM1        0.0658
      9  C10        3.5660   -4.8960   -9.6800 C.3     1  PNM1        0.0129
     10  C9         3.4420   -5.0730  -12.1750 C.3     1  PNM1        0.0129
     11  S1         2.1830   -7.0390  -10.7320 S.3     1  PNM1       -0.1212
     12  C5         3.1650   -8.3120  -11.6260 C.3     1  PNM1        0.1479
     13  C6         3.1300   -9.7120  -11.0450 C.3     1  PNM1        0.1855
     14  N14        3.7970   -9.7990   -9.7490 N.am    1  PNM1       -0.1965
     15  C15        3.1200   -9.6790   -8.5990 C.2     1  PNM1        0.2462
     16  O16        1.8840   -9.5990   -8.5730 O.2     1  PNM1       -0.2730
     17  C17        3.9300   -9.7010   -7.2480 C.3     1  PNM1        0.1131
     18  C18        4.6520   -8.3940   -6.9590 C.ar    1  PNM1       -0.0130
     19  C19        3.9420   -7.2150   -6.7380 C.ar    1  PNM1       -0.0038
     20  C20        4.6170   -5.9840   -6.5710 C.ar    1  PNM1       -0.0003
     21  C21        6.0220   -5.9480   -6.6200 C.ar    1  PNM1       -0.0000
     22  C22        6.7270   -7.1200   -6.8230 C.ar    1  PNM1       -0.0003
     23  C23        6.0520   -8.3290   -6.9920 C.ar    1  PNM1       -0.0038
@<TRIPOS>BOND
     1     7     5   ar
     2    10     8    1
     3     2     1    2
     4     2    13    1
     5     3    12    1
     6     3     4    1
     7    12    13    1
     8    12    11    1
     9     5     4    1
    10     5     6   ar
    11    13    14    1
    12     8     4    1
    13     8    11    1
    14     8     9    1
    15    14    15   am
    16    15    16    2
    17    15    17    1
    18    17    18    1
    19    23    18   ar
    20    23    22   ar
    21    18    19   ar
    22    22    21   ar
    23    19    20   ar
    24    21    20   ar
