@<TRIPOS>MOLECULE
1ghv_120_H_1.pdb
 31 33 0 0 0
SMALL
GASTEIGER

@<TRIPOS>ATOM
      1  C1        11.8160  -11.7880   22.9290 C.2   246  120246      0.0493
      2  C2        12.3380  -10.5140   22.5970 C.2   246  120246     -0.0485
      3  C3        13.2450  -10.3690   21.5590 C.2   246  120246     -0.0372
      4  C4        13.5950  -11.5020   20.8900 C.2   246  120246      0.0674
      5  C5        13.1270  -12.7400   21.1680 C.2   246  120246      0.1232
      6  C6        12.2210  -12.9280   22.1960 C.3   246  120246      0.0604
      7  C7        10.9220  -11.9140   23.9730 C.2   246  120246      0.2628
      8  N1        10.2600  -13.0300   24.0920 N.2   246  120246     -0.2887
      9  N2        10.7710  -10.9130   24.8170 N.pl3 246  120246     -0.2500
     10  N3        14.3940  -11.6540   19.9230 N.pl3 246  120246     -0.2867
     11  N4        13.6190  -13.6650   20.3810 N.2   246  120246     -0.3899
     12  C8        14.4070  -12.9200   19.6150 C.2   246  120246      0.1874
     13  C1'       15.1520  -13.4170   18.5520 C.ar  246  120246      0.0915
     14  C2'       14.9440  -14.7360   18.1510 C.ar  246  120246     -0.0437
     15  C3'       15.6750  -15.2340   17.0950 C.ar  246  120246     -0.0448
     16  C4'       16.5960  -14.4010   16.4620 C.ar  246  120246      0.0050
     17  N5'       16.7800  -13.1550   16.8550 N.ar  246  120246     -0.3285
     18  C6'       16.1130  -12.6250   17.8570 C.ar  246  120246      0.2603
     19  O6'       16.3280  -11.4690   18.1790 O.2   246  120246     -0.2671
     20  HC2       12.0360   -9.6360   23.1380 H     246  120246      0.0624
     21  HC3       13.6630   -9.4170   21.2790 H     246  120246      0.0637
     22  HC6       11.8490  -13.9190   22.4160 H     246  120246      0.0436
     23 HH11       10.4230  -13.7750   23.4280 H     246  120246      0.3009
     24 HH12        9.6210  -13.2180   24.8270 H     246  120246      0.3009
     25 HH21       11.3320  -10.0800   24.6960 H     246  120246      0.2883
     26 HH22       10.1510  -10.9300   25.5940 H     246  120246      0.2883
     27  HN3       14.9160  -10.9410   19.5160 H     246  120246      0.1546
     28 HC2'       14.2240  -15.3660   18.6530 H     246  120246      0.0627
     29 HC3'       15.5310  -16.2530   16.7650 H     246  120246      0.0632
     30 HC4'       17.1220  -14.7990   15.6360 H     246  120246      0.0808
     31 HN5'       17.4420  -12.6010   16.3740 H     246  120246      0.1683
@<TRIPOS>BOND
     1    30    16    1
     2    31    17    1
     3    16    17   ar
     4    16    15   ar
     5    29    15    1
     6    17    18   ar
     7    15    14   ar
     8    18    19    2
     9    18    13   ar
    10    14    13   ar
    11    14    28    1
    12    13    12    1
    13    27    10    1
    14    12    10    1
    15    12    11    2
    16    10     4    1
    17    11     5    2
    18     4     5    1
    19     4     3    2
    20     5     6    1
    21    21     3    1
    22     3     2    1
    23     6    22    1
    24     6     1    1
    25     2     1    2
    26     2    20    1
    27     1     7    1
    28    23     8    1
    29     7     8    2
    30     7     9    1
    31     8    24    1
    32    25     9    1
    33     9    26    1
