@<TRIPOS>MOLECULE
1ghw_BMZ_H_1.pdb
 31 33 0 0 0
SMALL
GASTEIGER

@<TRIPOS>ATOM
      1  C1        11.9400  -11.6230   22.6350 C.2   246  BMZ246      0.0492
      2  C2        12.3090  -10.3510   22.2020 C.3   246  BMZ246      0.0224
      3  C3        13.1330  -10.1780   21.1080 C.2   246  BMZ246     -0.0511
      4  C4        13.5670  -11.3000   20.4780 C.2   246  BMZ246      0.0677
      5  C5        13.2300  -12.5500   20.8730 C.2   246  BMZ246      0.1376
      6  C6        12.4090  -12.7540   21.9610 C.2   246  BMZ246     -0.0111
      7  C7        11.1050  -11.7470   23.7260 C.2   246  BMZ246      0.2628
      8  N1        10.4230  -12.8530   23.8610 N.2   246  BMZ246     -0.2887
      9  N2        11.0150  -10.7570   24.5920 N.pl3 246  BMZ246     -0.2500
     10  N3        14.3270  -11.4430   19.4570 N.pl3 246  BMZ246     -0.2867
     11  N4        13.7620  -13.4800   20.1240 N.2   246  BMZ246     -0.3862
     12  C8        14.4430  -12.7270   19.2500 C.2   246  BMZ246      0.1862
     13  C1'       15.2270  -13.2350   18.2020 C.ar  246  BMZ246      0.0739
     14  C2'       15.2250  -14.6110   17.9170 C.ar  246  BMZ246     -0.0466
     15  C3'       15.9960  -15.1170   16.8810 C.ar  246  BMZ246     -0.0608
     16  C4'       16.7850  -14.2600   16.1170 C.ar  246  BMZ246     -0.0581
     17  C5'       16.7960  -12.8940   16.3950 C.ar  246  BMZ246     -0.0142
     18  C6'       16.0230  -12.3770   17.4340 C.ar  246  BMZ246      0.1904
     19  O6'       16.0550  -11.0250   17.6910 O.3   246  BMZ246     -0.2871
     20  HC2       11.9520   -9.4780   22.7220 H     246  BMZ246      0.0403
     21  HC3       13.4300   -9.2020   20.7550 H     246  BMZ246      0.0598
     22  HC6       12.1440  -13.7520   22.2720 H     246  BMZ246      0.0655
     23 HH11       10.5390  -13.5750   23.1630 H     246  BMZ246      0.3009
     24 HH12        9.8020  -13.0520   24.6150 H     246  BMZ246      0.3009
     25 HH21       11.5910   -9.9420   24.4440 H     246  BMZ246      0.2883
     26 HH22       10.4330  -10.7650   25.4010 H     246  BMZ246      0.2883
     27  HN3       14.7640  -10.7570   18.9010 H     246  BMZ246      0.1546
     28 HC2'       14.6180  -15.2910   18.5000 H     246  BMZ246      0.0626
     29 HC3'       15.9840  -16.1760   16.6720 H     246  BMZ246      0.0618
     30 HC4'       17.3830  -14.6540   15.3080 H     246  BMZ246      0.0619
     31 HC5'       17.4110  -12.2440   15.7990 H     246  BMZ246      0.0656
@<TRIPOS>BOND
     1    30    16    1
     2    31    17    1
     3    16    17   ar
     4    16    15   ar
     5    17    18   ar
     6    29    15    1
     7    15    14   ar
     8    18    19    1
     9    18    13   ar
    10    14    13   ar
    11    14    28    1
    12    13    12    1
    13    27    10    1
    14    12    10    1
    15    12    11    2
    16    10     4    1
    17    11     5    2
    18     4     5    1
    19     4     3    2
    20    21     3    1
    21     5     6    1
    22     3     2    1
    23     6    22    1
    24     6     1    2
    25     2     1    1
    26     2    20    1
    27     1     7    1
    28    23     8    1
    29     7     8    2
    30     7     9    1
    31     8    24    1
    32    25     9    1
    33     9    26    1
