@<TRIPOS>MOLECULE
1ghx_BMZ_H_1.pdb
 31 33 0 0 0
SMALL
GASTEIGER

@<TRIPOS>ATOM
      1  C1        11.7210  -11.7000   22.7330 C.2   246  BMZ246      0.0492
      2  C2        12.0850  -10.4310   22.2790 C.3   246  BMZ246      0.0224
      3  C3        12.9280  -10.2910   21.2010 C.2   246  BMZ246     -0.0511
      4  C4        13.3820  -11.4220   20.6110 C.2   246  BMZ246      0.0677
      5  C5        13.0430  -12.6590   21.0400 C.2   246  BMZ246      0.1376
      6  C6        12.2140  -12.8460   22.0990 C.2   246  BMZ246     -0.0111
      7  C7        10.8860  -11.8310   23.8160 C.2   246  BMZ246      0.2628
      8  N1        10.2840  -12.9750   24.0220 N.2   246  BMZ246     -0.2887
      9  N2        10.7390  -10.7930   24.6050 N.pl3 246  BMZ246     -0.2500
     10  N3        14.1790  -11.5700   19.6030 N.pl3 246  BMZ246     -0.2867
     11  N4        13.6210  -13.5520   20.2960 N.2   246  BMZ246     -0.3862
     12  C8        14.3200  -12.8620   19.4100 C.2   246  BMZ246      0.1862
     13  C1'       15.1200  -13.4000   18.3960 C.ar  246  BMZ246      0.0739
     14  C2'       15.0820  -14.7720   18.0990 C.ar  246  BMZ246     -0.0466
     15  C3'       15.8770  -15.2990   17.1060 C.ar  246  BMZ246     -0.0608
     16  C4'       16.7150  -14.4640   16.4020 C.ar  246  BMZ246     -0.0581
     17  C5'       16.7640  -13.1050   16.6880 C.ar  246  BMZ246     -0.0142
     18  C6'       15.9720  -12.5760   17.6780 C.ar  246  BMZ246      0.1904
     19  O6'       16.0220  -11.2190   17.9300 O.3   246  BMZ246     -0.2871
     20  HC2       11.7080   -9.5450   22.7550 H     246  BMZ246      0.0403
     21  HC3       13.2200   -9.3250   20.8280 H     246  BMZ246      0.0598
     22  HC6       11.9570  -13.8460   22.4230 H     246  BMZ246      0.0655
     23 HH11       10.4440  -13.7440   23.3840 H     246  BMZ246      0.3009
     24 HH12        9.7270  -13.1860   24.8170 H     246  BMZ246      0.3009
     25 HH21       11.2780   -9.9650   24.4140 H     246  BMZ246      0.2883
     26 HH22       10.1600  -10.7750   25.4170 H     246  BMZ246      0.2883
     27  HN3       14.6200  -10.8860   19.0470 H     246  BMZ246      0.1546
     28 HC2'       14.4230  -15.4340   18.6480 H     246  BMZ246      0.0626
     29 HC3'       15.8390  -16.3550   16.8840 H     246  BMZ246      0.0618
     30 HC4'       17.3340  -14.8680   15.6180 H     246  BMZ246      0.0619
     31 HC5'       17.4270  -12.4640   16.1340 H     246  BMZ246      0.0656
@<TRIPOS>BOND
     1    30    16    1
     2    31    17    1
     3    16    17   ar
     4    16    15   ar
     5    17    18   ar
     6    29    15    1
     7    15    14   ar
     8    18    19    1
     9    18    13   ar
    10    14    13   ar
    11    14    28    1
    12    13    12    1
    13    27    10    1
    14    12    10    1
    15    12    11    2
    16    10     4    1
    17    11     5    2
    18     4     5    1
    19     4     3    2
    20    21     3    1
    21     5     6    1
    22     3     2    1
    23     6    22    1
    24     6     1    2
    25     2     1    1
    26     2    20    1
    27     1     7    1
    28    23     8    1
    29     7     8    2
    30     7     9    1
    31     8    24    1
    32    25     9    1
    33     9    26    1
