@<TRIPOS>MOLECULE
1ghy_121_H_1.pdb
 29 31 0 0 0
SMALL
GASTEIGER

@<TRIPOS>ATOM
      1  C1        12.1290  -11.7940   22.8500 C.ar  246  121246      0.0640
      2  C2        12.1340  -10.7030   21.9600 C.ar  246  121246     -0.0438
      3  C3        13.0630  -10.6080   20.9460 C.ar  246  121246     -0.0194
      4  C4        13.9750  -11.6260   20.8300 C.ar  246  121246      0.1652
      5  C5        13.9850  -12.6930   21.6780 C.ar  246  121246      0.1660
      6  C6        13.0700  -12.8160   22.7070 C.ar  246  121246     -0.0055
      7  C7        11.2050  -11.8130   23.8750 C.2   246  121246      0.2663
      8  N1        10.5580  -12.8920   24.1770 N.2   246  121246     -0.2884
      9  N2        11.0250  -10.6920   24.5390 N.pl3 246  121246     -0.2497
     10  N3        14.9670  -11.7520   20.0020 N.2   246  121246     -0.3358
     11  N4        14.9880  -13.4550   21.3550 N.2   246  121246     -0.3358
     12  C8        15.5810  -12.8680   20.3340 C.1   246  121246      0.1723
     13  C1'       16.7500  -13.3560   19.7150 C.2   246  121246      0.2524
     14  N2'       17.5630  -14.0260   20.5190 N.2   246  121246     -0.3994
     15  C3'       18.7250  -14.5340   20.1550 C.2   246  121246      0.0649
     16  C4'       19.1630  -14.3720   18.8460 C.3   246  121246      0.0398
     17  C5'       18.3540  -13.6700   17.9400 C.2   246  121246     -0.0230
     18  C6'       17.1250  -13.1490   18.3620 C.2   246  121246      0.2250
     19  O6'       16.3480  -12.4580   17.4410 O.2   246  121246     -0.2840
     20  HC2       11.4010   -9.9190   22.0660 H     246  121246      0.0627
     21  HC3       13.0620   -9.7630   20.2760 H     246  121246      0.0651
     22  HC6       13.0750  -13.6780   23.3580 H     246  121246      0.0659
     23 HH11       10.7630  -13.7290   23.6520 H     246  121246      0.3009
     24 HH12        9.9110  -12.9530   24.9240 H     246  121246      0.3009
     25 HH21       11.6190   -9.9100   24.3010 H     246  121246      0.2883
     26 HH22       10.4020  -10.5630   25.3050 H     246  121246      0.2883
     27 HC3'       19.3350  -15.0620   20.8740 H     246  121246      0.0928
     28 HC4'       20.1180  -14.7700   18.5360 H     246  121246      0.0422
     29 HC5'       18.6830  -13.5380   16.9160 H     246  121246      0.0618
@<TRIPOS>BOND
     1    29    17    1
     2    19    18    1
     3    17    18    2
     4    17    16    1
     5    18    13    1
     6    28    16    1
     7    16    15    1
     8    13    12    1
     9    13    14    2
    10    10    12    2
    11    10     4    2
    12    15    14    2
    13    15    27    1
    14    21     3    1
    15    12    11    2
    16     4     3   ar
    17     4     5   ar
    18     3     2   ar
    19    11     5    2
    20     5     6   ar
    21     2    20    1
    22     2     1   ar
    23     6     1   ar
    24     6    22    1
    25     1     7    1
    26    23     8    1
    27     7     8    2
    28     7     9    1
    29     8    24    1
    30    25     9    1
    31     9    26    1
