@<TRIPOS>MOLECULE
1ghz_120_A_1.pdb
 31 33 0 0 0
SMALL
GASTEIGER

@<TRIPOS>ATOM
      1  C1        45.5210   19.3220   52.9710 C.2   246  120246      0.0492
      2  C2        44.9600   18.9450   51.7100 C.3   246  120246      0.0224
      3  C3        44.6630   19.8760   50.7100 C.2   246  120246     -0.0511
      4  C4        44.9430   21.1740   51.0030 C.2   246  120246      0.0677
      5  C5        45.4780   21.5930   52.1780 C.2   246  120246      0.1376
      6  C6        45.7850   20.7080   53.2020 C.2   246  120246     -0.0111
      7  C7        45.8050   18.3410   53.9180 C.2   246  120246      0.2628
      8  N1        46.5150   18.6530   54.9580 N.pl3 246  120246     -0.2500
      9  N2        45.3730   17.1190   53.7560 N.2   246  120246     -0.2887
     10  N3        44.7760   22.2190   50.2680 N.pl3 246  120246     -0.2867
     11  N4        45.6450   22.9130   52.2160 N.2   246  120246     -0.3862
     12  C8        45.1820   23.2150   50.9930 C.2   246  120246      0.1877
     13  C1'       45.2120   24.5160   50.4390 C.ar  246  120246      0.0915
     14  C2'       45.9180   25.5190   51.0800 C.ar  246  120246     -0.0437
     15  C3'       45.9540   26.7840   50.5520 C.ar  246  120246     -0.0448
     16  C4'       45.3000   27.0960   49.3770 C.ar  246  120246      0.0050
     17  N5'       44.6330   26.1090   48.7910 N.ar  246  120246     -0.3285
     18  C6'       44.5300   24.8470   49.2100 C.ar  246  120246      0.2603
     19  O6'       43.8810   24.0230   48.5860 O.2   246  120246     -0.2671
     20  HC2       44.7470   17.9110   51.4990 H     246  120246      0.0403
     21  HC3       44.2360   19.5900   49.7600 H     246  120246      0.0598
     22  HC6       46.2010   21.0620   54.1330 H     246  120246      0.0655
     23 HH11       46.8760   19.5890   55.0250 H     246  120246      0.2883
     24 HH12       46.7070   18.0310   55.7090 H     246  120246      0.2883
     25 HH21       44.8490   16.8830   52.9220 H     246  120246      0.3009
     26 HH22       45.5650   16.3840   54.3910 H     246  120246      0.3009
     27  HN3       44.4150   22.2860   49.3580 H     246  120246      0.1546
     28 HC2'       46.4440   25.3160   52.0030 H     246  120246      0.0627
     29 HC3'       46.5090   27.5560   51.0670 H     246  120246      0.0632
     30 HC4'       45.3280   28.0930   48.9660 H     246  120246      0.0808
     31 HN5'       44.1810   26.3630   47.9570 H     246  120246      0.1683
@<TRIPOS>BOND
     1    31    17    1
     2    19    18    2
     3    17    18   ar
     4    17    16   ar
     5    30    16    1
     6    18    13   ar
     7    27    10    1
     8    16    15   ar
     9    21     3    1
    10    10    12    1
    11    10     4    1
    12    13    12    1
    13    13    14   ar
    14    15    29    1
    15    15    14   ar
    16     3     4    2
    17     3     2    1
    18    12    11    2
    19     4     5    1
    20    14    28    1
    21    20     2    1
    22     2     1    1
    23     5    11    2
    24     5     6    1
    25    25     9    1
    26     1     6    2
    27     1     7    1
    28     6    22    1
    29     9     7    2
    30     9    26    1
    31     7     8    1
    32     8    23    1
    33     8    24    1
