@<TRIPOS>MOLECULE
1gi0_BMZ_A_1.pdb
 32 34 0 0 0
SMALL
GASTEIGER

@<TRIPOS>ATOM
      1  C1        45.5930   19.3440   52.5170 C.ar  246  BMZ246      0.0627
      2  C2        45.1290   18.7840   51.2780 C.ar  246  BMZ246     -0.0452
      3  C3        44.8290   19.5840   50.1600 C.ar  246  BMZ246     -0.0382
      4  C4        45.0040   20.9350   50.3220 C.ar  246  BMZ246      0.0502
      5  C5        45.4500   21.5030   51.4810 C.ar  246  BMZ246      0.0510
      6  C6        45.7490   20.7500   52.5950 C.ar  246  BMZ246     -0.0243
      7  C7        45.8810   18.5390   53.6250 C.2   246  BMZ246      0.2662
      8  N1        46.6900   18.9750   54.5360 N.pl3 246  BMZ246     -0.2497
      9  N2        45.3410   17.3600   53.7290 N.2   246  BMZ246     -0.2884
     10  N3        44.8220   21.8950   49.4600 N.pl3 246  BMZ246     -0.3150
     11  N4        45.5280   22.8080   51.3000 N.pl3 246  BMZ246     -0.3149
     12  C8        45.1400   22.9990   50.0610 C.3   246  BMZ246      0.1700
     13  C1'       44.9640   24.2310   49.4240 C.ar  246  BMZ246      0.0443
     14  C2'       45.4850   25.4180   49.9740 C.ar  246  BMZ246     -0.0512
     15  C3'       45.3080   26.6520   49.3370 C.ar  246  BMZ246     -0.0612
     16  C4'       44.6090   26.7210   48.1370 C.ar  246  BMZ246     -0.0581
     17  C5'       44.0940   25.5660   47.5760 C.ar  246  BMZ246     -0.0145
     18  C6'       44.2630   24.3470   48.1990 C.ar  246  BMZ246      0.1859
     19  O6'       43.6960   23.2770   47.5620 O.3   246  BMZ246     -0.2875
     20  HC2       45.0030   17.7150   51.1930 H     246  BMZ246      0.0627
     21  HC3       44.4820   19.1700   49.2270 H     246  BMZ246      0.0637
     22  HC6       46.0940   21.2230   53.5040 H     246  BMZ246      0.0645
     23 HH11       47.1090   19.8900   54.4310 H     246  BMZ246      0.2883
     24 HH12       46.8820   18.4810   55.3820 H     246  BMZ246      0.2883
     25 HH21       44.7490   17.0300   52.9770 H     246  BMZ246      0.3009
     26 HH22       45.5230   16.7510   54.4930 H     246  BMZ246      0.3009
     27  HN3       44.5080   21.8370   48.5450 H     246  BMZ246      0.1486
     28 HC2'       46.0290   25.3830   50.9080 H     246  BMZ246      0.0623
     29 HC3'       45.7090   27.5530   49.7750 H     246  BMZ246      0.0618
     30 HC4'       44.4670   27.6640   47.6390 H     246  BMZ246      0.0619
     31 HC5'       43.5530   25.6170   46.6420 H     246  BMZ246      0.0656
     32 HN32       45.8280   23.4970   51.9820 H     246  BMZ246      0.1486
@<TRIPOS>BOND
     1    31    17    1
     2    19    18    1
     3    17    16   ar
     4    17    18   ar
     5    30    16    1
     6    16    15   ar
     7    18    13   ar
     8    27    10    1
     9    21     3    1
    10    15    29    1
    11    15    14   ar
    12    13    14   ar
    13    13    12    1
    14    10    12    1
    15    10     4    1
    16    14    28    1
    17    12    11    1
    18     3     4   ar
    19     3     2   ar
    20     4     5   ar
    21    20     2    1
    22     2     1   ar
    23    11     5    1
    24    11    32    1
    25     5     6   ar
    26     1     6   ar
    27     1     7    1
    28     6    22    1
    29    25     9    1
    30     7     9    2
    31     7     8    1
    32     9    26    1
    33    23     8    1
    34     8    24    1
