@<TRIPOS>MOLECULE
1gi1_BMZ_A_1.pdb
 31 33 0 0 0
SMALL
GASTEIGER

@<TRIPOS>ATOM
      1  C1        29.4210   15.0020   17.0370 C.2   246  BMZ246      0.0492
      2  C2        28.8930   15.8180   18.0960 C.3   246  BMZ246      0.0224
      3  C3        28.5980   15.3160   19.3690 C.2   246  BMZ246     -0.0511
      4  C4        28.8270   13.9780   19.5530 C.2   246  BMZ246      0.0677
      5  C5        29.3210   13.1610   18.5880 C.2   246  BMZ246      0.1376
      6  C6        29.6350   13.6280   17.3210 C.2   246  BMZ246     -0.0111
      7  C7        29.6800   15.5650   15.7540 C.2   246  BMZ246      0.2628
      8  N1        30.4010   14.8940   14.8730 N.2   246  BMZ246     -0.2887
      9  N2        29.2050   16.7530   15.4620 N.pl3 246  BMZ246     -0.2500
     10  N3        28.6260   13.2350   20.5950 N.pl3 246  BMZ246     -0.2867
     11  N4        29.4480   11.9030   19.0050 N.2   246  BMZ246     -0.3862
     12  C8        28.9910   12.0450   20.2460 C.2   246  BMZ246      0.1862
     13  C1'       28.8670   10.9880   21.1720 C.ar  246  BMZ246      0.0739
     14  C2'       29.4510    9.7290   20.9700 C.ar  246  BMZ246     -0.0466
     15  C3'       29.2910    8.6930   21.8900 C.ar  246  BMZ246     -0.0608
     16  C4'       28.5360    8.8870   23.0280 C.ar  246  BMZ246     -0.0581
     17  C5'       27.9540   10.1080   23.2610 C.ar  246  BMZ246     -0.0142
     18  C6'       28.1100   11.1460   22.3510 C.ar  246  BMZ246      0.1904
     19  O6'       27.4980   12.3310   22.6670 O.3   246  BMZ246     -0.2871
     20  HC2       28.7440   16.8720   17.9280 H     246  BMZ246      0.0403
     21  HC3       28.2120   15.9390   20.1590 H     246  BMZ246      0.0598
     22  HC6       30.0230   12.9590   16.5670 H     246  BMZ246      0.0655
     23 HH11       30.7940   13.9960   15.1160 H     246  BMZ246      0.3009
     24 HH12       30.5680   15.1960   13.9330 H     246  BMZ246      0.3009
     25 HH21       28.6790   17.2580   16.1650 H     246  BMZ246      0.2883
     26 HH22       29.3480   17.2110   14.5960 H     246  BMZ246      0.2883
     27  HN3       28.2820   13.4590   21.4890 H     246  BMZ246      0.1546
     28 HC2'       30.0470    9.5500   20.0850 H     246  BMZ246      0.0626
     29 HC3'       29.7560    7.7320   21.7060 H     246  BMZ246      0.0618
     30 HC4'       28.4160    8.0850   23.7400 H     246  BMZ246      0.0619
     31 HC5'       27.3710   10.2640   24.1560 H     246  BMZ246      0.0656
@<TRIPOS>BOND
     1    24     8    1
     2    26     9    1
     3     8    23    1
     4     8     7    2
     5     9     7    1
     6     9    25    1
     7     7     1    1
     8    22     6    1
     9     1     6    2
    10     1     2    1
    11     6     5    1
    12    20     2    1
    13     2     3    1
    14     5    11    2
    15     5     4    1
    16    11    12    2
    17     3     4    2
    18     3    21    1
    19     4    10    1
    20    28    14    1
    21    12    10    1
    22    12    13    1
    23    10    27    1
    24    14    13   ar
    25    14    15   ar
    26    13    18   ar
    27    29    15    1
    28    15    16   ar
    29    18    19    1
    30    18    17   ar
    31    16    17   ar
    32    16    30    1
    33    17    31    1
