@<TRIPOS>MOLECULE
1gi2_122_A_1.pdb
 31 33 0 0 0
SMALL
GASTEIGER

@<TRIPOS>ATOM
      1  C1        29.3370   14.9870   16.9550 C.2   246  122246      0.0493
      2  C2        28.8330   15.8160   17.9910 C.2   246  122246     -0.0485
      3  C3        28.5440   15.3060   19.2510 C.2   246  122246     -0.0372
      4  C4        28.7640   13.9630   19.4350 C.2   246  122246      0.0674
      5  C5        29.2470   13.1370   18.4720 C.2   246  122246      0.1232
      6  C6        29.5450   13.6220   17.2040 C.3   246  122246      0.0604
      7  C7        29.6050   15.5370   15.6840 C.2   246  122246      0.2628
      8  N1        30.3300   14.8580   14.8190 N.2   246  122246     -0.2887
      9  N2        29.1240   16.7280   15.3840 N.pl3 246  122246     -0.2500
     10  N3        28.5900   13.2270   20.4700 N.pl3 246  122246     -0.2868
     11  N4        29.3750   11.8940   18.8960 N.2   246  122246     -0.3899
     12  C8        28.9460   12.0120   20.1630 C.2   246  122246      0.1858
     13  C1'       28.8040   10.9690   21.0950 C.ar  246  122246      0.0739
     14  C2'       29.4020    9.7290   20.8710 C.ar  246  122246     -0.0466
     15  C3'       29.2430    8.7160   21.8150 C.ar  246  122246     -0.0608
     16  C4'       28.4970    8.9340   22.9670 C.ar  246  122246     -0.0581
     17  C5'       27.9030   10.1600   23.1960 C.ar  246  122246     -0.0142
     18  C6'       28.0530   11.1720   22.2700 C.ar  246  122246      0.1904
     19  O6'       27.4600   12.3770   22.5390 O.3   246  122246     -0.2871
     20  HC2       28.6730   16.8670   17.8200 H     246  122246      0.0624
     21  HC3       28.1630   15.9170   20.0530 H     246  122246      0.0637
     22  HC6       29.9260   12.9640   16.4420 H     246  122246      0.0436
     23 HH11       30.7060   13.9600   15.0800 H     246  122246      0.3009
     24 HH12       30.5200   15.1400   13.8770 H     246  122246      0.3009
     25 HH21       28.5890   17.2350   16.0790 H     246  122246      0.2883
     26 HH22       29.2910   17.1830   14.5170 H     246  122246      0.2883
     27  HN4       28.2510   13.4790   21.3570 H     246  122246      0.1546
     28 HC2'       29.9870    9.5480   19.9780 H     246  122246      0.0626
     29 HC3'       29.7090    7.7560   21.6440 H     246  122246      0.0618
     30 HC4'       28.3810    8.1410   23.6880 H     246  122246      0.0619
     31 HC5'       27.3230   10.3280   24.0910 H     246  122246      0.0656
@<TRIPOS>BOND
     1    24     8    1
     2    26     9    1
     3     8    23    1
     4     8     7    2
     5     9     7    1
     6     9    25    1
     7     7     1    1
     8    22     6    1
     9     1     6    1
    10     1     2    2
    11     6     5    1
    12    20     2    1
    13     2     3    1
    14     5    11    2
    15     5     4    1
    16    11    12    2
    17     3     4    2
    18     3    21    1
    19     4    10    1
    20    28    14    1
    21    12    10    1
    22    12    13    1
    23    10    27    1
    24    14    13   ar
    25    14    15   ar
    26    13    18   ar
    27    29    15    1
    28    15    16   ar
    29    18    19    1
    30    18    17   ar
    31    16    17   ar
    32    16    30    1
    33    17    31    1
