@<TRIPOS>MOLECULE
1gi3_BMZ_A_1.pdb
 31 33 0 0 0
SMALL
GASTEIGER

@<TRIPOS>ATOM
      1  C1        44.5110   -3.0080   26.3270 C.2   246  BMZ246      0.0493
      2  C2        44.9710   -1.6720   26.3590 C.2   246  BMZ246     -0.0485
      3  C3        44.9500   -0.9240   27.5350 C.2   246  BMZ246     -0.0372
      4  C4        44.4650   -1.5190   28.6730 C.2   246  BMZ246      0.0674
      5  C5        44.0250   -2.7920   28.7060 C.2   246  BMZ246      0.1232
      6  C6        44.0300   -3.5800   27.5350 C.3   246  BMZ246      0.0604
      7  C7        44.5550   -3.7410   25.1140 C.2   246  BMZ246      0.2628
      8  N1        44.3500   -5.0470   25.1140 N.pl3 246  BMZ246     -0.2500
      9  N2        44.8010   -3.0920   23.9880 N.2   246  BMZ246     -0.2887
     10  N3        44.3480   -1.0720   29.8700 N.pl3 246  BMZ246     -0.2868
     11  N4        43.6200   -3.1500   29.9080 N.2   246  BMZ246     -0.3899
     12  C8        43.8410   -2.0250   30.5850 C.2   246  BMZ246      0.1858
     13  C1'       43.5380   -1.8250   31.9490 C.ar  246  BMZ246      0.0739
     14  C2'       43.2540   -2.9100   32.7760 C.ar  246  BMZ246     -0.0466
     15  C3'       42.9460   -2.7280   34.1120 C.ar  246  BMZ246     -0.0608
     16  C4'       42.9250   -1.4520   34.6430 C.ar  246  BMZ246     -0.0581
     17  C5'       43.2050   -0.3530   33.8360 C.ar  246  BMZ246     -0.0142
     18  C6'       43.5140   -0.5270   32.4960 C.ar  246  BMZ246      0.1904
     19  O6'       43.7950    0.5970   31.7400 O.3   246  BMZ246     -0.2871
     20  HC2       45.3480   -1.1960   25.4680 H     246  BMZ246      0.0624
     21  HC3       45.2980    0.0950   27.5640 H     246  BMZ246      0.0637
     22  HC6       43.6700   -4.5980   27.5610 H     246  BMZ246      0.0436
     23 HH11       44.1780   -5.5430   25.9760 H     246  BMZ246      0.2883
     24 HH12       44.3100   -5.6050   24.2830 H     246  BMZ246      0.2883
     25 HH21       44.9510   -2.0940   23.9880 H     246  BMZ246      0.3009
     26 HH22       44.8990   -3.5680   23.1210 H     246  BMZ246      0.3009
     27  HN3       44.5620   -0.1840   30.2290 H     246  BMZ246      0.1546
     28 HC2'       43.2700   -3.9080   32.3830 H     246  BMZ246      0.0626
     29 HC3'       42.7280   -3.5800   34.7370 H     246  BMZ246      0.0618
     30 HC4'       42.6840   -1.3090   35.6860 H     246  BMZ246      0.0619
     31 HC5'       43.1850    0.6400   34.2620 H     246  BMZ246      0.0656
@<TRIPOS>BOND
     1    26     9    1
     2    25     9    1
     3     9     7    2
     4    24     8    1
     5     7     8    1
     6     7     1    1
     7     8    23    1
     8    20     2    1
     9     1     2    2
    10     1     6    1
    11     2     3    1
    12     6    22    1
    13     6     5    1
    14     3    21    1
    15     3     4    2
    16     4     5    1
    17     4    10    1
    18     5    11    2
    19    10    27    1
    20    10    12    1
    21    11    12    2
    22    12    13    1
    23    19    18    1
    24    13    18   ar
    25    13    14   ar
    26    28    14    1
    27    18    17   ar
    28    14    15   ar
    29    17    31    1
    30    17    16   ar
    31    15    16   ar
    32    15    29    1
    33    16    30    1
