@<TRIPOS>MOLECULE
1gi4_122_A_1.pdb
 31 33 0 0 0
SMALL
GASTEIGER

@<TRIPOS>ATOM
      1  C1        43.8450   -2.6200   26.3150 C.3   246  122246      0.1307
      2  C2        44.3910   -1.3120   26.5250 C.2   246  122246     -0.0581
      3  C3        44.2550   -0.5740   27.7130 C.2   246  122246     -0.0249
      4  C4        43.5460   -1.2100   28.6920 C.2   246  122246      0.1369
      5  C5        43.0360   -2.4460   28.5270 C.2   246  122246      0.0685
      6  C6        43.1400   -3.1860   27.3870 C.2   246  122246     -0.0368
      7  C7        44.0280   -3.3280   25.1170 C.2   246  122246      0.2498
      8  N1        43.8400   -4.6310   25.0870 N.pl3 246  122246     -0.2528
      9  N2        44.3860   -2.6840   24.0310 N.2   246  122246     -0.2916
     10  N3        43.3130   -0.7180   29.8950 N.2   246  122246     -0.3862
     11  N4        42.4440   -2.7370   29.6330 N.pl3 246  122246     -0.2867
     12  C8        42.6130   -1.7180   30.4190 C.2   246  122246      0.1862
     13  C1'       42.0620   -1.7300   31.7660 C.ar  246  122246      0.0739
     14  C2'       41.1150   -2.7470   32.1220 C.ar  246  122246     -0.0466
     15  C3'       40.5390   -2.8090   33.3720 C.ar  246  122246     -0.0608
     16  C4'       40.8740   -1.8690   34.3340 C.ar  246  122246     -0.0581
     17  C5'       41.7850   -0.8480   34.0790 C.ar  246  122246     -0.0142
     18  C6'       42.3750   -0.7780   32.8230 C.ar  246  122246      0.1904
     19  O6'       43.2710    0.2670   32.7590 O.3   246  122246     -0.2871
     20  HC2       44.9220   -0.8590   25.7220 H     246  122246      0.0588
     21  HC3       44.6760    0.4170   27.8480 H     246  122246      0.0647
     22  HC6       42.6790   -4.1560   27.3810 H     246  122246      0.0606
     23 HH11       43.5860   -5.1150   25.9420 H     246  122246      0.2880
     24 HH12       43.9370   -5.2060   24.2790 H     246  122246      0.2880
     25 HH21       44.4950   -1.6900   24.0670 H     246  122246      0.3006
     26 HH22       44.5580   -3.1030   23.1470 H     246  122246      0.3006
     27  HN4       41.9440   -3.5370   29.9170 H     246  122246      0.1546
     28 HC2'       40.8360   -3.4810   31.3850 H     246  122246      0.0626
     29 HC3'       39.8400   -3.5890   33.5970 H     246  122246      0.0618
     30 HC4'       40.4270   -1.9150   35.3000 H     246  122246      0.0619
     31 HC5'       42.0630   -0.0870   34.8190 H     246  122246      0.0656
@<TRIPOS>BOND
     1    26     9    1
     2     9    25    1
     3     9     7    2
     4    24     8    1
     5     8     7    1
     6     8    23    1
     7     7     1    1
     8    20     2    1
     9     1     2    1
    10     1     6    1
    11     2     3    2
    12    22     6    1
    13     6     5    2
    14     3    21    1
    15     3     4    1
    16     5     4    1
    17     5    11    1
    18     4    10    2
    19    11    27    1
    20    11    12    1
    21    10    12    2
    22    12    13    1
    23    28    14    1
    24    13    14   ar
    25    13    18   ar
    26    14    15   ar
    27    19    18    1
    28    18    17   ar
    29    15    29    1
    30    15    16   ar
    31    17    16   ar
    32    17    31    1
    33    16    30    1
