@<TRIPOS>MOLECULE
1gi5_123_A_1.pdb
 35 37 0 0 0
SMALL
GASTEIGER

@<TRIPOS>ATOM
      1  C1        44.1700   -3.0960   25.9870 C.2   246  123246      0.0493
      2  C2        44.6500   -1.7540   26.0030 C.2   246  123246     -0.0485
      3  C3        44.6240   -0.9960   27.1620 C.2   246  123246     -0.0372
      4  C4        44.1160   -1.5960   28.2960 C.2   246  123246      0.0674
      5  C5        43.6480   -2.8670   28.3340 C.2   246  123246      0.1232
      6  C6        43.6580   -3.6620   27.1800 C.3   246  123246      0.0604
      7  C7        44.2200   -3.8160   24.7770 C.2   246  123246      0.2628
      8  N1        44.0370   -5.1250   24.7560 N.pl3 246  123246     -0.2500
      9  N2        44.4400   -3.1380   23.6670 N.2   246  123246     -0.2887
     10  N3        43.9780   -1.1420   29.4850 N.pl3 246  123246     -0.2868
     11  N4        43.2210   -3.2040   29.5390 N.2   246  123246     -0.3899
     12  C8        43.4560   -2.0790   30.2050 C.2   246  123246      0.1859
     13  C1'       43.1790   -1.8460   31.5650 C.ar  246  123246      0.0774
     14  C2'       42.9270   -2.9050   32.4370 C.ar  246  123246     -0.0048
     15  C3'       42.6480   -2.6550   33.7870 C.ar  246  123246      0.1210
     16  O3'       42.3640   -3.6820   34.6710 O.3   246  123246     -0.4951
     17  CM3       41.9790   -4.9830   34.2330 C.3   246  123246      0.0788
     18  C4'       42.6270   -1.3480   34.2670 C.ar  246  123246     -0.0163
     19  C5'       42.8760   -0.2810   33.4110 C.ar  246  123246     -0.0107
     20  C6'       43.1490   -0.5160   32.0620 C.ar  246  123246      0.1906
     21  O6'       43.3580    0.5760   31.2320 O.3   246  123246     -0.2871
     22  HC2       45.0500   -1.2890   25.1190 H     246  123246      0.0624
     23  HC3       44.9840    0.0190   27.1860 H     246  123246      0.0637
     24  HC6       43.2830   -4.6750   27.2070 H     246  123246      0.0436
     25 HH11       43.8620   -5.6010   25.6330 H     246  123246      0.2883
     26 HH12       44.0470   -5.7000   23.9430 H     246  123246      0.2883
     27 HH21       44.5290   -2.1320   23.7030 H     246  123246      0.3009
     28 HH22       44.5360   -3.5700   22.7740 H     246  123246      0.3009
     29  HN3       44.2070   -0.2570   29.8420 H     246  123246      0.1546
     30 HC2'       42.9480   -3.9170   32.0720 H     246  123246      0.0663
     31 H3'1       41.6700   -5.5690   35.0860 H     246  123246      0.0660
     32 H3'2       41.1570   -4.9030   33.5350 H     246  123246      0.0660
     33 H3'3       42.8200   -5.4610   33.7530 H     246  123246      0.0660
     34 HC4'       42.4150   -1.1580   35.3090 H     246  123246      0.0655
     35 HC5'       42.8590    0.7290   33.7930 H     246  123246      0.0657
@<TRIPOS>BOND
     1    28     9    1
     2     9    27    1
     3     9     7    2
     4    26     8    1
     5     8     7    1
     6     8    25    1
     7     7     1    1
     8    22     2    1
     9     1     2    2
    10     1     6    1
    11     2     3    1
    12     3    23    1
    13     3     4    2
    14     6    24    1
    15     6     5    1
    16     4     5    1
    17     4    10    1
    18     5    11    2
    19    10    29    1
    20    10    12    1
    21    11    12    2
    22    12    13    1
    23    21    20    1
    24    13    20   ar
    25    13    14   ar
    26    20    19   ar
    27    30    14    1
    28    14    15   ar
    29    19    35    1
    30    19    18   ar
    31    32    17    1
    32    33    17    1
    33    15    18   ar
    34    15    16    1
    35    17    16    1
    36    17    31    1
    37    18    34    1
