@<TRIPOS>MOLECULE
1gi6_124_A_1.pdb
 32 34 0 0 0
SMALL
GASTEIGER

@<TRIPOS>ATOM
      1  C1        44.1620   -2.9710   26.3600 C.ar  246  124246      0.0615
      2  C2        44.6360   -1.6440   26.3740 C.ar  246  124246     -0.0451
      3  C3        44.6090   -0.8910   27.5340 C.ar  246  124246     -0.0370
      4  C4        44.1120   -1.4680   28.6700 C.ar  246  124246      0.0470
      5  C5        43.6510   -2.7370   28.6680 C.ar  246  124246      0.0011
      6  C6        43.6550   -3.5290   27.5350 C.ar  246  124246     -0.0378
      7  C7        44.2320   -3.7060   25.1760 C.2   246  124246      0.2662
      8  N1        44.0220   -5.0070   25.2220 N.pl3 246  124246     -0.2497
      9  N2        44.5210   -3.0830   24.0420 N.2   246  124246     -0.2884
     10  N3        43.9980   -0.9600   29.8730 N.ar  246  124246     -0.3540
     11  C9        43.2410   -2.9910   29.9540 C.ar  246  124246     -0.0285
     12  C8        43.4830   -1.8500   30.6820 C.ar  246  124246      0.0512
     13  C1'       43.2410   -1.6500   32.0330 C.ar  246  124246      0.0449
     14  C2'       42.9800   -2.7540   32.8420 C.ar  246  124246     -0.0490
     15  C3'       42.7360   -2.5920   34.1930 C.ar  246  124246     -0.0609
     16  C4'       42.7430   -1.3140   34.7390 C.ar  246  124246     -0.0581
     17  C5'       43.0030   -0.1930   33.9290 C.ar  246  124246     -0.0143
     18  C6'       43.2500   -0.3590   32.5670 C.ar  246  124246      0.1880
     19  O6'       43.5060    0.7530   31.7730 O.3   246  124246     -0.2872
     20  HC2       45.0560   -1.1900   25.4910 H     246  124246      0.0627
     21  HC3       44.9730    0.1190   27.5640 H     246  124246      0.0638
     22  HC6       43.2800   -4.5300   27.5680 H     246  124246      0.0632
     23 HH11       43.8250   -5.4340   26.1180 H     246  124246      0.2883
     24 HH12       44.0280   -5.6230   24.4400 H     246  124246      0.2883
     25 HH21       44.6560   -2.0810   24.0390 H     246  124246      0.3009
     26 HH22       44.6200   -3.5440   23.1610 H     246  124246      0.3009
     27  HN3       44.2200   -0.0460   30.1660 H     246  124246      0.1659
     28  HC9       42.7820   -3.8900   30.3360 H     246  124246      0.0645
     29 HC2'       42.9630   -3.7530   32.4330 H     246  124246      0.0625
     30 HC3'       42.5540   -3.4520   34.8240 H     246  124246      0.0618
     31 HC4'       42.5800   -1.1870   35.8000 H     246  124246      0.0619
     32 HC5'       43.0230    0.7950   34.3770 H     246  124246      0.0656
@<TRIPOS>BOND
     1    26     9    1
     2    25     9    1
     3     9     7    2
     4    24     8    1
     5     7     8    1
     6     7     1    1
     7     8    23    1
     8    20     2    1
     9     1     2   ar
    10     1     6   ar
    11     2     3   ar
    12     3    21    1
    13     3     4   ar
    14     6    22    1
    15     6     5   ar
    16     5     4   ar
    17     5    11   ar
    18     4    10   ar
    19    10    27    1
    20    10    12   ar
    21    11    28    1
    22    11    12   ar
    23    12    13    1
    24    19    18    1
    25    13    18   ar
    26    13    14   ar
    27    29    14    1
    28    18    17   ar
    29    14    15   ar
    30    17    32    1
    31    17    16   ar
    32    15    16   ar
    33    15    30    1
    34    16    31    1
