@<TRIPOS>MOLECULE
1gi7_120_B_1.pdb
 31 33 0 0 0
SMALL
GASTEIGER

@<TRIPOS>ATOM
      1  C1         8.9630    0.7940   25.0180 C.2   246  120246      0.0492
      2  C2         9.5610    1.0090   23.7500 C.3   246  120246      0.0224
      3  C3         9.9900    2.2670   23.3380 C.2   246  120246     -0.0511
      4  C4         9.8150    3.3180   24.2040 C.2   246  120246      0.0677
      5  C5         9.2550    3.1780   25.4140 C.2   246  120246      0.1376
      6  C6         8.8170    1.9330   25.8500 C.2   246  120246     -0.0111
      7  C7         8.5420   -0.4870   25.4260 C.2   246  120246      0.2628
      8  N1         7.8380   -0.6200   26.5240 N.pl3 246  120246     -0.2500
      9  N2         8.8560   -1.5390   24.7120 N.2   246  120246     -0.2887
     10  N3        10.1100    4.5660   24.1150 N.pl3 246  120246     -0.2867
     11  N4         9.1890    4.3050   26.0850 N.2   246  120246     -0.3862
     12  C8         9.7410    5.1530   25.2240 C.2   246  120246      0.1877
     13  C1'        9.8790    6.5270   25.4620 C.ar  246  120246      0.0915
     14  C2'        9.6770    7.0270   26.7400 C.ar  246  120246     -0.0437
     15  C3'        9.8110    8.3740   26.9850 C.ar  246  120246     -0.0448
     16  C4'       10.1480    9.2360   25.9560 C.ar  246  120246      0.0050
     17  N5'       10.3390    8.7610   24.7400 N.ar  246  120246     -0.3285
     18  C6'       10.2210    7.4720   24.4500 C.ar  246  120246      0.2603
     19  O6'       10.3930    7.0970   23.3080 O.2   246  120246     -0.2671
     20  HC2        9.7000    0.1850   23.0730 H     246  120246      0.0403
     21  HC3       10.4460    2.4130   22.3700 H     246  120246      0.0598
     22  HC6        8.3700    1.8530   26.8280 H     246  120246      0.0655
     23 HH11        7.6540    0.1930   27.0950 H     246  120246      0.2883
     24 HH12        7.5080   -1.4910   26.8760 H     246  120246      0.2883
     25 HH21        9.3860   -1.4450   23.8560 H     246  120246      0.3009
     26 HH22        8.6100   -2.4710   24.9550 H     246  120246      0.3009
     27  HN3       10.5420    5.0270   23.3570 H     246  120246      0.1546
     28 HC2'        9.4150    6.3630   27.5510 H     246  120246      0.0627
     29 HC3'        9.6540    8.7560   27.9820 H     246  120246      0.0632
     30 HC4'       10.2520   10.2920   26.1480 H     246  120246      0.0808
     31 HN5'       10.5850    9.3950   24.0290 H     246  120246      0.1683
@<TRIPOS>BOND
     1    21     3    1
     2    20     2    1
     3    19    18    2
     4     3     2    1
     5     3     4    2
     6    27    10    1
     7     2     1    1
     8    25     9    1
     9    31    17    1
    10    10     4    1
    11    10    12    1
    12     4     5    1
    13    18    17   ar
    14    18    13   ar
    15     9    26    1
    16     9     7    2
    17    17    16   ar
    18     1     7    1
    19     1     6    2
    20    12    13    1
    21    12    11    2
    22     5     6    1
    23     5    11    2
    24     7     8    1
    25    13    14   ar
    26     6    22    1
    27    16    30    1
    28    16    15   ar
    29     8    24    1
    30     8    23    1
    31    14    15   ar
    32    14    28    1
    33    15    29    1
