@<TRIPOS>MOLECULE
1gi8_BMZ_B_1.pdb
 31 33 0 0 0
SMALL
GASTEIGER

@<TRIPOS>ATOM
      1  C1         8.9340    1.6430   24.7290 C.2   246  BMZ246      0.0492
      2  C2         9.6920    1.4510   23.5520 C.3   246  BMZ246      0.0224
      3  C3        10.3200    2.5160   22.9130 C.2   246  BMZ246     -0.0511
      4  C4        10.1580    3.7640   23.4840 C.2   246  BMZ246      0.0677
      5  C5         9.4560    4.0000   24.6040 C.2   246  BMZ246      0.1376
      6  C6         8.8340    2.9700   25.2480 C.2   246  BMZ246     -0.0111
      7  C7         8.3100    0.5980   25.3930 C.2   246  BMZ246      0.2628
      8  N1         7.8570    0.8250   26.5920 N.pl3 246  BMZ246     -0.2500
      9  N2         8.1960   -0.5750   24.8100 N.2   246  BMZ246     -0.2887
     10  N3        10.6090    4.9150   23.1410 N.pl3 246  BMZ246     -0.2867
     11  N4         9.4440    5.2580   24.9790 N.2   246  BMZ246     -0.3862
     12  C8        10.1820    5.7860   24.0150 C.2   246  BMZ246      0.1862
     13  C1'       10.4530    7.1440   23.8690 C.ar  246  BMZ246      0.0739
     14  C2'       10.0690    8.0570   24.8520 C.ar  246  BMZ246     -0.0466
     15  C3'       10.2680    9.4210   24.6990 C.ar  246  BMZ246     -0.0608
     16  C4'       10.8720    9.9120   23.5440 C.ar  246  BMZ246     -0.0581
     17  C5'       11.2740    9.0340   22.5480 C.ar  246  BMZ246     -0.0142
     18  C6'       11.0710    7.6580   22.7020 C.ar  246  BMZ246      0.1904
     19  O6'       11.4970    6.8070   21.6840 O.3   246  BMZ246     -0.2871
     20  HC2        9.7980    0.4550   23.1410 H     246  BMZ246      0.0403
     21  HC3       10.9030    2.3680   22.0160 H     246  BMZ246      0.0598
     22  HC6        8.2700    3.1820   26.1380 H     246  BMZ246      0.0655
     23 HH11        7.9450    1.7330   27.0170 H     246  BMZ246      0.2883
     24 HH12        7.3840    0.1440   27.1490 H     246  BMZ246      0.2883
     25 HH21        8.5590   -0.7400   23.8860 H     246  BMZ246      0.3009
     26 HH22        7.7320   -1.3360   25.2560 H     246  BMZ246      0.3009
     27  HN3       11.1660    5.1430   22.3720 H     246  BMZ246      0.1546
     28 HC2'        9.6230    7.6820   25.7540 H     246  BMZ246      0.0626
     29 HC3'        9.9510   10.0900   25.4860 H     246  BMZ246      0.0618
     30 HC4'       11.0260   10.9720   23.4280 H     246  BMZ246      0.0619
     31 HC5'       11.7530    9.4130   21.6550 H     246  BMZ246      0.0656
@<TRIPOS>BOND
     1    31    17    1
     2    19    18    1
     3    21     3    1
     4    27    10    1
     5    17    18   ar
     6    17    16   ar
     7    18    13   ar
     8     3     4    2
     9     3     2    1
    10    20     2    1
    11    10     4    1
    12    10    12    1
    13    30    16    1
    14     4     5    1
    15    16    15   ar
    16     2     1    1
    17    13    12    1
    18    13    14   ar
    19    25     9    1
    20    12    11    2
    21     5    11    2
    22     5     6    1
    23    15    14   ar
    24    15    29    1
    25     1     6    2
    26     1     7    1
    27     9    26    1
    28     9     7    2
    29    14    28    1
    30     6    22    1
    31     7     8    1
    32     8    23    1
    33     8    24    1
