@<TRIPOS>MOLECULE
1gi9_123_B_1.pdb
 35 37 0 0 0
SMALL
GASTEIGER

@<TRIPOS>ATOM
      1  C1         8.7430    1.8370   24.6990 C.2   246  123246      0.0492
      2  C2         9.5440    1.6220   23.5520 C.3   246  123246      0.0224
      3  C3        10.1750    2.6690   22.8830 C.2   246  123246     -0.0511
      4  C4         9.9800    3.9360   23.3850 C.2   246  123246      0.0677
      5  C5         9.2320    4.1920   24.4800 C.2   246  123246      0.1376
      6  C6         8.6020    3.1670   25.1510 C.2   246  123246     -0.0111
      7  C7         8.1150    0.7900   25.3680 C.2   246  123246      0.2628
      8  N1         7.5460    1.0320   26.5170 N.pl3 246  123246     -0.2500
      9  N2         8.0760   -0.4230   24.8740 N.2   246  123246     -0.2887
     10  N3        10.4120    5.0800   23.0040 N.pl3 246  123246     -0.2867
     11  N4         9.1810    5.4660   24.7810 N.2   246  123246     -0.3862
     12  C8         9.9390    5.9890   23.8170 C.2   246  123246      0.1863
     13  C1'       10.2220    7.3480   23.6410 C.ar  246  123246      0.0774
     14  C2'        9.8990    8.3340   24.5960 C.ar  246  123246     -0.0048
     15  C3'       10.1950    9.6930   24.3940 C.ar  246  123246      0.1210
     16  O3'        9.9030   10.6870   25.3250 O.3   246  123246     -0.4951
     17  CM3        9.6530   10.3160   26.6740 C.3   246  123246      0.0788
     18  C4'       10.8230   10.0670   23.2080 C.ar  246  123246     -0.0163
     19  C5'       11.1510    9.1200   22.2520 C.ar  246  123246     -0.0107
     20  C6'       10.8540    7.7810   22.4630 C.ar  246  123246      0.1906
     21  O6'       11.1930    6.8740   21.4800 O.3   246  123246     -0.2871
     22  HC2        9.6780    0.6190   23.1720 H     246  123246      0.0403
     23  HC3       10.7850    2.5000   22.0070 H     246  123246      0.0598
     24  HC6        8.0080    3.3930   26.0160 H     246  123246      0.0655
     25 HH11        7.5730    1.9440   26.9430 H     246  123246      0.2883
     26 HH12        7.1030    0.3080   27.0520 H     246  123246      0.2883
     27 HH21        8.4810   -0.6360   23.9740 H     246  123246      0.3009
     28 HH22        7.6380   -1.1680   25.3820 H     246  123246      0.3009
     29  HN3       10.9920    5.2820   22.2370 H     246  123246      0.1546
     30 HC2'        9.4110    8.0310   25.5100 H     246  123246      0.0663
     31 H3'1       10.0230   11.0900   27.3270 H     246  123246      0.0660
     32 H3'2        8.5920   10.1780   26.8040 H     246  123246      0.0660
     33 H3'3       10.1490    9.3920   26.9080 H     246  123246      0.0660
     34 HC4'       11.0580   11.1040   23.0290 H     246  123246      0.0655
     35 HC5'       11.6420    9.4250   21.3400 H     246  123246      0.0657
@<TRIPOS>BOND
     1    35    19    1
     2    21    20    1
     3    23     3    1
     4    29    10    1
     5    19    20   ar
     6    19    18   ar
     7    20    13   ar
     8     3     4    2
     9     3     2    1
    10    10     4    1
    11    10    12    1
    12    34    18    1
    13    22     2    1
    14    18    15   ar
    15     4     5    1
    16     2     1    1
    17    13    12    1
    18    13    14   ar
    19    12    11    2
    20    27     9    1
    21    15    14   ar
    22    15    16    1
    23     5    11    2
    24     5     6    1
    25    14    30    1
    26     1     6    2
    27     1     7    1
    28     9     7    2
    29     9    28    1
    30     6    24    1
    31    16    17    1
    32     7     8    1
    33     8    25    1
    34     8    26    1
    35    17    32    1
    36    17    33    1
    37    17    31    1
