@<TRIPOS>MOLECULE
1gia_GSP_A_1.pdb
 32 34 0 0 0
SMALL
GASTEIGER

@<TRIPOS>ATOM
      1  PG        37.2210  -32.2740   12.4740 P.3   355  GSP355      0.4340
      2  O3B       37.5140  -31.5840   10.9940 O.3   355  GSP355     -0.2405
      3  S1G       38.9390  -32.8250   13.1460 S.3   355  GSP355      0.0416
      4  O2G       36.3960  -31.2750   13.2440 O.3   355  GSP355     -0.1305
      5  O3G       36.4760  -33.4750   12.0070 O.2   355  GSP355     -0.2423
      6  PB        36.5390  -30.7360   10.0680 P.3   355  GSP355      0.2262
      7  O1B       36.0620  -31.6720    9.0550 O.2   355  GSP355     -0.5168
      8  O2B       35.4740  -29.9620   10.8310 O.3   355  GSP355     -0.4369
      9  PA        37.7070  -28.0740    9.4740 P.3   355  GSP355      0.2189
     10  O1A       36.4690  -27.4800    8.9530 O.2   355  GSP355     -0.5170
     11  O2A       38.1240  -27.7460   10.8790 O.3   355  GSP355     -0.4371
     12  O3A       37.4990  -29.6830    9.3050 O.3   355  GSP355     -0.2701
     13  O5'       38.9160  -27.7990    8.4410 O.3   355  GSP355     -0.3112
     14  C5'       40.2900  -27.9820    8.7460 C.3   355  GSP355      0.1813
     15  C4'       41.1240  -26.9320    8.1120 C.3   355  GSP355      0.1799
     16  O4'       40.9340  -26.9270    6.6700 O.3   355  GSP355     -0.3326
     17  C3'       40.6950  -25.5380    8.6070 C.3   355  GSP355      0.2158
     18  O3'       41.8530  -24.7470    8.8950 O.3   355  GSP355     -0.2175
     19  C2'       39.9430  -24.9290    7.3930 C.3   355  GSP355      0.2310
     20  O2'       40.0860  -23.5300    7.3310 O.3   355  GSP355     -0.2158
     21  C1'       40.6470  -25.5880    6.2050 C.3   355  GSP355      0.2293
     22  N9        39.7490  -25.6810    5.0360 N.pl3 355  GSP355     -0.2354
     23  C8        38.5090  -26.2890    4.9200 C.3   355  GSP355      0.2246
     24  N7        37.9920  -26.2310    3.7460 N.2   355  GSP355     -0.2322
     25  C5        39.0280  -25.6850    2.9770 C.2   355  GSP355      0.2182
     26  C6        39.1300  -25.4860    1.5420 C.1   355  GSP355      0.2372
     27  O6        38.3590  -25.8230    0.6370 O.2   355  GSP355     -0.2069
     28  N1        40.3120  -24.8330    1.2130 N.2   355  GSP355     -0.2485
     29  C2        41.3110  -24.5340    2.0990 C.1   355  GSP355      0.2531
     30  N2        42.3300  -23.8110    1.6900 N.pl3 355  GSP355     -0.0226
     31  N3        41.2600  -24.8240    3.3930 N.2   355  GSP355     -0.3074
     32  C4        40.0650  -25.3170    3.7720 C.2   355  GSP355      0.2300
@<TRIPOS>BOND
     1    27    26    2
     2    28    26    2
     3    28    29    2
     4    26    25    1
     5    30    29    1
     6    29    31    2
     7    25    24    2
     8    25    32    1
     9    31    32    2
    10    24    23    1
    11    32    22    1
    12    23    22    1
    13    22    21    1
    14    21    16    1
    15    21    19    1
    16    16    15    1
    17    20    19    1
    18    19    17    1
    19    15    17    1
    20    15    14    1
    21    13    14    1
    22    13     9    1
    23    17    18    1
    24    10     9    2
    25     7     6    2
    26    12     9    1
    27    12     6    1
    28     9    11    1
    29     6     8    1
    30     6     2    1
    31     2     1    1
    32     5     1    2
    33     1     3    1
    34     1     4    1
