@<TRIPOS>MOLECULE
1gic_GYP_A_1.pdb
 13 13 0 0 0
SMALL
GASTEIGER

@<TRIPOS>ATOM
      1  C1        33.0240  128.9640  117.8880 C.3   238  GYP238      0.2695
      2  C2        32.7090  127.4790  117.9840 C.3   238  GYP238      0.2406
      3  C3        33.9100  126.6200  117.6920 C.3   238  GYP238      0.2198
      4  C4        34.5200  127.0200  116.3770 C.3   238  GYP238      0.2144
      5  C5        34.8310  128.5210  116.3350 C.3   238  GYP238      0.1835
      6  C6        35.2960  128.9570  114.9670 C.3   238  GYP238      0.2142
      7  C7        34.6450  130.3540  119.5890 C.3   238  GYP238      0.1769
      8  O1        33.9000  129.3240  118.9890 O.3   238  GYP238     -0.3259
      9  O2        32.3020  127.1820  119.2900 O.3   238  GYP238     -0.2149
     10  O3        33.4920  125.2820  117.6550 O.3   238  GYP238     -0.2174
     11  O4        35.6980  126.2870  116.2770 O.3   238  GYP238     -0.2176
     12  O5        33.6550  129.2780  116.6320 O.3   238  GYP238     -0.3256
     13  O6        34.2070  128.9410  114.0600 O.3   238  GYP238     -0.2176
@<TRIPOS>BOND
     1    13     6    1
     2     6     5    1
     3    11     4    1
     4     5     4    1
     5     5    12    1
     6     4     3    1
     7    12     1    1
     8    10     3    1
     9     3     2    1
    10     1     2    1
    11     1     8    1
    12     2     9    1
    13     8     7    1
