@<TRIPOS>MOLECULE
1gih_1PU_A_1.pdb
 23 26 0 0 0
SMALL
GASTEIGER

@<TRIPOS>ATOM
      1  C1         5.4900   10.0160   27.8190 C.ar  501  1PU501      0.0155
      2  C2         6.9530   10.3870   27.6530 C.3   501  1PU501      0.0996
      3  C3         5.0340   10.6230   29.0290 C.ar  501  1PU501      0.0524
      4  C7         6.1280   11.3660   29.6470 C.2   501  1PU501      0.2490
      5  C6         7.3410   11.4050   26.5700 C.3   501  1PU501      0.0262
      6  C4         4.6130    9.2320   27.0350 C.ar  501  1PU501      0.0727
      7  N5         7.1960   11.2060   28.8380 N.am  501  1PU501     -0.2739
      8  C8         3.7050   10.4640   29.4600 C.ar  501  1PU501      0.0043
      9  C9         3.2870    9.0930   27.4930 C.ar  501  1PU501      0.0164
     10  N10        5.1070    8.6190   25.8190 N.am  501  1PU501     -0.1609
     11  C11        8.2510   12.2190   28.6970 C.3   501  1PU501      0.0940
     12  C12        8.5300   12.1660   27.1880 C.3   501  1PU501      0.0236
     13  O13        6.0610   11.9890   30.6810 O.2   501  1PU501     -0.2699
     14  C14        2.8470    9.6980   28.6820 C.ar  501  1PU501      0.0015
     15  C15        4.5530    7.8310   24.9140 C.2   501  1PU501      0.3491
     16  N16        5.3410    7.4040   23.9370 N.am  501  1PU501     -0.1419
     17  O17        3.3590    7.5220   24.9750 O.2   501  1PU501     -0.2484
     18  C18        6.6640    7.7380   23.5400 C.ar  501  1PU501      0.1561
     19  C19        7.4070    7.0030   22.6160 C.ar  501  1PU501      0.0363
     20  N20        7.1850    8.8230   24.1140 N.ar  501  1PU501     -0.2272
     21  C21        8.7160    7.4400   22.3170 C.ar  501  1PU501      0.0045
     22  C22        8.4150    9.2590   23.8500 C.ar  501  1PU501      0.1004
     23  C23        9.2320    8.5840   22.9420 C.ar  501  1PU501      0.0208
@<TRIPOS>BOND
     1    21    19   ar
     2    21    23   ar
     3    19    18   ar
     4    23    22   ar
     5    18    16    1
     6    18    20   ar
     7    22    20   ar
     8    16    15   am
     9    15    17    2
    10    15    10   am
    11    10     6    1
    12     5    12    1
    13     5     2    1
    14     6     9   ar
    15     6     1   ar
    16    12    11    1
    17     9    14   ar
    18     2     1    1
    19     2     7    1
    20     1     3   ar
    21    14     8   ar
    22    11     7    1
    23     7     4   am
    24     3     8   ar
    25     3     4    1
    26     4    13    2
