@<TRIPOS>MOLECULE
1gii_1PU_A_1.pdb
 23 26 0 0 0
SMALL
GASTEIGER

@<TRIPOS>ATOM
      1  C1         5.4380    9.9670   27.6430 C.ar  501  1PU501      0.0155
      2  C2         6.8940   10.3470   27.4830 C.3   501  1PU501      0.0996
      3  C3         4.9610   10.5610   28.8320 C.ar  501  1PU501      0.0524
      4  C7         6.0390   11.2970   29.4670 C.2   501  1PU501      0.2490
      5  C6         7.2230   11.3980   26.3980 C.3   501  1PU501      0.0262
      6  C4         4.5900    9.1840   26.8490 C.ar  501  1PU501      0.0727
      7  N5         7.1190   11.1590   28.6810 N.am  501  1PU501     -0.2739
      8  C8         3.6280   10.3940   29.2380 C.ar  501  1PU501      0.0043
      9  C9         3.2540    9.0210   27.2650 C.ar  501  1PU501      0.0164
     10  N10        5.1290    8.5930   25.6670 N.am  501  1PU501     -0.1609
     11  C11        8.1420   12.2160   28.5460 C.3   501  1PU501      0.0940
     12  C12        8.3420   12.2670   27.0160 C.3   501  1PU501      0.0236
     13  O13        5.9520   11.8960   30.4870 O.2   501  1PU501     -0.2699
     14  C14        2.7850    9.6250   28.4410 C.ar  501  1PU501      0.0015
     15  C15        4.6000    7.7660   24.7970 C.2   501  1PU501      0.3491
     16  N16        5.3230    7.4720   23.7310 N.am  501  1PU501     -0.1419
     17  O17        3.4680    7.3310   24.9740 O.2   501  1PU501     -0.2484
     18  C18        6.6280    7.8500   23.3140 C.ar  501  1PU501      0.1561
     19  C19        7.2310    7.4160   22.1180 C.ar  501  1PU501      0.0363
     20  N20        7.2780    8.6610   24.1330 N.ar  501  1PU501     -0.2272
     21  C21        8.5320    7.8620   21.8200 C.ar  501  1PU501      0.0045
     22  C22        8.5140    9.0980   23.8760 C.ar  501  1PU501      0.1004
     23  C23        9.1920    8.7150   22.7090 C.ar  501  1PU501      0.0208
@<TRIPOS>BOND
     1    21    19   ar
     2    21    23   ar
     3    19    18   ar
     4    23    22   ar
     5    18    16    1
     6    18    20   ar
     7    16    15   am
     8    22    20   ar
     9    15    17    2
    10    15    10   am
    11    10     6    1
    12     5    12    1
    13     5     2    1
    14     6     9   ar
    15     6     1   ar
    16    12    11    1
    17     9    14   ar
    18     2     1    1
    19     2     7    1
    20     1     3   ar
    21    14     8   ar
    22    11     7    1
    23     7     4   am
    24     3     8   ar
    25     3     4    1
    26     4    13    2
