@<TRIPOS>MOLECULE
1gij_2PU_A_1.pdb
 27 31 0 0 0
SMALL
GASTEIGER

@<TRIPOS>ATOM
      1  C1         5.3140   10.4270   27.5210 C.ar  501  2PU501      0.0156
      2  C2         6.6380   11.2020   27.2210 C.3   501  2PU501      0.0996
      3  C3         4.8190   10.9280   28.7910 C.ar  501  2PU501      0.0524
      4  C4         4.5780    9.4270   26.8210 C.ar  501  2PU501      0.0749
      5  N5         6.7720   12.0640   28.4120 N.am  501  2PU501     -0.2739
      6  C6         8.0240   10.5870   27.1770 C.3   501  2PU501      0.0262
      7  C7         5.7620   11.9460   29.3440 C.2   501  2PU501      0.2490
      8  C8         3.6050   10.4470   29.3470 C.ar  501  2PU501      0.0043
      9  C9         3.3500    8.9600   27.3890 C.ar  501  2PU501      0.0165
     10  N10        4.9930    8.8320   25.5760 N.am  501  2PU501     -0.1372
     11  C11        8.1410   12.4420   28.7360 C.3   501  2PU501      0.0940
     12  C12        8.9220   11.7330   27.6030 C.3   501  2PU501      0.0236
     13  O13        5.6200   12.5430   30.4290 O.2   501  2PU501     -0.2699
     14  C14        2.8670    9.4560   28.6210 C.ar  501  2PU501      0.0015
     15  C15        4.3400    7.9870   24.7690 C.2   501  2PU501      0.4577
     16  N16        4.9720    7.6360   23.6570 N.am  501  2PU501      0.0504
     17  O17        3.1860    7.6090   25.0500 O.2   501  2PU501     -0.2174
     18  C18        6.2870    7.9790   23.3820 C.2   501  2PU501      0.3791
     19  C19        7.0980    7.3640   22.4860 C.3   501  2PU501      0.1705
     20  N20        6.9680    8.9970   23.9980 N.2   501  2PU501      0.0794
     21  C21        8.3310    8.0430   22.5730 C.2   501  2PU501      0.1112
     22  N22        8.2200    9.0350   23.5100 N.2   501  2PU501     -0.0412
     23  C23        9.5910    7.7250   21.8020 C.3   501  2PU501      0.1129
     24  C24       10.8730    8.4700   22.2320 C.3   501  2PU501      0.0247
     25  N25        9.6260    7.7520   20.3670 N.3   501  2PU501     -0.2137
     26  C26       11.9120    8.0160   21.1470 C.3   501  2PU501      0.0206
     27  C27       11.0410    7.4120   20.0000 C.3   501  2PU501      0.0891
@<TRIPOS>BOND
     1    27    25    1
     2    27    26    1
     3    25    23    1
     4    26    24    1
     5    23    24    1
     6    23    21    1
     7    19    21    1
     8    19    18    1
     9    21    22    2
    10    18    16    1
    11    18    20    2
    12    22    20    1
    13    16    15   am
    14    15    17    2
    15    15    10   am
    16    10     4    1
    17     4     9   ar
    18     4     1   ar
    19     6     2    1
    20     6    12    1
    21     2     1    1
    22     2     5    1
    23     9    14   ar
    24     1     3   ar
    25    12    11    1
    26     5    11    1
    27     5     7   am
    28    14     8   ar
    29     3     7    1
    30     3     8   ar
    31     7    13    2
