@<TRIPOS>MOLECULE
1gil_GSP_A_1.pdb
 32 34 0 0 0
SMALL
GASTEIGER

@<TRIPOS>ATOM
      1  PG        37.1460  -32.5870   12.4490 P.3   355  GSP355      0.4340
      2  O3B       37.3710  -31.7380   11.1040 O.3   355  GSP355     -0.2405
      3  S1G       38.8660  -32.9140   13.2490 S.3   355  GSP355      0.0416
      4  O2G       36.3430  -31.6310   13.2580 O.3   355  GSP355     -0.1305
      5  O3G       36.4840  -33.8530   12.0830 O.2   355  GSP355     -0.2423
      6  PB        36.4390  -30.7830   10.1450 P.3   355  GSP355      0.2262
      7  O1B       35.9640  -31.7750    9.2140 O.2   355  GSP355     -0.5168
      8  O2B       35.4110  -29.9270   10.7700 O.3   355  GSP355     -0.4369
      9  PA        37.5660  -28.3590    9.5780 P.3   355  GSP355      0.2189
     10  O1A       36.3520  -27.6550    9.1610 O.2   355  GSP355     -0.5170
     11  O2A       38.0860  -28.1700   10.9590 O.3   355  GSP355     -0.4371
     12  O3A       37.4360  -29.8860    9.3470 O.3   355  GSP355     -0.2701
     13  O5'       38.6560  -27.9360    8.5370 O.3   355  GSP355     -0.3112
     14  C5'       40.0510  -28.1400    8.8610 C.3   355  GSP355      0.1813
     15  C4'       40.9710  -27.1070    8.2870 C.3   355  GSP355      0.1799
     16  O4'       40.8500  -27.1760    6.8780 O.3   355  GSP355     -0.3326
     17  C3'       40.6050  -25.6850    8.7600 C.3   355  GSP355      0.2158
     18  O3'       41.7760  -24.9140    9.1810 O.3   355  GSP355     -0.2175
     19  C2'       39.9310  -25.0980    7.5090 C.3   355  GSP355      0.2310
     20  O2'       40.1260  -23.6630    7.3630 O.3   355  GSP355     -0.2158
     21  C1'       40.6160  -25.8190    6.3700 C.3   355  GSP355      0.2293
     22  N9        39.7220  -25.8600    5.2010 N.pl3 355  GSP355     -0.2354
     23  C8        38.4680  -26.4240    5.0940 C.3   355  GSP355      0.2246
     24  N7        37.9350  -26.4160    3.9060 N.2   355  GSP355     -0.2322
     25  C5        38.9580  -25.7970    3.1130 C.2   355  GSP355      0.2182
     26  C6        39.0440  -25.5720    1.6300 C.1   355  GSP355      0.2372
     27  O6        38.2550  -25.8960    0.7450 O.2   355  GSP355     -0.2069
     28  N1        40.2030  -24.9480    1.2810 N.2   355  GSP355     -0.2485
     29  C2        41.1850  -24.5800    2.1770 C.1   355  GSP355      0.2531
     30  N2        42.0970  -23.7870    1.7220 N.pl3 355  GSP355     -0.0226
     31  N3        41.2250  -24.8470    3.5100 N.2   355  GSP355     -0.3074
     32  C4        40.0550  -25.4770    3.9170 C.2   355  GSP355      0.2300
@<TRIPOS>BOND
     1    27    26    2
     2    28    26    2
     3    28    29    2
     4    26    25    1
     5    30    29    1
     6    29    31    2
     7    25    24    2
     8    25    32    1
     9    31    32    2
    10    24    23    1
    11    32    22    1
    12    23    22    1
    13    22    21    1
    14    21    16    1
    15    21    19    1
    16    16    15    1
    17    20    19    1
    18    19    17    1
    19    15    17    1
    20    15    14    1
    21    13    14    1
    22    13     9    1
    23    17    18    1
    24    10     9    2
    25     7     6    2
    26    12     9    1
    27    12     6    1
    28     9    11    1
    29     6     8    1
    30     6     2    1
    31     2     1    1
    32     5     1    2
    33     1     3    1
    34     1     4    1
