@<TRIPOS>MOLECULE
1gim_GDP_A_1.pdb
 40 42 0 0 0
SMALL
GASTEIGER

@<TRIPOS>ATOM
      1  PB        -4.2130   47.5230   45.6490 P.3   432  GDP432      0.5373
      2  O1B       -4.1740   46.7970   44.3890 O.2   432  GDP432     -0.2221
      3  O2B       -5.3550   48.4550   45.8130 O.3   432  GDP432     -0.1143
      4  O3B       -4.1670   46.4290   46.6270 O.3   432  GDP432     -0.1143
      5  O3A       -2.8320   48.3050   45.7950 O.3   432  GDP432     -0.2261
      6  PA        -2.4890   49.7410   45.1780 P.3   432  GDP432      0.2224
      7  O1A       -2.4270   49.3050   43.7880 O.2   432  GDP432     -0.5170
      8  O2A       -3.4540   50.7120   45.7050 O.3   432  GDP432     -0.4370
      9  O5'       -0.9910   50.0210   45.6280 O.3   432  GDP432     -0.3245
     10  C5'        0.0570   49.0060   45.7990 C.3   432  GDP432      0.0836
     11  C4'        1.1070   49.8860   45.0530 C.3   432  GDP432      0.1131
     12  O4'        2.4830   49.5990   45.0900 O.3   432  GDP432     -0.3474
     13  C3'        0.8230   50.2250   43.5680 C.3   432  GDP432      0.1133
     14  O3'        1.3290   51.5120   43.4530 O.3   432  GDP432     -0.3864
     15  C2'        1.7390   49.0920   42.9340 C.3   432  GDP432      0.1266
     16  O2'        2.3060   49.3180   41.6440 O.3   432  GDP432     -0.3849
     17  C1'        2.9530   49.2430   43.8620 C.3   432  GDP432      0.1617
     18  N9         3.5630   48.0760   44.2620 N.pl3 432  GDP432     -0.2241
     19  C8         3.0240   46.8410   44.4000 C.2   432  GDP432      0.1451
     20  N7         3.8000   45.9550   45.0030 N.2   432  GDP432     -0.3865
     21  C5         4.9430   46.6930   45.2780 C.2   432  GDP432      0.2296
     22  C6         6.0780   46.2590   45.9050 C.2   432  GDP432      0.2859
     23  O6         6.2050   45.0890   46.2690 O.2   432  GDP432     -0.2668
     24  N1         7.0690   47.2160   46.0680 N.am  432  GDP432     -0.2418
     25  C2         6.9320   48.5070   45.6090 C.2   432  GDP432      0.2395
     26  N2         7.9660   49.3250   45.8080 N.pl3 432  GDP432     -0.3206
     27  N3         5.8000   48.9730   44.9620 N.2   432  GDP432     -0.3551
     28  C4         4.8450   47.9880   44.8460 C.2   432  GDP432      0.2272
     29  H5'       -0.1320   48.0710   45.2760 H     432  GDP432      0.0591
     30 H5''        0.3180   48.8630   46.8480 H     432  GDP432      0.0591
     31  H4'        1.0080   50.8130   45.6110 H     432  GDP432      0.0647
     32  H3'       -0.2290   50.1230   43.3160 H     432  GDP432      0.0647
     33 HO3'        1.4300   51.8860   44.3510 H     432  GDP432      0.2100
     34  H2'        1.1960   48.1560   43.0500 H     432  GDP432      0.0663
     35 HO2'        2.6770   48.4680   41.3950 H     432  GDP432      0.2101
     36  H1'        3.6550   49.9900   43.4880 H     432  GDP432      0.0841
     37  H8         2.0610   46.5550   43.9750 H     432  GDP432      0.1149
     38  HN1        7.9440   46.9680   46.5310 H     432  GDP432      0.1589
     39 HN21        7.8790   50.1820   46.2870 H     432  GDP432      0.1459
     40 HN22        8.8700   49.0420   45.5660 H     432  GDP432      0.1459
@<TRIPOS>BOND
     1    35    16    1
     2    16    15    1
     3    15    34    1
     4    15    13    1
     5    15    17    1
     6    32    13    1
     7    14    13    1
     8    14    33    1
     9    36    17    1
    10    13    11    1
    11     7     6    2
    12    17    18    1
    13    17    12    1
    14    37    19    1
    15    18    19    1
    16    18    28    1
    17     2     1    2
    18    19    20    2
    19    28    27    2
    20    28    21    1
    21    27    25    2
    22    20    21    2
    23    11    12    1
    24    11    31    1
    25    11    10    1
    26     6     9    1
    27     6     8    1
    28     6     5    1
    29    29    10    1
    30    21    22    1
    31    40    26    1
    32    25    26    1
    33    25    24    1
    34     9    10    1
    35     1     5    1
    36     1     3    1
    37     1     4    1
    38    10    30    1
    39    26    39    1
    40    22    24   am
    41    22    23    2
    42    24    38    1
