@<TRIPOS>MOLECULE
1gim_IMP_A_1.pdb
 33 35 0 0 0
SMALL
GASTEIGER

@<TRIPOS>ATOM
      1  P        -16.3860   54.2980   50.2210 P.3   440  IMP440      0.5320
      2  O1P      -15.9650   55.2140   49.1510 O.2   440  IMP440     -0.2224
      3  O2P      -17.6540   54.4190   50.9600 O.3   440  IMP440     -0.1145
      4  O3P      -16.1130   52.8450   49.6250 O.3   440  IMP440     -0.1145
      5  O5'      -15.1690   54.5990   51.2450 O.3   440  IMP440     -0.2809
      6  C5'      -15.2870   54.4700   52.6790 C.3   440  IMP440      0.0880
      7  C4'      -13.9680   54.3210   53.4460 C.3   440  IMP440      0.1153
      8  O4'      -13.1650   53.2010   52.9800 O.3   440  IMP440     -0.3290
      9  C3'      -13.0790   55.5610   53.2850 C.3   440  IMP440      0.1156
     10  O3'      -12.0580   55.5500   54.3030 O.3   440  IMP440     -0.3863
     11  C2'      -12.3880   55.2070   52.0090 C.3   440  IMP440      0.1480
     12  O2'      -11.1930   55.9690   51.8360 O.3   440  IMP440     -0.3825
     13  C1'      -12.0500   53.7270   52.2490 C.3   440  IMP440      0.2295
     14  N9       -11.8700   53.0830   51.0290 N.pl3 440  IMP440     -0.1346
     15  C8       -12.8000   52.6140   50.1280 C.2   440  IMP440      0.2304
     16  N7       -12.3060   51.9480   49.1440 N.2   440  IMP440     -0.3601
     17  C5       -10.9180   51.9470   49.3750 C.2   440  IMP440      0.2692
     18  C6        -9.8380   51.3550   48.6280 C.2   440  IMP440      0.2862
     19  O6        -9.8670   50.6230   47.6310 O.2   440  IMP440     -0.2669
     20  N1        -8.6260   51.6250   49.2340 N.am  440  IMP440     -0.2542
     21  C2        -8.4400   52.3340   50.3940 C.3   440  IMP440      0.3611
     22  N3        -9.4720   52.8680   51.0730 N.2   440  IMP440     -0.0383
     23  C4       -10.6540   52.6380   50.5140 C.2   440  IMP440      0.3620
     24 H5'1      -15.8180   55.3210   53.0940 H     440  IMP440      0.0592
     25 H5'2      -15.8800   53.5810   52.8990 H     440  IMP440      0.0592
     26  H4'      -14.1910   54.1830   54.5070 H     440  IMP440      0.0647
     27  H3'      -13.6190   56.5050   53.2620 H     440  IMP440      0.0648
     28 HO3'      -11.3510   56.1260   54.0040 H     440  IMP440      0.2100
     29  H2'      -13.0890   55.3360   51.1840 H     440  IMP440      0.0687
     30 HO2'      -10.5910   55.8200   52.5930 H     440  IMP440      0.2102
     31  H1'      -11.1500   53.6570   52.8650 H     440  IMP440      0.1122
     32  H8       -13.8710   52.6600   50.3200 H     440  IMP440      0.1440
     33  HN1       -7.7570   51.2870   48.8220 H     440  IMP440      0.1539
@<TRIPOS>BOND
     1    19    18    2
     2    18    20   am
     3    18    17    1
     4    33    20    1
     5    16    17    2
     6    16    15    2
     7     2     1    2
     8    20    21    1
     9    17    23    1
    10     4     1    1
    11    15    32    1
    12    15    14    1
    13     1     3    1
    14     1     5    1
    15    21    22    1
    16    23    14    1
    17    23    22    2
    18    14    13    1
    19    29    11    1
    20     5     6    1
    21    12    11    1
    22    12    30    1
    23    11    13    1
    24    11     9    1
    25    13    31    1
    26    13     8    1
    27     6    25    1
    28     6    24    1
    29     6     7    1
    30     8     7    1
    31    27     9    1
    32     9     7    1
    33     9    10    1
    34     7    26    1
    35    28    10    1
