@<TRIPOS>MOLECULE
1gin_GDP_A_1.pdb
 40 42 0 0 0
SMALL
GASTEIGER

@<TRIPOS>ATOM
      1  PB        -4.6620   47.5610   45.3660 P.3   432  GDP432      0.5373
      2  O1B       -4.9830   46.5120   44.4180 O.2   432  GDP432     -0.2221
      3  O2B       -5.5480   48.7460   45.2770 O.3   432  GDP432     -0.1143
      4  O3B       -4.4950   46.9410   46.6800 O.3   432  GDP432     -0.1143
      5  O3A       -3.2450   48.1580   44.8580 O.3   432  GDP432     -0.2261
      6  PA        -2.9410   49.7540   44.6450 P.3   432  GDP432      0.2224
      7  O1A       -2.5120   50.1630   43.2660 O.2   432  GDP432     -0.5170
      8  O2A       -3.9440   50.5490   45.4050 O.3   432  GDP432     -0.4370
      9  O5'       -1.6240   49.7530   45.5360 O.3   432  GDP432     -0.3245
     10  C5'       -0.4450   49.1290   45.1450 C.3   432  GDP432      0.0836
     11  C4'        0.4430   50.1340   44.5190 C.3   432  GDP432      0.1131
     12  O4'        1.8020   49.7780   44.8030 O.3   432  GDP432     -0.3474
     13  C3'        0.4340   50.4110   43.0460 C.3   432  GDP432      0.1133
     14  O3'        1.2110   51.6090   43.2100 O.3   432  GDP432     -0.3864
     15  C2'        1.2920   49.2040   42.5940 C.3   432  GDP432      0.1266
     16  O2'        1.8380   49.2470   41.3280 O.3   432  GDP432     -0.3849
     17  C1'        2.4860   49.2830   43.6170 C.3   432  GDP432      0.1617
     18  N9         3.0860   48.1120   44.0710 N.pl3 432  GDP432     -0.2241
     19  C8         2.5180   46.8590   44.1900 C.2   432  GDP432      0.1451
     20  N7         3.3020   45.9450   44.7240 N.2   432  GDP432     -0.3865
     21  C5         4.5240   46.6680   44.9890 C.2   432  GDP432      0.2296
     22  C6         5.7700   46.2410   45.5620 C.2   432  GDP432      0.2859
     23  O6         6.1580   45.1750   46.0380 O.2   432  GDP432     -0.2668
     24  N1         6.7260   47.2160   45.6490 N.am  432  GDP432     -0.2418
     25  C2         6.5280   48.5110   45.2800 C.2   432  GDP432      0.2395
     26  N2         7.5840   49.2760   45.5580 N.pl3 432  GDP432     -0.3206
     27  N3         5.3490   48.9480   44.7290 N.2   432  GDP432     -0.3551
     28  C4         4.3930   47.9760   44.6020 C.2   432  GDP432      0.2272
     29  H5'       -0.5640   48.2330   44.5360 H     432  GDP432      0.0591
     30 H5''        0.0350   48.8450   46.0820 H     432  GDP432      0.0591
     31  H4'        0.2650   51.0810   45.0310 H     432  GDP432      0.0647
     32  H3'       -0.5700   50.5260   42.6460 H     432  GDP432      0.0647
     33 HO3'        0.7640   52.3340   42.7510 H     432  GDP432      0.2100
     34  H2'        0.7120   48.2930   42.7320 H     432  GDP432      0.0663
     35 HO2'        2.1280   48.3410   41.1560 H     432  GDP432      0.2101
     36  H1'        3.2260   50.0080   43.2790 H     432  GDP432      0.0841
     37  H8         1.4990   46.6370   43.8750 H     432  GDP432      0.1149
     38  HN1        7.6380   46.9940   46.0420 H     432  GDP432      0.1589
     39 HN21        7.9860   49.8310   44.8570 H     432  GDP432      0.1459
     40 HN22        8.0060   49.2760   46.4460 H     432  GDP432      0.1459
@<TRIPOS>BOND
     1    35    16    1
     2    16    15    1
     3    15    34    1
     4    15    13    1
     5    15    17    1
     6    32    13    1
     7    33    14    1
     8    13    14    1
     9    13    11    1
    10     7     6    2
    11    36    17    1
    12    17    18    1
    13    17    12    1
    14    37    19    1
    15    18    19    1
    16    18    28    1
    17    19    20    2
    18     2     1    2
    19    11    12    1
    20    11    31    1
    21    11    10    1
    22    29    10    1
    23    28    27    2
    24    28    21    1
    25     6     5    1
    26     6     8    1
    27     6     9    1
    28    20    21    2
    29    27    25    2
    30    39    26    1
    31     5     1    1
    32    21    22    1
    33    10     9    1
    34    10    30    1
    35     3     1    1
    36    25    26    1
    37    25    24    1
    38     1     4    1
    39    26    40    1
    40    22    24   am
    41    22    23    2
    42    24    38    1
