@<TRIPOS>MOLECULE
1gin_IMP_A_1.pdb
 33 35 0 0 0
SMALL
GASTEIGER

@<TRIPOS>ATOM
      1  P        -16.3980   54.5670   49.9270 P.3   440  IMP440      0.5320
      2  O1P      -16.2590   55.3940   48.7010 O.2   440  IMP440     -0.2224
      3  O2P      -17.6700   54.5720   50.6840 O.3   440  IMP440     -0.1145
      4  O3P      -15.9980   53.0460   49.5510 O.3   440  IMP440     -0.1145
      5  O5'      -15.2330   55.0250   50.9330 O.3   440  IMP440     -0.2809
      6  C5'      -15.4630   55.0790   52.3460 C.3   440  IMP440      0.0880
      7  C4'      -14.1720   55.0060   53.0630 C.3   440  IMP440      0.1153
      8  O4'      -13.4880   53.7730   52.5900 O.3   440  IMP440     -0.3290
      9  C3'      -13.1510   56.0720   52.8030 C.3   440  IMP440      0.1156
     10  O3'      -12.2370   56.1310   53.9190 O.3   440  IMP440     -0.3863
     11  C2'      -12.3720   55.5440   51.6150 C.3   440  IMP440      0.1480
     12  O2'      -11.0920   56.0910   51.4730 O.3   440  IMP440     -0.3825
     13  C1'      -12.2050   54.0350   51.8630 C.3   440  IMP440      0.2295
     14  N9       -12.0640   53.3500   50.6480 N.pl3 440  IMP440     -0.1346
     15  C8       -13.0410   53.0970   49.7050 C.2   440  IMP440      0.2304
     16  N7       -12.6550   52.5020   48.6150 N.2   440  IMP440     -0.3601
     17  C5       -11.2630   52.3400   48.8840 C.2   440  IMP440      0.2692
     18  C6       -10.1960   51.7340   48.1040 C.2   440  IMP440      0.2862
     19  O6       -10.3150   51.0730   47.0690 O.2   440  IMP440     -0.2669
     20  N1        -8.9400   51.8240   48.7170 N.am  440  IMP440     -0.2542
     21  C2        -8.7060   52.3590   49.9530 C.3   440  IMP440      0.3611
     22  N3        -9.7430   52.8640   50.6100 N.2   440  IMP440     -0.0383
     23  C4       -10.9350   52.8560   50.0860 C.2   440  IMP440      0.3620
     24 H5'1      -15.9450   55.9990   52.6450 H     440  IMP440      0.0592
     25 H5'2      -16.0760   54.2350   52.6660 H     440  IMP440      0.0592
     26  H4'      -14.3580   54.9140   54.1320 H     440  IMP440      0.0647
     27  H3'      -13.5770   57.0470   52.6100 H     440  IMP440      0.0648
     28 HO3'      -11.3570   56.2900   53.5680 H     440  IMP440      0.2100
     29  H2'      -12.9740   55.7250   50.7260 H     440  IMP440      0.0687
     30 HO2'      -10.6280   55.9420   52.3080 H     440  IMP440      0.2102
     31  H1'      -11.3550   53.8570   52.5240 H     440  IMP440      0.1122
     32  H8       -14.0940   53.1800   49.9540 H     440  IMP440      0.1440
     33  HN1       -8.1120   51.5480   48.2160 H     440  IMP440      0.1539
@<TRIPOS>BOND
     1    19    18    2
     2    18    20   am
     3    18    17    1
     4    33    20    1
     5    16    17    2
     6    16    15    2
     7     2     1    2
     8    20    21    1
     9    17    23    1
    10     4     1    1
    11    15    32    1
    12    15    14    1
    13     1     3    1
    14     1     5    1
    15    21    22    1
    16    23    22    2
    17    23    14    1
    18    14    13    1
    19    29    11    1
    20     5     6    1
    21    12    11    1
    22    12    30    1
    23    11    13    1
    24    11     9    1
    25    13    31    1
    26    13     8    1
    27     6    24    1
    28     6    25    1
    29     6     7    1
    30     8     7    1
    31    27     9    1
    32     9     7    1
    33     9    10    1
    34     7    26    1
    35    28    10    1
