@<TRIPOS>MOLECULE
1giq_NAD_A_1.pdb
 44 48 0 0 0
SMALL
GASTEIGER

@<TRIPOS>ATOM
      1  PA       -35.9890   30.2230    3.3070 P.3   500  NAD500      0.2189
      2  O1A      -36.4120   29.6150    4.6180 O.3   500  NAD500     -0.4371
      3  O2A      -37.0560   30.3030    2.2850 O.2   500  NAD500     -0.5170
      4  O5B      -35.3760   31.7280    3.5070 O.3   500  NAD500     -0.3112
      5  C5B      -34.5270   32.3820    2.5270 C.3   500  NAD500      0.1813
      6  C4B      -33.7210   33.3930    3.3490 C.3   500  NAD500      0.1821
      7  O4B      -34.5840   34.1260    4.2130 O.3   500  NAD500     -0.3135
      8  C3B      -32.6060   32.7290    4.1740 C.3   500  NAD500      0.2184
      9  O3B      -31.2690   33.1670    3.8610 O.3   500  NAD500     -0.2174
     10  C2B      -32.9460   32.9950    5.6440 C.3   500  NAD500      0.2570
     11  O2B      -31.8380   33.5060    6.3970 O.3   500  NAD500     -0.2130
     12  C1B      -34.1500   33.9210    5.5530 C.3   500  NAD500      0.3186
     13  N9A      -34.8570   34.4470    6.7230 N.pl3 500  NAD500     -0.1439
     14  C8A      -35.8680   33.6800    7.1770 C.3   500  NAD500      0.3377
     15  N7A      -36.4820   34.2150    8.2380 N.2   500  NAD500     -0.2095
     16  C5A      -35.8120   35.3280    8.4120 C.2   500  NAD500      0.2526
     17  C6A      -36.0790   36.2820    9.4340 C.2   500  NAD500      0.4393
     18  N6A      -37.0860   36.0470   10.2950 N.pl3 500  NAD500      0.2180
     19  N1A      -35.2580   37.4200    9.4710 N.2   500  NAD500      0.0021
     20  C2A      -34.2500   37.6080    8.5670 C.3   500  NAD500      0.5254
     21  N3A      -34.0380   36.6550    7.5980 N.2   500  NAD500     -0.0055
     22  C4A      -34.7780   35.5230    7.4840 C.2   500  NAD500      0.3518
     23  O3       -34.8590   29.4110    2.4850 O.3   500  NAD500     -0.2703
     24  PN       -33.4100   28.7770    2.6850 P.3   500  NAD500      0.2189
     25  O1N      -33.3160   28.5020    4.1530 O.3   500  NAD500     -0.4371
     26  O2N      -32.5340   29.8510    2.1330 O.2   500  NAD500     -0.5170
     27  O5D      -33.3700   27.3640    1.9380 O.3   500  NAD500     -0.3112
     28  C5D      -33.9610   27.1510    0.6460 C.3   500  NAD500      0.1813
     29  C4D      -35.0670   26.1120    0.5490 C.3   500  NAD500      0.1799
     30  O4D      -34.8490   24.8280    1.1540 O.3   500  NAD500     -0.3327
     31  C3D      -36.3320   26.6920    1.0670 C.3   500  NAD500      0.2158
     32  O3D      -37.3100   26.8070    0.0410 O.3   500  NAD500     -0.2175
     33  C2D      -36.7380   25.8070    2.2190 C.3   500  NAD500      0.2309
     34  O2D      -38.1400   25.5560    2.2670 O.3   500  NAD500     -0.2158
     35  C1D      -35.9340   24.5590    2.0480 C.3   500  NAD500      0.2263
     36  N1N      -35.4440   23.9310    3.3240 N.pl3 500  NAD500     -0.2787
     37  C2N      -34.5910   24.6640    4.2470 C.3   500  NAD500      0.1244
     38  C3N      -34.1360   24.0300    5.4300 C.2   500  NAD500      0.0544
     39  C7N      -33.2310   24.7630    6.4090 C.2   500  NAD500      0.2818
     40  O7N      -32.8250   24.1480    7.3590 O.2   500  NAD500     -0.2670
     41  N7N      -32.8490   26.0150    6.2040 N.am  500  NAD500     -0.0839
     42  C4N      -34.5540   22.6630    5.6700 C.2   500  NAD500      0.0033
     43  C5N      -35.3890   21.8920    4.8100 C.2   500  NAD500      0.0157
     44  C6N      -35.8360   22.5370    3.6200 C.2   500  NAD500      0.0633
@<TRIPOS>BOND
     1    32    31    1
     2    29    28    1
     3    29    31    1
     4    29    30    1
     5    28    27    1
     6    31    33    1
     7    30    35    1
     8    27    24    1
     9    35    33    1
    10    35    36    1
    11    26    24    2
    12    33    34    1
    13     3     1    2
    14    23    24    1
    15    23     1    1
    16     5     6    1
    17     5     4    1
    18    24    25    1
    19     1     4    1
    20     1     2    1
    21    36    44    1
    22    36    37    1
    23     6     8    1
    24     6     7    1
    25    44    43    2
    26     9     8    1
    27     8    10    1
    28     7    12    1
    29    37    38    1
    30    43    42    1
    31    38    42    2
    32    38    39    1
    33    12    10    1
    34    12    13    1
    35    10    11    1
    36    41    39   am
    37    39    40    2
    38    13    14    1
    39    13    22    1
    40    14    15    1
    41    22    21    2
    42    22    16    1
    43    21    20    1
    44    15    16    2
    45    16    17    1
    46    20    19    1
    47    17    19    2
    48    17    18    1
