@<TRIPOS>MOLECULE
1gir_NDP_A_1.pdb
 48 52 0 0 0
SMALL
GASTEIGER

@<TRIPOS>ATOM
      1  PA       -41.7960   -3.6450   92.2450 P.3   500  NDP500      0.2189
      2  O1A      -40.5900   -4.2560   91.7850 O.3   500  NDP500     -0.4371
      3  O2A      -43.0580   -4.2220   91.6620 O.2   500  NDP500     -0.5170
      4  O5B      -41.8990   -3.6680   93.8870 O.3   500  NDP500     -0.3112
      5  C5B      -42.9940   -4.2890   94.5610 C.3   500  NDP500      0.1813
      6  C4B      -42.5590   -4.4390   96.0120 C.3   500  NDP500      0.1820
      7  O4B      -42.2500   -5.8360   96.1960 O.3   500  NDP500     -0.3136
      8  C3B      -41.3900   -3.6240   96.4910 C.3   500  NDP500      0.2157
      9  O3B      -41.8630   -2.5890   97.3830 O.3   500  NDP500     -0.2175
     10  C2B      -40.4790   -4.5840   97.2210 C.3   500  NDP500      0.2314
     11  O2B      -40.3800   -4.4630   98.6640 O.3   500  NDP500     -0.2630
     12  C1B      -40.9900   -5.9280   96.7910 C.3   500  NDP500      0.3158
     13  N9A      -40.0560   -6.7220   95.9240 N.pl3 500  NDP500     -0.1439
     14  C8A      -39.7240   -6.5630   94.5550 C.3   500  NDP500      0.3377
     15  N7A      -38.8530   -7.4920   94.1750 N.2   500  NDP500     -0.2095
     16  C5A      -38.6060   -8.2630   95.2770 C.2   500  NDP500      0.2526
     17  C6A      -37.7870   -9.3940   95.5450 C.2   500  NDP500      0.4393
     18  N6A      -37.0370   -9.9240   94.5860 N.pl3 500  NDP500      0.2180
     19  N1A      -37.7740   -9.9300   96.7930 N.2   500  NDP500      0.0021
     20  C2A      -38.5340   -9.3950   97.7700 C.3   500  NDP500      0.5254
     21  N3A      -39.3360   -8.3390   97.6240 N.2   500  NDP500     -0.0055
     22  C4A      -39.3270   -7.8090   96.3420 C.2   500  NDP500      0.3518
     23  O3       -41.9950   -2.1660   91.8610 O.3   500  NDP500     -0.2703
     24  PN       -41.7670   -0.7240   92.4480 P.3   500  NDP500      0.2189
     25  O1N      -40.3220   -0.6420   92.7040 O.2   500  NDP500     -0.5170
     26  O2N      -42.7590   -0.6080   93.5750 O.3   500  NDP500     -0.4371
     27  O5D      -42.3400    0.0460   91.1580 O.3   500  NDP500     -0.3112
     28  C5D      -43.7750    0.0270   90.8210 C.3   500  NDP500      0.1813
     29  C4D      -43.9730    0.7990   89.4810 C.3   500  NDP500      0.1799
     30  O4D      -42.7650    1.5130   89.1920 O.3   500  NDP500     -0.3327
     31  C3D      -44.1590   -0.1920   88.3290 C.3   500  NDP500      0.2158
     32  O3D      -45.1790    0.2670   87.4480 O.3   500  NDP500     -0.2175
     33  C2D      -42.7960   -0.3030   87.7000 C.3   500  NDP500      0.2309
     34  O2D      -42.9210   -0.7420   86.3560 O.3   500  NDP500     -0.2158
     35  C1D      -42.3130    1.1880   87.8760 C.3   500  NDP500      0.2263
     36  N1N      -40.8200    1.2870   87.7840 N.pl3 500  NDP500     -0.2787
     37  C2N      -40.0640    1.1470   88.9800 C.3   500  NDP500      0.1244
     38  C3N      -38.6210    1.2560   88.8590 C.2   500  NDP500      0.0544
     39  C7N      -37.7710    1.1360   90.0630 C.2   500  NDP500      0.2818
     40  O7N      -36.7040    1.7750   90.2180 O.2   500  NDP500     -0.2670
     41  N7N      -38.1370    0.3180   91.0780 N.am  500  NDP500     -0.0839
     42  C4N      -38.0720    1.4850   87.5880 C.2   500  NDP500      0.0033
     43  C5N      -38.8280    1.6140   86.4490 C.2   500  NDP500      0.0157
     44  C6N      -40.2020    1.5170   86.5470 C.2   500  NDP500      0.0633
     45  P2B      -39.8940   -3.2320   99.4680 P.3   500  NDP500      0.5328
     46  O1X      -38.9320   -3.4810  100.5350 O.3   500  NDP500     -0.1145
     47  O2X      -40.7380   -1.9870   99.4450 O.2   500  NDP500     -0.2224
     48  O3X      -40.9440   -3.7180  100.4850 O.3   500  NDP500     -0.1145
@<TRIPOS>BOND
     1    34    33    1
     2    43    44    2
     3    43    42    1
     4    44    36    1
     5    32    31    1
     6    42    38    2
     7    33    35    1
     8    33    31    1
     9    36    35    1
    10    36    37    1
    11    35    30    1
    12    31    29    1
    13    38    37    1
    14    38    39    1
    15    30    29    1
    16    29    28    1
    17    39    40    2
    18    39    41   am
    19    28    27    1
    20    27    24    1
    21     3     1    2
    22     2     1    1
    23    23     1    1
    24    23    24    1
    25     1     4    1
    26    24    25    2
    27    24    26    1
    28     4     5    1
    29    15    14    1
    30    15    16    2
    31    14    13    1
    32     5     6    1
    33    18    17    1
    34    16    17    1
    35    16    22    1
    36    17    19    2
    37    13    22    1
    38    13    12    1
    39     6     7    1
    40     6     8    1
    41     7    12    1
    42    22    21    2
    43     8    10    1
    44     8     9    1
    45    12    10    1
    46    19    20    1
    47    10    11    1
    48    21    20    1
    49    11    45    1
    50    47    45    2
    51    45    48    1
    52    45    46    1
