@<TRIPOS>MOLECULE
1gis_DA_A_1.pdb
 22 24 0 0 0
SMALL
GASTEIGER

@<TRIPOS>ATOM
      1  OP3       19.7180   -5.8360  113.1910 O.2   438  DA438      -0.2224
      2  P         20.3610   -6.6680  114.3020 P.3   438  DA438       0.5327
      3  OP1       21.4080   -5.9220  115.0390 O.3   438  DA438      -0.1145
      4  OP2       20.8270   -8.0260  113.7860 O.3   438  DA438      -0.1145
      5  O5'       19.2830   -6.8750  115.4840 O.3   438  DA438      -0.2675
      6  C5'       18.7990   -8.1700  115.8310 C.3   438  DA438       0.1859
      7  C4'       17.9940   -7.9480  117.1370 C.3   438  DA438       0.1796
      8  O4'       18.1400   -6.5440  117.6080 O.3   438  DA438      -0.3155
      9  C3'       16.4240   -8.1260  116.7300 C.3   438  DA438       0.1883
     10  O3'       15.7620   -8.7320  117.8990 O.3   438  DA438      -0.2202
     11  C2'       16.0740   -6.5840  116.4250 C.3   438  DA438       0.1151
     12  C1'       16.9210   -5.7750  117.5610 C.3   438  DA438       0.2873
     13  N9        17.2930   -4.3800  117.0980 N.pl3 438  DA438      -0.1460
     14  C8        18.5480   -3.9330  116.6280 C.3   438  DA438       0.3377
     15  N7        18.6710   -2.6340  116.2710 N.2   438  DA438      -0.2095
     16  C5        17.3530   -2.2200  116.5370 C.2   438  DA438       0.2526
     17  C6        16.7410   -0.9340  116.4050 C.2   438  DA438       0.4393
     18  N6        17.5140    0.1220  115.9630 N.pl3 438  DA438       0.2180
     19  N1        15.3810   -0.8660  116.7510 N.2   438  DA438       0.0021
     20  C2        14.6630   -1.9360  117.1930 C.3   438  DA438       0.5254
     21  N3        15.1700   -3.1870  117.3620 N.2   438  DA438      -0.0055
     22  C4        16.4960   -3.2680  117.0220 C.2   438  DA438       0.3518
@<TRIPOS>BOND
     1     1     2    2
     2     4     2    1
     3     2     3    1
     4     2     5    1
     5     5     6    1
     6     6     7    1
     7    18    17    1
     8    15    16    2
     9    15    14    1
    10    17    16    1
    11    17    19    2
    12    11     9    1
    13    11    12    1
    14    16    22    1
    15    14    13    1
    16     9     7    1
    17     9    10    1
    18    19    20    1
    19    22    13    1
    20    22    21    2
    21    13    12    1
    22     7     8    1
    23    20    21    1
    24    12     8    1
