@<TRIPOS>MOLECULE
1git_GDP_A_1.pdb
 28 30 0 0 0
SMALL
GASTEIGER

@<TRIPOS>ATOM
      1  PB        68.4730   -9.2090   53.9950 P.3   355  GDP355      0.5373
      2  O1B       67.2700   -9.6010   53.2810 O.2   355  GDP355     -0.2221
      3  O2B       68.7480   -7.7680   53.9680 O.3   355  GDP355     -0.1143
      4  O3B       68.5890   -9.9260   55.2880 O.3   355  GDP355     -0.1143
      5  O3A       69.6120   -9.7900   53.0850 O.3   355  GDP355     -0.2261
      6  PA        71.0590   -9.3410   52.6050 P.3   355  GDP355      0.2231
      7  O1A       70.9340   -8.5770   51.3730 O.2   355  GDP355     -0.5169
      8  O2A       71.9020   -8.8490   53.6670 O.3   355  GDP355     -0.4370
      9  O5'       71.6660  -10.7420   52.0940 O.3   355  GDP355     -0.3111
     10  C5'       72.3420  -11.5990   53.0270 C.3   355  GDP355      0.1813
     11  C4'       73.5260  -12.2670   52.4690 C.3   355  GDP355      0.1799
     12  O4'       73.0630  -12.5990   51.1350 O.3   355  GDP355     -0.3326
     13  C3'       74.6160  -11.3480   52.1730 C.3   355  GDP355      0.2158
     14  O3'       75.9000  -11.9520   52.3750 O.3   355  GDP355     -0.2175
     15  C2'       74.3540  -10.9650   50.7030 C.3   355  GDP355      0.2310
     16  O2'       75.4880  -10.4400   50.0610 O.3   355  GDP355     -0.2158
     17  C1'       73.9520  -12.2600   50.0720 C.3   355  GDP355      0.2293
     18  N9        73.3750  -12.1250   48.7460 N.pl3 355  GDP355     -0.2354
     19  C8        72.3190  -11.4030   48.3280 C.3   355  GDP355      0.2246
     20  N7        71.7890  -11.7250   47.2130 N.2   355  GDP355     -0.2322
     21  C5        72.6860  -12.6530   46.7180 C.2   355  GDP355      0.2182
     22  C6        72.5980  -13.4560   45.5560 C.1   355  GDP355      0.2372
     23  O6        71.7610  -13.4670   44.6560 O.2   355  GDP355     -0.2069
     24  N1        73.6270  -14.3370   45.4350 N.2   355  GDP355     -0.2485
     25  C2        74.7080  -14.4000   46.3180 C.1   355  GDP355      0.2531
     26  N2        75.7850  -14.9860   45.8210 N.pl3 355  GDP355     -0.0226
     27  N3        74.7670  -13.7250   47.5030 N.2   355  GDP355     -0.3074
     28  C4        73.7060  -12.8570   47.6200 C.2   355  GDP355      0.2300
@<TRIPOS>BOND
     1    23    22    2
     2    24    22    2
     3    24    25    2
     4    22    21    1
     5    26    25    1
     6    25    27    2
     7    21    20    2
     8    21    28    1
     9    20    19    1
    10    27    28    2
    11    28    18    1
    12    19    18    1
    13    18    17    1
    14    16    15    1
    15    17    15    1
    16    17    12    1
    17    15    13    1
    18    12    11    1
    19     7     6    2
    20     9     6    1
    21     9    10    1
    22    13    14    1
    23    13    11    1
    24    11    10    1
    25     6     5    1
    26     6     8    1
    27     5     1    1
    28     2     1    2
    29     3     1    1
    30     1     4    1
