@<TRIPOS>MOLECULE
1giu_ADE_A_1.pdb
 10 11 0 0 0
SMALL
GASTEIGER

@<TRIPOS>ATOM
      1  N9        15.0490   -4.8790   39.6870 N.2   300  ADE300     -0.1914
      2  C8        16.3190   -4.6180   40.2300 C.3   300  ADE300      0.2618
      3  N7        16.6460   -3.3250   40.1100 N.2   300  ADE300     -0.2267
      4  C5        15.5110   -2.7220   39.4620 C.2   300  ADE300      0.2303
      5  C6        15.2230   -1.3520   39.0540 C.2   300  ADE300      0.4393
      6  N6        16.0600   -0.3180   39.2420 N.pl3 300  ADE300      0.2185
      7  N1        14.0240   -1.1230   38.4580 N.2   300  ADE300     -0.0265
      8  C2        13.1720   -2.1620   38.2600 C.3   300  ADE300      0.4008
      9  N3        13.3000   -3.4660   38.5790 N.2   300  ADE300     -0.1640
     10  C4        14.5360   -3.6840   39.1960 C.1   300  ADE300      0.0579
@<TRIPOS>BOND
     1     8     7    1
     2     8     9    1
     3     7     5    2
     4     9    10    2
     5     5     6    1
     6     5     4    1
     7    10     4    1
     8    10     1    2
     9     4     3    2
    10     1     2    1
    11     3     2    1
