@<TRIPOS>MOLECULE
1gj4_132_H_1.pdb
 42 45 0 0 0
SMALL
GASTEIGER

@<TRIPOS>ATOM
      1  C1        11.5230  -11.6140   23.3600 C.ar  410  132410      0.0797
      2  C2        12.1890  -10.3760   23.1510 C.ar  410  132410      0.0576
      3  C3        13.1160  -10.2800   22.0900 C.ar  410  132410     -0.0186
      4  C4        13.3210  -11.3760   21.2570 C.ar  410  132410      0.0483
      5  C5        12.6510  -12.5330   21.4660 C.ar  410  132410      0.0012
      6  C6        11.7400  -12.6810   22.4710 C.ar  410  132410     -0.0364
      7  C7        10.5960  -11.8030   24.3840 C.2   410  132410      0.2676
      8  N1        10.0340  -12.9760   24.5380 N.2   410  132410     -0.2884
      9  N2        10.3000  -10.8390   25.2200 N.pl3 410  132410     -0.2497
     10  N3        14.0960  -11.5480   20.2040 N.ar  410  132410     -0.3540
     11  C9        13.0310  -13.4250   20.5170 C.ar  410  132410     -0.0285
     12  C8        13.9790  -12.7650   19.7410 C.ar  410  132410      0.0512
     13  C1'       14.6960  -13.2910   18.6550 C.ar  410  132410      0.0456
     14  C2'       14.5530  -14.6550   18.3570 C.ar  410  132410     -0.0489
     15  C3'       15.2700  -15.2620   17.3340 C.ar  410  132410     -0.0603
     16  C4'       16.1340  -14.5180   16.5750 C.ar  410  132410     -0.0503
     17  C5'       16.3170  -13.1620   16.8250 C.ar  410  132410      0.0295
     18  C6'       15.5920  -12.5090   17.8800 C.ar  410  132410      0.1957
     19  O6'       15.7540  -11.1520   18.1660 O.3   410  132410     -0.2866
     20  C1B       17.2420  -12.4990   16.0310 C.ar  410  132410     -0.0142
     21  C2B       16.8520  -11.4180   15.2550 C.ar  410  132410     -0.0539
     22  C3B       17.7500  -10.7440   14.4850 C.ar  410  132410     -0.0612
     23  C4B       18.9790  -11.1040   14.5090 C.ar  410  132410     -0.0617
     24  C5B       19.4800  -12.2590   15.2260 C.ar  410  132410     -0.0612
     25  C6B       18.5800  -12.9370   15.9860 C.ar  410  132410     -0.0539
     26 CL2        11.9940   -8.9580   24.2310 Cl    410  132410     -0.0826
     27  HC3       13.6580   -9.3700   21.8980 H     410  132410      0.0653
     28  HC6       11.2480  -13.6340   22.5840 H     410  132410      0.0633
     29 HH11       10.2230  -13.7400   23.9120 H     410  132410      0.3009
     30 HH12        9.4640  -13.1860   25.3220 H     410  132410      0.3009
     31 HH21       10.7530   -9.9540   25.1320 H     410  132410      0.2883
     32 HH22        9.7100  -10.9900   26.0080 H     410  132410      0.2883
     33  HN3       14.7220  -10.9090   19.7900 H     410  132410      0.1659
     34  HC9       12.6730  -14.4410   20.4170 H     410  132410      0.0645
     35 HC'2       13.8800  -15.2680   18.9340 H     410  132410      0.0625
     36 HC'3       15.1380  -16.3120   17.1240 H     410  132410      0.0618
     37 HC'4       16.6790  -15.0020   15.7820 H     410  132410      0.0625
     38  H2'       15.8430  -11.0900   15.2740 H     410  132410      0.0624
     39  H3'       17.4910   -9.9010   13.8740 H     410  132410      0.0618
     40  H4'       19.5740  -10.4210   13.8730 H     410  132410      0.0618
     41  H5'       20.5360  -12.5940   15.1890 H     410  132410      0.0618
     42  H6'       18.8990  -13.7760   16.5760 H     410  132410      0.0624
@<TRIPOS>BOND
     1    40    23    1
     2    39    22    1
     3    22    23   ar
     4    22    21   ar
     5    23    24   ar
     6    41    24    1
     7    24    25   ar
     8    21    38    1
     9    21    20   ar
    10    37    16    1
    11    25    20   ar
    12    25    42    1
    13    20    17    1
    14    16    17   ar
    15    16    15   ar
    16    17    18   ar
    17    36    15    1
    18    15    14   ar
    19    18    19    1
    20    18    13   ar
    21    14    13   ar
    22    14    35    1
    23    13    12    1
    24    12    10   ar
    25    12    11   ar
    26    33    10    1
    27    10     4   ar
    28    34    11    1
    29    11     5   ar
    30     4     5   ar
    31     4     3   ar
    32     5     6   ar
    33    27     3    1
    34     3     2   ar
    35     6    28    1
    36     6     1   ar
    37     2     1   ar
    38     2    26    1
    39     1     7    1
    40    29     8    1
    41     7     8    2
    42     7     9    1
    43     8    30    1
    44    31     9    1
    45     9    32    1
