@<TRIPOS>MOLECULE
1gj5_130_H_1.pdb
 41 44 0 0 0
SMALL
GASTEIGER

@<TRIPOS>ATOM
      1  C1        11.7580  -11.5190   22.7200 C.2   410  130410      0.0493
      2  C2        12.1340  -10.2390   22.2740 C.2   410  130410     -0.0485
      3  C3        12.9480  -10.0860   21.1520 C.2   410  130410     -0.0372
      4  C4        13.3700  -11.2220   20.5040 C.2   410  130410      0.0674
      5  C5        13.0190  -12.4630   20.9080 C.2   410  130410      0.1232
      6  C6        12.2050  -12.6540   22.0230 C.3   410  130410      0.0604
      7  C7        10.9580  -11.6400   23.8400 C.2   410  130410      0.2628
      8  N1        10.3100  -12.7540   24.0350 N.2   410  130410     -0.2887
      9  N2        10.8640  -10.6310   24.6810 N.pl3 410  130410     -0.2500
     10  N3        14.1000  -11.3850   19.4550 N.pl3 410  130410     -0.2868
     11  N4        13.5120  -13.3990   20.1330 N.2   410  130410     -0.3899
     12  C8        14.1830  -12.6670   19.2380 C.2   410  130410      0.1858
     13  C1'       15.0200  -13.2090   18.2580 C.ar  410  130410      0.0745
     14  C2'       14.9870  -14.5920   18.0180 C.ar  410  130410     -0.0465
     15  C3'       15.8100  -15.1670   17.0750 C.ar  410  130410     -0.0603
     16  C4'       16.6870  -14.3730   16.3580 C.ar  410  130410     -0.0503
     17  C5'       16.7660  -12.9880   16.5620 C.ar  410  130410      0.0295
     18  C6'       15.9160  -12.3970   17.5190 C.ar  410  130410      0.1980
     19  O6'       15.9240  -11.0320   17.7280 O.3   410  130410     -0.2865
     20  C1B       17.7440  -12.3010   15.8160 C.ar  410  130410     -0.0142
     21  C2B       17.4600  -11.1810   15.0340 C.ar  410  130410     -0.0539
     22  C3B       18.4670  -10.5680   14.2920 C.ar  410  130410     -0.0612
     23  C4B       19.7720  -11.0660   14.3070 C.ar  410  130410     -0.0617
     24  C5B       20.0750  -12.1790   15.0820 C.ar  410  130410     -0.0612
     25  C6B       19.0730  -12.7960   15.8300 C.ar  410  130410     -0.0539
     26  HC2       11.7910   -9.3600   22.7970 H     410  130410      0.0624
     27  HC3       13.2480   -9.1180   20.7880 H     410  130410      0.0637
     28  HC6       11.9340  -13.6510   22.3350 H     410  130410      0.0436
     29 HH11       10.4210  -13.5070   23.3720 H     410  130410      0.3009
     30 HH12        9.7270  -12.9270   24.8230 H     410  130410      0.3009
     31 HH21       11.4320   -9.8150   24.5120 H     410  130410      0.2883
     32  HN3       14.5480  -10.7110   18.8980 H     410  130410      0.1546
     33 HC'2       14.3200  -15.2270   18.5790 H     410  130410      0.0626
     34 HC'3       15.7680  -16.2300   16.8990 H     410  130410      0.0618
     35 HC'4       17.3170  -14.8350   15.6150 H     410  130410      0.0625
     36  H2'       16.4640  -10.7770   15.0050 H     410  130410      0.0624
     37  H3'       18.2350   -9.7020   13.6890 H     410  130410      0.0618
     38  H4'       20.5470  -10.5880   13.7240 H     410  130410      0.0618
     39  H5'       21.0830  -12.5670   15.1060 H     410  130410      0.0618
     40  H6'       19.3300  -13.6560   16.4280 H     410  130410      0.0624
     41 HH22       10.3140  -10.6370   25.5110 H     410  130410      0.2883
@<TRIPOS>BOND
     1    37    22    1
     2    38    23    1
     3    22    23   ar
     4    22    21   ar
     5    23    24   ar
     6    36    21    1
     7    21    20   ar
     8    24    39    1
     9    24    25   ar
    10    35    16    1
    11    20    25   ar
    12    20    17    1
    13    25    40    1
    14    16    17   ar
    15    16    15   ar
    16    17    18   ar
    17    34    15    1
    18    15    14   ar
    19    18    19    1
    20    18    13   ar
    21    14    13   ar
    22    14    33    1
    23    13    12    1
    24    32    10    1
    25    12    10    1
    26    12    11    2
    27    10     4    1
    28    11     5    2
    29     4     5    1
    30     4     3    2
    31    27     3    1
    32     5     6    1
    33     3     2    1
    34     6    28    1
    35     6     1    1
    36     2     1    2
    37     2    26    1
    38     1     7    1
    39    29     8    1
    40     7     8    2
    41     7     9    1
    42     8    30    1
    43    31     9    1
    44     9    41    1
