@<TRIPOS>MOLECULE
1gj6_132_A_1.pdb
 42 45 0 0 0
SMALL
GASTEIGER

@<TRIPOS>ATOM
      1  C1        43.9530   -3.0730   25.6520 C.ar  246  132246      0.0797
      2  C2        43.7760   -1.6610   25.5810 C.ar  246  132246      0.0576
      3  C3        43.5480   -0.9200   26.7570 C.ar  246  132246     -0.0186
      4  C4        43.5080   -1.5780   27.9710 C.ar  246  132246      0.0483
      5  C5        43.6690   -2.9190   28.0410 C.ar  246  132246      0.0012
      6  C6        43.9060   -3.7020   26.9130 C.ar  246  132246     -0.0364
      7  C7        44.2010   -3.8450   24.4930 C.2   246  132246      0.2676
      8  N1        43.8320   -5.1100   24.4240 N.pl3 246  132246     -0.2497
      9  N2        44.8250   -3.2500   23.5110 N.2   246  132246     -0.2884
     10  N3        43.3150   -1.1180   29.1890 N.ar  246  132246     -0.3540
     11  C9        43.5800   -3.2680   29.3620 C.ar  246  132246     -0.0285
     12  C8        43.3470   -2.0890   30.0550 C.ar  246  132246      0.0512
     13  C1'       43.1440   -1.9450   31.4390 C.ar  246  132246      0.0456
     14  C2'       42.8930   -3.0760   32.2240 C.ar  246  132246     -0.0489
     15  C3'       42.6970   -2.9580   33.5990 C.ar  246  132246     -0.0603
     16  C4'       42.6900   -1.7200   34.1950 C.ar  246  132246     -0.0503
     17  C5'       42.9380   -0.5650   33.4580 C.ar  246  132246      0.0295
     18  C6'       43.1310   -0.6680   32.0570 C.ar  246  132246      0.1957
     19  O6'       43.3130    0.4590   31.2760 O.3   246  132246     -0.2866
     20  C1B       43.0020    0.6370   34.1840 C.ar  246  132246     -0.0142
     21  C2B       44.1910    1.3700   34.1310 C.ar  246  132246     -0.0539
     22  C3B       44.3480    2.5330   34.8770 C.ar  246  132246     -0.0612
     23  C4B       43.3240    2.9930   35.6900 C.ar  246  132246     -0.0617
     24  C5B       42.1330    2.2810   35.7530 C.ar  246  132246     -0.0612
     25  C6B       41.9700    1.1080   35.0030 C.ar  246  132246     -0.0539
     26 CL2        43.7500   -0.6970   24.0830 Cl    246  132246     -0.0826
     27  HC3       43.4190    0.1510   26.7150 H     246  132246      0.0653
     28  HC6       44.0390   -4.7700   27.0070 H     246  132246      0.0633
     29 HH11       43.3970   -5.5230   25.2390 H     246  132246      0.2883
     30 HH12       43.9500   -5.7230   23.6490 H     246  132246      0.2883
     31 HH21       45.0660   -2.2780   23.6140 H     246  132246      0.3009
     32 HH22       45.0670   -3.6900   22.6520 H     246  132246      0.3009
     33  HN3       43.1640   -0.1800   29.4840 H     246  132246      0.1659
     34  HC9       43.6680   -4.2630   29.7720 H     246  132246      0.0645
     35 HC'2       42.8930   -4.0580   31.7810 H     246  132246      0.0625
     36 HC'3       42.5040   -3.8360   34.1960 H     246  132246      0.0618
     37 HC'4       42.5290   -1.6590   35.2600 H     246  132246      0.0625
     38  H2'       45.0030    1.0330   33.5030 H     246  132246      0.0624
     39  H3'       45.2800    3.0770   34.8150 H     246  132246      0.0618
     40  H4'       43.4560    3.8950   36.2670 H     246  132246      0.0618
     41  H5'       41.3390    2.6420   36.3840 H     246  132246      0.0618
     42  H6'       41.0380    0.5710   35.0640 H     246  132246      0.0624
@<TRIPOS>BOND
     1    32     9    1
     2     9    31    1
     3     9     7    2
     4    30     8    1
     5    26     2    1
     6     8     7    1
     7     8    29    1
     8     7     1    1
     9     2     1   ar
    10     2     3   ar
    11     1     6   ar
    12    27     3    1
    13     3     4   ar
    14     6    28    1
    15     6     5   ar
    16     4     5   ar
    17     4    10   ar
    18     5    11   ar
    19    10    33    1
    20    10    12   ar
    21    11    34    1
    22    11    12   ar
    23    12    13    1
    24    19    18    1
    25    13    18   ar
    26    13    14   ar
    27    35    14    1
    28    18    17   ar
    29    14    15   ar
    30    17    20    1
    31    17    16   ar
    32    38    21    1
    33    15    16   ar
    34    15    36    1
    35    21    20   ar
    36    21    22   ar
    37    20    25   ar
    38    16    37    1
    39    39    22    1
    40    22    23   ar
    41    25    42    1
    42    25    24   ar
    43    23    24   ar
    44    23    40    1
    45    24    41    1
