@<TRIPOS>MOLECULE
1gj7_132_B_1.pdb
 42 45 0 0 0
SMALL
GASTEIGER

@<TRIPOS>ATOM
      1  C1         8.5780    0.4240   24.9970 C.ar  251  132251      0.0797
      2  C2         8.7520    0.4970   23.5850 C.ar  251  132251      0.0576
      3  C3         9.1610    1.6830   22.9660 C.ar  251  132251     -0.0186
      4  C4         9.3540    2.8100   23.7440 C.ar  251  132251      0.0483
      5  C5         9.2490    2.7450   25.0950 C.ar  251  132251      0.0012
      6  C6         8.8640    1.5830   25.7580 C.ar  251  132251     -0.0364
      7  C7         8.2280   -0.7940   25.6410 C.2   251  132251      0.2676
      8  N1         7.5210   -0.7780   26.7490 N.pl3 251  132251     -0.2497
      9  N2         8.6130   -1.9210   25.1090 N.2   251  132251     -0.2884
     10  N3         9.7930    4.0110   23.4250 N.ar  251  132251     -0.3540
     11  C9         9.5550    3.9940   25.5940 C.ar  251  132251     -0.0285
     12  C8         9.8640    4.7960   24.4820 C.ar  251  132251      0.0512
     13  C1'       10.2150    6.1850   24.4680 C.ar  251  132251      0.0456
     14  C2'       10.0220    6.9650   25.6260 C.ar  251  132251     -0.0489
     15  C3'       10.3310    8.3320   25.6420 C.ar  251  132251     -0.0603
     16  C4'       10.8230    8.9520   24.5110 C.ar  251  132251     -0.0503
     17  C5'       11.0270    8.2220   23.3300 C.ar  251  132251      0.0295
     18  C6'       10.7080    6.8370   23.3020 C.ar  251  132251      0.1957
     19  O6'       10.8780    6.1340   22.1250 O.3   251  132251     -0.2866
     20  C1B       11.6130    8.9280   22.2610 C.ar  251  132251     -0.0142
     21  C2B       12.7720    8.4350   21.6570 C.ar  251  132251     -0.0539
     22  C3B       13.4070    9.1420   20.6540 C.ar  251  132251     -0.0612
     23  C4B       12.8960   10.3610   20.2340 C.ar  251  132251     -0.0617
     24  C5B       11.7400   10.8600   20.8060 C.ar  251  132251     -0.0612
     25  C6B       11.0980   10.1470   21.8220 C.ar  251  132251     -0.0539
     26 CL2         8.3610   -0.8350   22.4740 Cl    251  132251     -0.0826
     27  HC3        9.2680    1.7250   21.8900 H     251  132251      0.0653
     28  HC6        8.7430    1.5800   26.8340 H     251  132251      0.0633
     29 HH11        7.3170    0.1110   27.1730 H     251  132251      0.2883
     30 HH12        7.2160   -1.5800   27.2640 H     251  132251      0.2883
     31 HH21        9.1780   -1.8770   24.2660 H     251  132251      0.3009
     32 HH22        8.4050   -2.8200   25.4740 H     251  132251      0.3009
     33  HN3        9.9580    4.3740   22.5190 H     251  132251      0.1659
     34  HC9        9.5340    4.2960   26.6290 H     251  132251      0.0645
     35 HC'2        9.6490    6.5070   26.5290 H     251  132251      0.0625
     36 HC'3       10.1910    8.9180   26.5370 H     251  132251      0.0618
     37 HC'4       11.0480   10.0090   24.5470 H     251  132251      0.0625
     38  H2'       13.1900    7.4900   21.9660 H     251  132251      0.0624
     39  H3'       14.3050    8.7450   20.2040 H     251  132251      0.0618
     40  H4'       13.3920   10.9160   19.4490 H     251  132251      0.0618
     41  H5'       11.3390   11.8070   20.4760 H     251  132251      0.0618
     42  H6'       10.1960   10.5480   22.2680 H     251  132251      0.0624
@<TRIPOS>BOND
     1    40    23    1
     2    39    22    1
     3    23    22   ar
     4    23    24   ar
     5    41    24    1
     6    22    21   ar
     7    24    25   ar
     8    21    38    1
     9    21    20   ar
    10    25    20   ar
    11    25    42    1
    12    27     3    1
    13    19    18    1
    14    20    17    1
    15    26     2    1
    16    33    10    1
    17     3     2   ar
    18     3     4   ar
    19    18    17   ar
    20    18    13   ar
    21    17    16   ar
    22    10     4   ar
    23    10    12   ar
    24     2     1   ar
    25     4     5   ar
    26    31     9    1
    27    13    12    1
    28    13    14   ar
    29    12    11   ar
    30    16    37    1
    31    16    15   ar
    32     1     7    1
    33     1     6   ar
    34     5    11   ar
    35     5     6   ar
    36     9    32    1
    37     9     7    2
    38    11    34    1
    39    14    15   ar
    40    14    35    1
    41     7     8    1
    42    15    36    1
    43     6    28    1
    44     8    29    1
    45     8    30    1
