@<TRIPOS>MOLECULE
1gj8_133_B_1.pdb
 44 46 0 0 0
SMALL
GASTEIGER

@<TRIPOS>ATOM
      1  C1         8.7020    1.9060   24.7210 C.2   251  133251      0.0843
      2  C2         9.5020    1.7010   23.5460 C.2   251  133251      0.1366
      3  F2         9.7230    0.4740   23.0740 F     251  133251     -0.2048
      4  C3        10.0890    2.7460   22.8090 C.2   251  133251     -0.0019
      5  C4         9.8940    3.9850   23.3270 C.2   251  133251      0.0701
      6  C5         9.1430    4.2220   24.4360 C.2   251  133251      0.1234
      7  C6         8.5610    3.2360   25.1760 C.3   251  133251      0.0633
      8  C7         8.0960    0.8660   25.4440 C.2   251  133251      0.2656
      9  N1         7.6220    1.1290   26.6300 N.pl3 251  133251     -0.2499
     10  N2         7.9690   -0.3410   24.9550 N.2   251  133251     -0.2886
     11  N3        10.2800    5.1330   22.9050 N.pl3 251  133251     -0.2867
     12  N4         9.0730    5.4870   24.7590 N.2   251  133251     -0.3899
     13  C8         9.7890    5.9750   23.7630 C.2   251  133251      0.1859
     14  C1'       10.0240    7.3300   23.6610 C.ar  251  133251      0.0776
     15  C2'        9.6070    8.1950   24.6730 C.ar  251  133251     -0.0463
     16  C3'        9.8420    9.5420   24.5870 C.ar  251  133251     -0.0574
     17  C4'       10.4300   10.0580   23.4430 C.ar  251  133251     -0.0161
     18  C5'       10.8560    9.2200   22.4070 C.ar  251  133251      0.1677
     19  C6'       10.6190    7.8690   22.5090 C.ar  251  133251      0.2316
     20  O6'       11.0360    7.0530   21.4740 O.3   251  133251     -0.2832
     21  O5'       11.4570    9.7000   21.2550 O.3   251  133251     -0.4879
     22  C10       12.2690   10.8580   21.4780 C.3   251  133251      0.0921
     23  C20       12.8550   11.3540   20.1570 C.3   251  133251     -0.0124
     24  C30       14.1520   10.6070   19.8240 C.3   251  133251     -0.0596
     25  C40       11.8260   11.2150   19.0470 C.3   251  133251     -0.0596
     26  HC3       10.6760    2.5820   21.9210 H     251  133251      0.0666
     27  HC6        7.9920    3.4850   26.0520 H     251  133251      0.0437
     28 HH11        7.1780    0.4250   27.1910 H     251  133251      0.2883
     29 HH12        7.6950    2.0380   27.0500 H     251  133251      0.2883
     30 HH21        8.2940   -0.5970   24.0340 H     251  133251      0.3009
     31  HN3       10.8280    5.3840   22.1310 H     251  133251      0.1546
     32 HC'2        9.1450    7.8070   25.5690 H     251  133251      0.0626
     33 HC'3        9.5200   10.2000   25.3850 H     251  133251      0.0619
     34 HC'4       10.5880   11.1230   23.3890 H     251  133251      0.0655
     35 H101       11.6530   11.6600   21.8490 H     251  133251      0.0699
     36 H102       13.0430   10.6320   22.1970 H     251  133251      0.0699
     37  H20       13.0880   12.4040   20.2640 H     251  133251      0.0328
     38 H301       14.6920   11.1570   19.0710 H     251  133251      0.0233
     39 H302       14.7730   10.5240   20.7010 H     251  133251      0.0233
     40 H303       13.9330    9.6190   19.4480 H     251  133251      0.0233
     41 H401       11.6110   10.1720   18.8710 H     251  133251      0.0233
     42 H402       10.9080   11.7100   19.3320 H     251  133251      0.0233
     43 H403       12.2000   11.6650   18.1390 H     251  133251      0.0233
     44 HH22        7.5480   -1.0670   25.5030 H     251  133251      0.3009
@<TRIPOS>BOND
     1    43    25    1
     2    41    25    1
     3    25    42    1
     4    25    23    1
     5    38    24    1
     6    40    24    1
     7    24    23    1
     8    24    39    1
     9    23    37    1
    10    23    22    1
    11    21    22    1
    12    21    18    1
    13    20    19    1
    14    22    35    1
    15    22    36    1
    16    26     4    1
    17    31    11    1
    18    18    19   ar
    19    18    17   ar
    20    19    14   ar
    21     4     5    2
    22     4     2    1
    23    11     5    1
    24    11    13    1
    25     3     2    1
    26     5     6    1
    27    34    17    1
    28    17    16   ar
    29     2     1    2
    30    14    13    1
    31    14    15   ar
    32    13    12    2
    33    30    10    1
    34     6    12    2
    35     6     7    1
    36    16    15   ar
    37    16    33    1
    38    15    32    1
    39     1     7    1
    40     1     8    1
    41    10     8    2
    42    10    44    1
    43     7    27    1
    44     8     9    1
    45     9    29    1
    46     9    28    1
