@<TRIPOS>MOLECULE
1gja_135_B_1.pdb
 32 33 0 0 0
SMALL
GASTEIGER

@<TRIPOS>ATOM
      1  C1         8.6090    0.5270   25.3730 C.ar  251  135251      0.0609
      2  C2         9.4400    0.6780   24.2510 C.ar  251  135251     -0.0453
      3  C3         9.8880    1.9150   23.8390 C.ar  251  135251     -0.0397
      4  C4         9.5050    3.0280   24.5500 C.ar  251  135251      0.0337
      5  C5         8.6900    2.9550   25.6560 C.ar  251  135251     -0.0397
      6  C6         8.2410    1.7030   26.0610 C.ar  251  135251     -0.0453
      7  C7         8.1680   -0.7360   25.7880 C.2   251  135251      0.2662
      8  N1         7.5160   -0.8470   26.9160 N.pl3 251  135251     -0.2497
      9  N2         8.4100   -1.7900   25.0590 N.2   251  135251     -0.2884
     10  N3        10.0240    4.1440   24.0940 N.am  251  135251     -0.2814
     11  C8         9.5920    5.3670   24.3100 C.2   251  135251      0.2520
     12  O8         8.6100    5.6680   24.9770 O.2   251  135251     -0.2697
     13  C9        10.3990    6.3420   23.6500 C.ar  251  135251      0.0836
     14  C10        9.9210    7.6630   23.6150 C.ar  251  135251     -0.0459
     15  C11       10.6100    8.6750   22.9700 C.ar  251  135251     -0.0608
     16  C12       11.8340    8.4290   22.3750 C.ar  251  135251     -0.0581
     17  C13       12.3510    7.1460   22.3840 C.ar  251  135251     -0.0142
     18  C14       11.6740    6.1070   23.0230 C.ar  251  135251      0.1910
     19  O14       12.3300    4.8830   22.9660 O.3   251  135251     -0.2871
     20  H2         9.7500   -0.1900   23.6930 H     251  135251      0.0627
     21  H3        10.5250    2.0040   22.9690 H     251  135251      0.0636
     22  H5         8.3900    3.8250   26.2150 H     251  135251      0.0636
     23  H6         7.6010    1.6500   26.9300 H     251  135251      0.0627
     24 HH11        7.3720   -0.0210   27.4840 H     251  135251      0.2883
     25 HH12        7.1690   -1.6990   27.2730 H     251  135251      0.2883
     26 HH21        8.9270   -1.7140   24.1860 H     251  135251      0.3009
     27  HN3       10.8160    4.0540   23.5280 H     251  135251      0.1551
     28  H10        8.9690    7.9000   24.0710 H     251  135251      0.0626
     29  H11       10.2020    9.6770   22.9660 H     251  135251      0.0618
     30  H12       12.3570    9.2290   21.8780 H     251  135251      0.0619
     31  H13       13.3010    6.9460   21.9140 H     251  135251      0.0656
     32 HH22        8.1180   -2.6980   25.3180 H     251  135251      0.3009
@<TRIPOS>BOND
     1    30    16    1
     2    31    17    1
     3    16    17   ar
     4    16    15   ar
     5    17    18   ar
     6    29    15    1
     7    19    18    1
     8    21     3    1
     9    15    14   ar
    10    18    13   ar
    11    27    10    1
    12    14    13   ar
    13    14    28    1
    14    13    11    1
    15    20     2    1
    16     3     2   ar
    17     3     4   ar
    18    10    11   am
    19    10     4    1
    20    26     9    1
    21     2     1   ar
    22    11    12    2
    23     4     5   ar
    24     9    32    1
    25     9     7    2
    26     1     7    1
    27     1     6   ar
    28     5     6   ar
    29     5    22    1
    30     7     8    1
    31     6    23    1
    32     8    25    1
    33     8    24    1
