@<TRIPOS>MOLECULE
1gjb_130_B_1.pdb
 41 44 0 0 0
SMALL
GASTEIGER

@<TRIPOS>ATOM
      1  C1         8.5770    1.4330   24.7450 C.2   251  130251      0.0492
      2  C2         9.3890    1.2760   23.5690 C.3   251  130251      0.0224
      3  C3         9.9820    2.3660   22.9110 C.2   251  130251     -0.0511
      4  C4         9.7350    3.5850   23.4590 C.2   251  130251      0.0677
      5  C5         8.9740    3.7750   24.5540 C.2   251  130251      0.1376
      6  C6         8.3750    2.7410   25.2340 C.2   251  130251     -0.0111
      7  C7         8.0160    0.3180   25.3880 C.2   251  130251      0.2628
      8  N1         7.6460    0.3810   26.6530 N.pl3 251  130251     -0.2500
      9  N2         7.8750   -0.7900   24.7110 N.2   251  130251     -0.2887
     10  N3        10.1270    4.7610   23.0840 N.pl3 251  130251     -0.2867
     11  N4         8.8650    5.0490   24.9010 N.2   251  130251     -0.3862
     12  C8         9.6080    5.5890   23.9410 C.2   251  130251      0.1862
     13  C1'        9.8450    6.9610   23.8680 C.ar  251  130251      0.0745
     14  C2'        9.4350    7.8020   24.9020 C.ar  251  130251     -0.0465
     15  C3'        9.6540    9.1710   24.8690 C.ar  251  130251     -0.0603
     16  C4'       10.2920    9.7260   23.7760 C.ar  251  130251     -0.0503
     17  C5'       10.7260    8.9440   22.7130 C.ar  251  130251      0.0295
     18  C6'       10.4980    7.5650   22.7660 C.ar  251  130251      0.1980
     19  O6'       10.9450    6.8030   21.7010 O.3   251  130251     -0.2865
     20  C1B       11.3660    9.5550   21.6460 C.ar  251  130251     -0.0142
     21  C2B       12.5390    9.0410   21.0810 C.ar  251  130251     -0.0539
     22  C3B       13.1740    9.6850   20.0270 C.ar  251  130251     -0.0612
     23  C4B       12.6500   10.8610   19.5070 C.ar  251  130251     -0.0617
     24  C5B       11.4860   11.3860   20.0500 C.ar  251  130251     -0.0612
     25  C6B       10.8590   10.7380   21.1040 C.ar  251  130251     -0.0539
     26  HC2        9.5590    0.2870   23.1720 H     251  130251      0.0403
     27  HC3       10.6010    2.2680   22.0350 H     251  130251      0.0598
     28  HC6        7.7760    2.9330   26.1110 H     251  130251      0.0655
     29 HH11        7.7660    1.2360   27.1750 H     251  130251      0.2883
     30 HH12        7.2480   -0.3750   27.1750 H     251  130251      0.2883
     31 HH21        8.1840   -0.8310   23.7500 H     251  130251      0.3009
     32  HN3       10.6920    5.0370   22.3300 H     251  130251      0.1546
     33 HC'2        8.9320    7.3770   25.7590 H     251  130251      0.0626
     34 HC'3        9.3280    9.8000   25.6850 H     251  130251      0.0618
     35 HC'4       10.4600   10.7930   23.7530 H     251  130251      0.0625
     36  H2'       12.9690    8.1270   21.4640 H     251  130251      0.0624
     37  H3'       14.0780    9.2670   19.6090 H     251  130251      0.0618
     38  H4'       13.1460   11.3630   18.6890 H     251  130251      0.0618
     39  H5'       11.0680   12.2990   19.6530 H     251  130251      0.0618
     40  H6'        9.9540   11.1610   21.5150 H     251  130251      0.0624
     41 HH22        7.5260   -1.6340   25.1080 H     251  130251      0.3009
@<TRIPOS>BOND
     1    38    23    1
     2    23    22   ar
     3    23    24   ar
     4    37    22    1
     5    39    24    1
     6    22    21   ar
     7    24    25   ar
     8    21    36    1
     9    21    20   ar
    10    25    40    1
    11    25    20   ar
    12    20    17    1
    13    19    18    1
    14    27     3    1
    15    32    10    1
    16    17    18   ar
    17    17    16   ar
    18    18    13   ar
    19     3     4    2
    20     3     2    1
    21    10     4    1
    22    10    12    1
    23    26     2    1
    24     4     5    1
    25     2     1    1
    26    31     9    1
    27    35    16    1
    28    16    15   ar
    29    13    12    1
    30    13    14   ar
    31    12    11    2
    32     5    11    2
    33     5     6    1
    34     9    41    1
    35     9     7    2
    36     1     6    2
    37     1     7    1
    38    15    14   ar
    39    15    34    1
    40    14    33    1
    41     6    28    1
    42     7     8    1
    43     8    30    1
    44     8    29    1
