@<TRIPOS>MOLECULE
1gjc_130_B_1.pdb
 41 44 0 0 0
SMALL
GASTEIGER

@<TRIPOS>ATOM
      1  C1         8.7610    1.3670   24.6990 C.2   251  130251      0.0492
      2  C2         9.5260    1.2400   23.5100 C.3   251  130251      0.0224
      3  C3        10.1020    2.3400   22.8490 C.2   251  130251     -0.0511
      4  C4         9.8850    3.5570   23.4180 C.2   251  130251      0.0677
      5  C5         9.1700    3.7280   24.5370 C.2   251  130251      0.1376
      6  C6         8.5860    2.6760   25.2210 C.2   251  130251     -0.0111
      7  C7         8.2110    0.2360   25.3310 C.2   251  130251      0.2628
      8  N1         7.7860    0.3080   26.5690 N.pl3 251  130251     -0.2500
      9  N2         8.1250   -0.8970   24.6800 N.2   251  130251     -0.2887
     10  N3        10.2680    4.7330   23.0440 N.pl3 251  130251     -0.2867
     11  N4         9.0780    5.0000   24.9000 N.2   251  130251     -0.3862
     12  C8         9.7860    5.5600   23.9200 C.2   251  130251      0.1862
     13  C1'       10.0470    6.9550   23.8570 C.ar  251  130251      0.0745
     14  C2'        9.7040    7.8070   24.9150 C.ar  251  130251     -0.0465
     15  C3'        9.9550    9.1710   24.8730 C.ar  251  130251     -0.0603
     16  C4'       10.5550    9.7220   23.7660 C.ar  251  130251     -0.0503
     17  C5'       10.9270    8.9440   22.6670 C.ar  251  130251      0.0295
     18  C6'       10.6660    7.5610   22.7300 C.ar  251  130251      0.1980
     19  O6'       11.0360    6.7970   21.6420 O.3   251  130251     -0.2865
     20  C1B       11.5400    9.5710   21.5850 C.ar  251  130251     -0.0142
     21  C2B       12.7980    9.1700   21.1430 C.ar  251  130251     -0.0539
     22  C3B       13.4460    9.8080   20.0970 C.ar  251  130251     -0.0612
     23  C4B       12.8360   10.8760   19.4600 C.ar  251  130251     -0.0617
     24  C5B       11.5800   11.2970   19.8720 C.ar  251  130251     -0.0612
     25  C6B       10.9360   10.6510   20.9230 C.ar  251  130251     -0.0539
     26  HC2        9.6800    0.2590   23.0860 H     251  130251      0.0403
     27  HC3       10.6820    2.2340   21.9460 H     251  130251      0.0598
     28  HC6        8.0150    2.8510   26.1210 H     251  130251      0.0655
     29 HH11        7.3880   -0.4500   27.0880 H     251  130251      0.2883
     30 HH12        7.8580    1.1700   27.0850 H     251  130251      0.2883
     31 HH21        8.5020   -0.9680   23.7470 H     251  130251      0.3009
     32  HN3       10.8080    5.0110   22.2710 H     251  130251      0.1546
     33 HC'2        9.2320    7.3970   25.7970 H     251  130251      0.0626
     34 HC'3        9.6810    9.8020   25.7050 H     251  130251      0.0618
     35 HC'4       10.7420   10.7830   23.7520 H     251  130251      0.0625
     36  H2'       13.2880    8.3380   21.6260 H     251  130251      0.0624
     37  H3'       14.4220    9.4760   19.7790 H     251  130251      0.0618
     38  H4'       13.3380   11.3780   18.6460 H     251  130251      0.0618
     39  H5'       11.1000   12.1270   19.3730 H     251  130251      0.0618
     40  H6'        9.9570   10.9920   21.2290 H     251  130251      0.0624
     41 HH22        7.7960   -1.7410   25.0920 H     251  130251      0.3009
@<TRIPOS>BOND
     1    38    23    1
     2    39    24    1
     3    23    24   ar
     4    23    22   ar
     5    37    22    1
     6    24    25   ar
     7    22    21   ar
     8    25    40    1
     9    25    20   ar
    10    21    20   ar
    11    21    36    1
    12    20    17    1
    13    19    18    1
    14    27     3    1
    15    32    10    1
    16    17    18   ar
    17    17    16   ar
    18    18    13   ar
    19     3     4    2
    20     3     2    1
    21    10     4    1
    22    10    12    1
    23    26     2    1
    24     4     5    1
    25     2     1    1
    26    31     9    1
    27    35    16    1
    28    16    15   ar
    29    13    12    1
    30    13    14   ar
    31    12    11    2
    32     5    11    2
    33     5     6    1
    34     9    41    1
    35     9     7    2
    36     1     6    2
    37     1     7    1
    38    15    14   ar
    39    15    34    1
    40    14    33    1
    41     6    28    1
    42     7     8    1
    43     8    30    1
    44     8    29    1
