@<TRIPOS>MOLECULE
1gjd_136_B_1.pdb
 35 36 0 0 0
SMALL
GASTEIGER

@<TRIPOS>ATOM
      1  C1         8.4240    0.4770   25.4380 C.ar  251  136251      0.0792
      2  C2         8.6750    0.7880   24.0770 C.ar  251  136251      0.0574
      3 CL2         8.2710   -0.3910   22.7950 Cl    251  136251     -0.0826
      4  C3         9.2100    2.0250   23.6960 C.ar  251  136251     -0.0213
      5  C4         9.4780    2.9400   24.6910 C.ar  251  136251      0.0351
      6  C5         9.2400    2.6860   26.0310 C.ar  251  136251     -0.0396
      7  C6         8.7190    1.4630   26.3900 C.ar  251  136251     -0.0439
      8  C7         7.9660   -0.7630   25.8710 C.2   251  136251      0.2676
      9  N1         7.1920   -0.8390   26.9230 N.pl3 251  136251     -0.2497
     10  N2         8.3340   -1.8370   25.2320 N.2   251  136251     -0.2884
     11  N3        10.0210    4.0990   24.4140 N.am  251  136251     -0.2814
     12  C8         9.5730    5.2520   24.8630 C.2   251  136251      0.2520
     13  O8         8.5730    5.3300   25.5720 O.2   251  136251     -0.2697
     14  C9        10.3470    6.3850   24.4390 C.ar  251  136251      0.0849
     15  C10       10.0010    7.6750   24.9160 C.ar  251  136251     -0.0429
     16  C11       10.7100    8.8310   24.5700 C.ar  251  136251     -0.0485
     17  C21       10.3610   10.2260   25.0940 C.3   251  136251     -0.0397
     18  C12       11.7910    8.7310   23.7280 C.ar  251  136251     -0.0420
     19  C13       12.1880    7.5100   23.2170 C.ar  251  136251      0.0610
     20  I13       13.7640    7.5300   21.9140 I     251  136251     -0.0398
     21  C14       11.4910    6.3340   23.5630 C.ar  251  136251      0.2041
     22  O14       11.9890    5.1500   23.0430 O.3   251  136251     -0.2860
     23  H3         9.4050    2.2540   22.6590 H     251  136251      0.0651
     24  H5         9.4550    3.4260   26.7900 H     251  136251      0.0636
     25  H6         8.5410    1.2670   27.4370 H     251  136251      0.0627
     26 HH11        7.0090    0.0120   27.4280 H     251  136251      0.2883
     27 HH12        6.8360   -1.6830   27.3300 H     251  136251      0.2883
     28 HH21        8.9740   -1.7490   24.4490 H     251  136251      0.3009
     29  HN3       10.8020    4.1140   23.8370 H     251  136251      0.1551
     30  H10        9.1490    7.7650   25.5750 H     251  136251      0.0629
     31 H211       11.2740   10.6940   25.4400 H     251  136251      0.0278
     32 H212        9.6780   10.1710   25.9180 H     251  136251      0.0278
     33 H213        9.9350   10.8120   24.2960 H     251  136251      0.0278
     34  H12       12.3500    9.6110   23.4510 H     251  136251      0.0632
     35 HH22        8.0550   -2.7540   25.4920 H     251  136251      0.3009
@<TRIPOS>BOND
     1    20    19    1
     2    23     4    1
     3     3     2    1
     4    22    21    1
     5    19    21   ar
     6    19    18   ar
     7    34    18    1
     8    21    14   ar
     9     4     2   ar
    10     4     5   ar
    11    18    16   ar
    12    29    11    1
    13     2     1   ar
    14    33    17    1
    15    11     5    1
    16    11    12   am
    17    14    12    1
    18    14    15   ar
    19    28    10    1
    20    16    15   ar
    21    16    17    1
    22     5     6   ar
    23    12    13    2
    24    15    30    1
    25    17    31    1
    26    17    32    1
    27    10    35    1
    28    10     8    2
    29     1     8    1
    30     1     7   ar
    31     8     9    1
    32     6     7   ar
    33     6    24    1
    34     7    25    1
    35     9    27    1
    36     9    26    1
