@<TRIPOS>MOLECULE
1gjm_FEM_A_1.pdb
 20 21 0 0 0
SMALL
GASTEIGER

@<TRIPOS>ATOM
      1 FE         39.1880   17.5530   97.3320 Fe    418  FEM418      0.0000
      2  C1        37.1900   18.1210   97.4240 C.3   418  FEM418      0.0000
      3  C2        37.4080   17.3730   96.2640 C.2   418  FEM418      0.0000
      4  C3        37.8510   16.1060   96.6440 C.2   418  FEM418      0.0000
      5  C4        37.9060   16.0690   98.0430 C.2   418  FEM418      0.0000
      6  C5        37.4990   17.3120   98.5250 C.2   418  FEM418      0.0000
      7  C6        41.1930   16.9850   97.2530 C.2   418  FEM418      0.0000
      8  C7        40.9700   17.7350   98.4080 C.3   418  FEM418      0.0000
      9  C8        40.5290   19.0020   98.0200 C.2   418  FEM418      0.0000
     10  C9        40.4800   19.0360   96.6250 C.2   418  FEM418      0.0000
     11  C10       40.8900   17.7880   96.1500 C.2   418  FEM418      0.0000
     12  C11       36.6200   19.5370   97.4840 C.3   418  FEM418      0.0000
     13  C12       35.0770   19.4950   97.4310 C.3   418  FEM418      0.0000
     14  N13       34.5510   20.8300   97.6980 N.am  418  FEM418      0.0000
     15  C14       34.1250   21.6700   96.7470 C.2   418  FEM418      0.0000
     16  C15       33.5600   22.9140   97.3800 C.3   418  FEM418      0.0000
     17  C16       34.0050   22.7690   98.8660 C.3   418  FEM418      0.0000
     18  C17       34.4580   21.3390   98.9480 C.2   418  FEM418      0.0000
     19  O18       34.1520   21.4770   95.5490 O.2   418  FEM418      0.0000
     20  O19       34.6990   20.7570  100.0040 O.2   418  FEM418      0.0000
@<TRIPOS>BOND
     1    19    15    2
     2    11    10    1
     3    11     7    2
     4     3     4    2
     5     3     2    1
     6    10     9    2
     7     4     5    1
     8    15    16    1
     9    15    14   am
    10     7     8    1
    11     1     2    1
    12    16    17    1
    13     2    12    1
    14     2     6    1
    15    13    12    1
    16    13    14    1
    17    14    18   am
    18     9     8    1
    19     5     6    2
    20    17    18    1
    21    18    20    2
