@<TRIPOS>MOLECULE
1gjm_HEM_A_1.pdb
 43 50 0 0 0
SMALL
GASTEIGER

@<TRIPOS>ATOM
      1 FE         45.8090   19.7780   98.1610 Fe    417  HEM417      0.0000
      2  CHA       43.3560   21.9860   99.1240 C.2   417  HEM417      0.0000
      3  CHB       45.5870   20.8620   94.9710 C.2   417  HEM417      0.0000
      4  CHC       48.3570   17.6640   97.2660 C.2   417  HEM417      0.0000
      5  CHD       46.1110   18.7240  101.3670 C.2   417  HEM417      0.0000
      6  NA        44.6800   21.0910   97.2260 N.ar  417  HEM417      0.0000
      7  C1A       43.6780   21.9230   97.7510 C.ar  417  HEM417      0.0000
      8  C2A       43.1020   22.7510   96.7140 C.ar  417  HEM417      0.0000
      9  C3A       43.7090   22.4210   95.5630 C.ar  417  HEM417      0.0000
     10  C4A       44.7030   21.4150   95.8710 C.ar  417  HEM417      0.0000
     11  CMA       43.3890   22.9430   94.1760 C.3   417  HEM417      0.0000
     12  CAA       42.0210   23.7930   96.9210 C.3   417  HEM417      0.0000
     13  CBA       40.6100   23.2330   96.8310 C.3   417  HEM417      0.0000
     14  CGA       39.5320   24.2910   97.0230 C.2   417  HEM417      0.0000
     15  O1A       39.8200   25.5030   96.9110 O.co2 417  HEM417      0.0000
     16  O2A       38.3750   23.9120   97.2860 O.co2 417  HEM417      0.0000
     17  NB        46.7770   19.3550   96.4920 N.2   417  HEM417      0.0000
     18  C1B       46.5660   19.9040   95.2540 C.2   417  HEM417      0.0000
     19  C2B       47.5480   19.3960   94.2860 C.2   417  HEM417      0.0000
     20  C3B       48.3410   18.5040   94.9300 C.2   417  HEM417      0.0000
     21  C4B       47.8360   18.4770   96.2820 C.2   417  HEM417      0.0000
     22  CMB       47.6860   19.8680   92.8480 C.3   417  HEM417      0.0000
     23  CAB       49.3890   17.6970   94.4330 C.2   417  HEM417      0.0000
     24  CBB       50.1750   17.8960   93.3740 C.2   417  HEM417      0.0000
     25  NC        46.9100   18.4210   99.0980 N.ar  417  HEM417      0.0000
     26  C1C       47.8980   17.6060   98.5720 C.ar  417  HEM417      0.0000
     27  C2C       48.4780   16.7300   99.5680 C.ar  417  HEM417      0.0000
     28  C3C       47.8110   16.9770  100.7320 C.ar  417  HEM417      0.0000
     29  C4C       46.8720   18.0590  100.4270 C.ar  417  HEM417      0.0000
     30  CMC       49.6870   15.7790   99.3810 C.3   417  HEM417      0.0000
     31  CAC       48.0980   16.3160  101.9470 C.2   417  HEM417      0.0000
     32  CBC       47.2330   15.9180  102.8670 C.2   417  HEM417      0.0000
     33  ND        44.9700   20.2640   99.8860 N.2   417  HEM417      0.0000
     34  C1D       45.2470   19.7610  101.1260 C.2   417  HEM417      0.0000
     35  C2D       44.5210   20.4470  102.1640 C.2   417  HEM417      0.0000
     36  C3D       43.7660   21.3960  101.5550 C.2   417  HEM417      0.0000
     37  C4D       44.0140   21.2550  100.1320 C.2   417  HEM417      0.0000
     38  CMD       44.5800   20.1240  103.6640 C.3   417  HEM417      0.0000
     39  CAD       42.6900   22.2710  102.2100 C.3   417  HEM417      0.0000
     40  CBD       42.8720   23.7920  102.3260 C.3   417  HEM417      0.0000
     41  CGD       41.6150   24.5090  102.8290 C.2   417  HEM417      0.0000
     42  O1D       41.7410   25.5700  103.4700 O.co2 417  HEM417      0.0000
     43  O2D       40.4900   24.0400  102.5620 O.co2 417  HEM417      0.0000
@<TRIPOS>BOND
     1    22    19    1
     2    24    23    2
     3    11     9    1
     4    19    20    2
     5    19    18    1
     6    23    20    1
     7    20    21    1
     8     3    18    1
     9     3    10    2
    10    18    17    2
    11     9    10   ar
    12     9     8   ar
    13    10     6   ar
    14    21    17    1
    15    21     4    2
    16    17     1    1
    17     8    12    1
    18     8     7   ar
    19    13    12    1
    20    13    14    1
    21    15    14   ar
    22    14    16   ar
    23     6     7   ar
    24     6     1    1
    25     4    26    1
    26     7     2    2
    27     1    25    1
    28     1    33    1
    29    26    25   ar
    30    26    27   ar
    31    25    29   ar
    32     2    37    1
    33    30    27    1
    34    27    28   ar
    35    33    37    2
    36    33    34    1
    37    37    36    1
    38    29    28   ar
    39    29     5    1
    40    28    31    1
    41    34     5    2
    42    34    35    1
    43    36    35    2
    44    36    39    1
    45    31    32    2
    46    35    38    1
    47    39    40    1
    48    40    41    1
    49    43    41   ar
    50    41    42   ar
