@<TRIPOS>MOLECULE
1gjn_HEM_A_1.pdb
 43 50 0 0 0
SMALL
GASTEIGER

@<TRIPOS>ATOM
      1 FE         16.7200  -30.9650   -3.4800 Fe    1154  HEM1154     0.0000
      2  CHA       15.5650  -34.1600   -3.8930 C.2   1154  HEM1154     0.0000
      3  CHB       15.5370  -30.9570   -0.2510 C.2   1154  HEM1154     0.0000
      4  CHC       17.8460  -27.7250   -3.0320 C.2   1154  HEM1154     0.0000
      5  CHD       17.8380  -30.9110   -6.6690 C.2   1154  HEM1154     0.0000
      6  NA        15.7490  -32.3100   -2.3070 N.2   1154  HEM1154     0.0000
      7  C1A       15.3970  -33.5680   -2.6660 C.2   1154  HEM1154     0.0000
      8  C2A       14.8130  -34.2190   -1.5210 C.2   1154  HEM1154     0.0000
      9  C3A       14.7510  -33.3260   -0.5080 C.2   1154  HEM1154     0.0000
     10  C4A       15.3420  -32.1070   -1.0080 C.2   1154  HEM1154     0.0000
     11  CMA       14.1830  -33.5380    0.9060 C.3   1154  HEM1154     0.0000
     12  CAA       14.3290  -35.6540   -1.4650 C.3   1154  HEM1154     0.0000
     13  CBA       15.3160  -36.5080   -0.6480 C.3   1154  HEM1154     0.0000
     14  CGA       16.7080  -36.5150   -1.2220 C.2   1154  HEM1154     0.0000
     15  O1A       16.8550  -36.9110   -2.4080 O.co2 1154  HEM1154     0.0000
     16  O2A       17.6610  -36.1450   -0.5030 O.co2 1154  HEM1154     0.0000
     17  NB        16.7010  -29.6240   -1.9340 N.ar  1154  HEM1154     0.0000
     18  C1B       16.1520  -29.7810   -0.6740 C.ar  1154  HEM1154     0.0000
     19  C2B       16.3220  -28.6160    0.1080 C.ar  1154  HEM1154     0.0000
     20  C3B       17.0040  -27.7120   -0.6490 C.ar  1154  HEM1154     0.0000
     21  C4B       17.2430  -28.3330   -1.9320 C.ar  1154  HEM1154     0.0000
     22  CMB       15.9200  -28.4830    1.5930 C.3   1154  HEM1154     0.0000
     23  CAB       17.3540  -26.3850   -0.3130 C.2   1154  HEM1154     0.0000
     24  CBB       16.5480  -25.5700    0.4110 C.2   1154  HEM1154     0.0000
     25  NC        17.6940  -29.5700   -4.6110 N.2   1154  HEM1154     0.0000
     26  C1C       18.0150  -28.2800   -4.2720 C.2   1154  HEM1154     0.0000
     27  C2C       18.4960  -27.6070   -5.4010 C.2   1154  HEM1154     0.0000
     28  C3C       18.4770  -28.4760   -6.4990 C.2   1154  HEM1154     0.0000
     29  C4C       17.9860  -29.7420   -5.9240 C.2   1154  HEM1154     0.0000
     30  CMC       18.9770  -26.1490   -5.3420 C.3   1154  HEM1154     0.0000
     31  CAC       18.8090  -28.3020   -7.8890 C.2   1154  HEM1154     0.0000
     32  CBC       19.1340  -27.1500   -8.4260 C.2   1154  HEM1154     0.0000
     33  ND        16.7690  -32.2470   -4.9780 N.ar  1154  HEM1154     0.0000
     34  C1D       17.2550  -32.0610   -6.2320 C.ar  1154  HEM1154     0.0000
     35  C2D       16.9610  -33.2030   -7.0410 C.ar  1154  HEM1154     0.0000
     36  C3D       16.2780  -34.1030   -6.2910 C.ar  1154  HEM1154     0.0000
     37  C4D       16.1820  -33.5210   -4.9930 C.ar  1154  HEM1154     0.0000
     38  CMD       17.3080  -33.3780   -8.5020 C.3   1154  HEM1154     0.0000
     39  CAD       15.6080  -35.3860   -6.7960 C.3   1154  HEM1154     0.0000
     40  CBD       14.1920  -35.0630   -7.2760 C.3   1154  HEM1154     0.0000
     41  CGD       13.4410  -36.2820   -7.7870 C.2   1154  HEM1154     0.0000
     42  O1D       13.7100  -36.7100   -8.9380 O.co2 1154  HEM1154     0.0000
     43  O2D       12.5940  -36.8060   -7.0380 O.co2 1154  HEM1154     0.0000
@<TRIPOS>BOND
     1    42    41   ar
     2    38    35    1
     3    32    31    2
     4    31    28    1
     5    41    40    1
     6    41    43   ar
     7    40    39    1
     8    35    36   ar
     9    35    34   ar
    10    39    36    1
    11     5    34    2
    12     5    29    1
    13    28    29    1
    14    28    27    2
    15    36    37   ar
    16    34    33   ar
    17    29    25    2
    18    27    30    1
    19    27    26    1
    20    37    33   ar
    21    37     2    2
    22    33     1    1
    23    25    26    1
    24    25     1    1
    25    26     4    2
    26     2     7    1
    27     1     6    1
    28     1    17    1
    29     4    21    1
    30     7     6    2
    31     7     8    1
    32    15    14   ar
    33     6    10    1
    34    17    21   ar
    35    17    18   ar
    36    21    20   ar
    37     8    12    1
    38     8     9    2
    39    12    13    1
    40    14    13    1
    41    14    16   ar
    42    10     9    1
    43    10     3    2
    44    18     3    1
    45    18    19   ar
    46    20    23    1
    47    20    19   ar
    48     9    11    1
    49    23    24    2
    50    19    22    1
