@<TRIPOS>MOLECULE
1gjp_4OX_A_1.pdb
 14 13 0 0 0
SMALL
GASTEIGER

@<TRIPOS>ATOM
      1  C7        20.3450   24.6740   18.7950 C.3   363  4OX363      0.0006
      2  C8        21.1980   23.4380   19.0760 C.3   363  4OX363      0.0118
      3  C9        22.0730   23.0780   17.8820 C.3   363  4OX363      0.1141
      4  C10       23.5090   22.7770   18.2560 C.2   363  4OX363      0.3649
      5  OT1       23.8640   21.5580   18.4240 O.co2 363  4OX363     -0.2457
      6  OT2       24.3320   23.7430   18.3890 O.co2 363  4OX363     -0.2457
      7  O1        21.1290   28.6000   13.6350 O.co2 363  4OX363     -0.2457
      8  C1        21.4760   27.3880   13.8370 C.2   363  4OX363      0.3649
      9  OH1       22.6770   26.9950   13.6430 O.co2 363  4OX363     -0.2457
     10  C2        20.4460   26.3950   14.3180 C.3   363  4OX363      0.1141
     11  C3        20.6650   25.9430   15.7680 C.3   363  4OX363      0.0118
     12  C4        19.9030   24.6240   15.9430 C.3   363  4OX363      0.0006
     13  C5        18.7120   24.7480   16.8610 C.3   363  4OX363      0.0000
     14  C6        18.9670   24.2650   18.2820 C.3   363  4OX363      0.0000
@<TRIPOS>BOND
     1     7     8   ar
     2     9     8   ar
     3     8    10    1
     4    10    11    1
     5    11    12    1
     6    12    13    1
     7    13    14    1
     8     3     4    1
     9     3     2    1
    10     4     6   ar
    11     4     5   ar
    12    14     1    1
    13     1     2    1
