@<TRIPOS>MOLECULE
1gjq_HEC_A_1.pdb
 43 50 0 0 0
SMALL
GASTEIGER

@<TRIPOS>ATOM
      1 FE         43.4910   10.3090    7.1860 Fe    601  HEC601      0.0000
      2  CHA       43.3130    6.8930    7.3290 C.2   601  HEC601      0.0000
      3  CHB       46.4690   10.2100    8.7850 C.2   601  HEC601      0.0000
      4  CHC       43.8370   13.6760    6.8260 C.2   601  HEC601      0.0000
      5  CHD       40.4250   10.4510    5.8190 C.2   601  HEC601      0.0000
      6  NA        44.6910    8.8750    7.8160 N.2   601  HEC601      0.0000
      7  C1A       44.4850    7.5010    7.8110 C.2   601  HEC601      0.0000
      8  C2A       45.6200    6.8110    8.4320 C.2   601  HEC601      0.0000
      9  C3A       46.5590    7.7510    8.7460 C.2   601  HEC601      0.0000
     10  C4A       45.9230    9.0090    8.4220 C.2   601  HEC601      0.0000
     11  CMA       47.9800    7.5440    9.3240 C.3   601  HEC601      0.0000
     12  CAA       45.7740    5.3050    8.6270 C.3   601  HEC601      0.0000
     13  CBA       45.1340    4.6150    9.8050 C.3   601  HEC601      0.0000
     14  CGA       45.5220    3.1610    9.8900 C.2   601  HEC601      0.0000
     15  O1A       44.9460    2.3420    9.1430 O.co2 601  HEC601      0.0000
     16  O2A       46.4120    2.8380   10.6990 O.co2 601  HEC601      0.0000
     17  NB        44.8540   11.6660    7.7230 N.ar  601  HEC601      0.0000
     18  C1B       45.9850   11.4630    8.4820 C.ar  601  HEC601      0.0000
     19  C2B       46.7840   12.6590    8.6850 C.ar  601  HEC601      0.0000
     20  C3B       46.1270   13.6210    7.9940 C.ar  601  HEC601      0.0000
     21  C4B       44.9010   13.0060    7.4460 C.ar  601  HEC601      0.0000
     22  CMB       48.0480   12.7720    9.5750 C.3   601  HEC601      0.0000
     23  CAB       46.4030   15.1120    7.9510 C.3   601  HEC601      0.0000
     24  CBB       47.6960   15.8030    7.5550 C.3   601  HEC601      0.0000
     25  NC        42.3700   11.7560    6.4200 N.2   601  HEC601      0.0000
     26  C1C       42.6370   13.1160    6.3760 C.2   601  HEC601      0.0000
     27  C2C       41.5060   13.8670    5.8360 C.2   601  HEC601      0.0000
     28  C3C       40.5540   12.9300    5.5120 C.2   601  HEC601      0.0000
     29  C4C       41.1160   11.6430    5.8820 C.2   601  HEC601      0.0000
     30  CMC       41.3700   15.3970    5.7500 C.3   601  HEC601      0.0000
     31  CAC       39.0820   13.1260    5.1840 C.3   601  HEC601      0.0000
     32  CBC       38.5280   13.9560    4.0550 C.3   601  HEC601      0.0000
     33  ND        42.1300    8.9440    6.7040 N.ar  601  HEC601      0.0000
     34  C1D       40.8820    9.1910    6.1740 C.ar  601  HEC601      0.0000
     35  C2D       40.1540    7.9570    5.8540 C.ar  601  HEC601      0.0000
     36  C3D       40.9920    6.9410    6.2220 C.ar  601  HEC601      0.0000
     37  C4D       42.1970    7.5500    6.7990 C.ar  601  HEC601      0.0000
     38  CMD       38.7140    7.8430    5.2770 C.3   601  HEC601      0.0000
     39  CAD       40.7130    5.4690    5.9130 C.3   601  HEC601      0.0000
     40  CBD       41.5610    4.9660    4.7520 C.3   601  HEC601      0.0000
     41  CGD       41.1860    3.5780    4.2580 C.2   601  HEC601      0.0000
     42  O1D       41.6320    3.2160    3.1480 O.co2 601  HEC601      0.0000
     43  O2D       40.4400    2.8490    4.9480 O.co2 601  HEC601      0.0000
@<TRIPOS>BOND
     1    42    41   ar
     2    32    31    1
     3    41    40    1
     4    41    43   ar
     5    40    39    1
     6    31    28    1
     7    38    35    1
     8    28    27    2
     9    28    29    1
    10    30    27    1
    11     5    29    1
    12     5    34    2
    13    27    26    1
    14    35    34   ar
    15    35    36   ar
    16    29    25    2
    17    39    36    1
    18    34    33   ar
    19    36    37   ar
    20    26    25    1
    21    26     4    2
    22    25     1    1
    23    33    37   ar
    24    33     1    1
    25    37     2    2
    26     4    21    1
    27     1    17    1
    28     1     6    1
    29     2     7    1
    30    21    17   ar
    31    21    20   ar
    32    24    23    1
    33    17    18   ar
    34     7     6    2
    35     7     8    1
    36     6    10    1
    37    23    20    1
    38    20    19   ar
    39    10     9    1
    40    10     3    2
    41     8    12    1
    42     8     9    2
    43    18    19   ar
    44    18     3    1
    45    12    13    1
    46    19    22    1
    47     9    11    1
    48    15    14   ar
    49    13    14    1
    50    14    16   ar
