@<TRIPOS>MOLECULE
1gjq_DHE_A_1.pdb
 49 56 0 0 0
SMALL
GASTEIGER

@<TRIPOS>ATOM
      1 FE         27.6710   22.3450    5.8820 Fe    602  DHE602      0.0000
      2  CHA       24.3130   22.5640    6.5090 C.2   602  DHE602      0.0000
      3  CHB       28.1020   20.3460    8.5960 C.2   602  DHE602      0.0000
      4  CHC       30.6480   21.3840    4.6490 C.2   602  DHE602      0.0000
      5  CHD       27.5210   24.9870    3.7490 C.2   602  DHE602      0.0000
      6  NA        26.3870   21.5130    7.2910 N.2   602  DHE602      0.0000
      7  C1A       25.0250   21.7350    7.3820 C.2   602  DHE602      0.0000
      8  C2A       24.5480   21.0040    8.5220 C.2   602  DHE602      0.0000
      9  C3A       25.6480   20.4730    9.1630 C.2   602  DHE602      0.0000
     10  C4A       26.7900   20.7560    8.3660 C.2   602  DHE602      0.0000
     11  CMA       25.7020   19.7170   10.4530 C.3   602  DHE602      0.0000
     12  CAA       23.1000   20.8470    8.9310 C.3   602  DHE602      0.0000
     13  CBA       22.6260   21.8770    9.8490 C.3   602  DHE602      0.0000
     14  CGA       21.1810   22.0410    9.9780 C.2   602  DHE602      0.0000
     15  O1A       20.4800   22.0110    8.9540 O.co2 602  DHE602      0.0000
     16  O2A       20.6930   22.1950   11.1100 O.co2 602  DHE602      0.0000
     17  NB        29.2430   21.1630    6.5890 N.pl3 602  DHE602      0.0000
     18  C1B       29.1760   20.4650    7.7550 C.2   602  DHE602      0.0000
     19  C2B       30.4760   19.8270    8.0240 C.2   602  DHE602      0.0000
     20  OMB       30.8330   19.3370    9.0670 O.2   602  DHE602      0.0000
     21  C3B       31.2950   19.9050    6.7370 C.2   602  DHE602      0.0000
     22  CGB       31.2620   18.4220    6.1430 C.3   602  DHE602      0.0000
     23  CAB       32.7340   20.2770    6.9430 C.3   602  DHE602      0.0000
     24  CBB       33.0520   21.6660    7.3010 C.2   602  DHE602      0.0000
     25  O1B       34.0520   22.1950    6.7840 O.co2 602  DHE602      0.0000
     26  O2B       32.3270   22.2740    8.1060 O.co2 602  DHE602      0.0000
     27  C4B       30.3850   20.8560    5.9060 C.2   602  DHE602      0.0000
     28  NC        28.9410   23.1540    4.4720 N.2   602  DHE602      0.0000
     29  C1C       30.1150   22.5400    4.0980 C.2   602  DHE602      0.0000
     30  C2C       30.7730   23.3440    3.0420 C.2   602  DHE602      0.0000
     31  OMC       31.7990   23.0810    2.4570 O.2   602  DHE602      0.0000
     32  C3C       29.9260   24.6040    2.8410 C.2   602  DHE602      0.0000
     33  CGC       29.4810   24.6100    1.2890 C.3   602  DHE602      0.0000
     34  CAC       30.6600   25.8840    3.1370 C.3   602  DHE602      0.0000
     35  CBC       31.1330   26.1130    4.5230 C.2   602  DHE602      0.0000
     36  O1C       30.9840   27.2350    5.0230 O.co2 602  DHE602      0.0000
     37  O2C       31.6710   25.1840    5.1480 O.co2 602  DHE602      0.0000
     38  C4C       28.7080   24.2670    3.7210 C.2   602  DHE602      0.0000
     39  ND        26.1270   23.5060    5.1360 N.ar  602  DHE602      0.0000
     40  C1D       26.2850   24.5630    4.2550 C.ar  602  DHE602      0.0000
     41  C2D       24.9870   25.1060    3.9860 C.ar  602  DHE602      0.0000
     42  C3D       24.0580   24.3200    4.6630 C.ar  602  DHE602      0.0000
     43  C4D       24.7930   23.4100    5.4950 C.ar  602  DHE602      0.0000
     44  CMD       24.7420   26.3090    3.1130 C.3   602  DHE602      0.0000
     45  CAD       22.5770   24.3930    4.6050 C.2   602  DHE602      0.0000
     46  CBD       21.7960   24.5440    3.5890 C.2   602  DHE602      0.0000
     47  CGD       20.3350   24.3630    3.5740 C.2   602  DHE602      0.0000
     48  O1D       19.6850   24.8640    2.6340 O.co2 602  DHE602      0.0000
     49  O2D       19.7920   23.7180    4.4970 O.co2 602  DHE602      0.0000
@<TRIPOS>BOND
     1    33    32    1
     2    31    30    1
     3    48    47   ar
     4    32    30    2
     5    32    34    1
     6    32    38    1
     7    30    29    1
     8    44    41    1
     9    34    35    1
    10    47    46    1
    11    47    49   ar
    12    46    45    2
    13    38     5    1
    14    38    28    2
    15     5    40    2
    16    41    40   ar
    17    41    42   ar
    18    29    28    1
    19    29     4    2
    20    40    39   ar
    21    28     1    1
    22    35    36   ar
    23    35    37   ar
    24    45    42    1
    25     4    27    1
    26    42    43   ar
    27    39    43   ar
    28    39     1    1
    29    43     2    2
    30     1    17    1
    31     1     6    1
    32    27    17    1
    33    27    21    2
    34    22    21    1
    35     2     7    1
    36    17    18    1
    37    21    23    1
    38    21    19    1
    39    25    24   ar
    40    23    24    1
    41     6     7    2
    42     6    10    1
    43    24    26   ar
    44     7     8    1
    45    18    19    2
    46    18     3    1
    47    19    20    1
    48    10     3    2
    49    10     9    1
    50     8    12    1
    51     8     9    2
    52    12    13    1
    53    15    14   ar
    54     9    11    1
    55    13    14    1
    56    14    16   ar
