@<TRIPOS>MOLECULE
1gjr_NAP_A_1.pdb
 48 52 0 0 0
SMALL
GASTEIGER

@<TRIPOS>ATOM
      1  PA       143.3920   80.4750    1.0250 P.3   305  NAP305      0.2189
      2  O1A      144.1020   79.4820    0.2000 O.2   305  NAP305     -0.5170
      3  O2A      143.7530   81.0390    2.2860 O.3   305  NAP305     -0.4371
      4  O5B      141.8220   79.9140    1.2090 O.3   305  NAP305     -0.3112
      5  C5B      141.2520   79.2540    0.0780 C.3   305  NAP305      0.1813
      6  C4B      140.4420   78.1200    0.6680 C.3   305  NAP305      0.1820
      7  O4B      139.7130   77.6040   -0.4490 O.3   305  NAP305     -0.3136
      8  C3B      141.2890   76.9990    1.1940 C.3   305  NAP305      0.2157
      9  O3B      140.6850   76.4240    2.3410 O.3   305  NAP305     -0.2175
     10  C2B      141.2280   75.9300    0.1370 C.3   305  NAP305      0.2314
     11  O2B      141.2990   74.6190    0.7710 O.3   305  NAP305     -0.2630
     12  C1B      139.8200   76.1910   -0.3860 C.3   305  NAP305      0.3158
     13  N9A      139.5950   75.5710   -1.7130 N.pl3 305  NAP305     -0.1439
     14  C8A      140.5770   74.9850   -2.5090 C.3   305  NAP305      0.3377
     15  N7A      140.0640   74.4880   -3.6030 N.2   305  NAP305     -0.2095
     16  C5A      138.7070   74.7210   -3.5050 C.2   305  NAP305      0.2526
     17  C6A      137.6500   74.3970   -4.3510 C.2   305  NAP305      0.4393
     18  N6A      137.8380   73.7570   -5.5070 N.pl3 305  NAP305      0.2180
     19  N1A      136.4030   74.7910   -3.9540 N.2   305  NAP305      0.0021
     20  C2A      136.2210   75.4330   -2.8040 C.3   305  NAP305      0.5254
     21  N3A      137.1670   75.7880   -1.9340 N.2   305  NAP305     -0.0055
     22  C4A      138.4070   75.3860   -2.3680 C.2   305  NAP305      0.3518
     23  O3       143.0530   81.5940   -0.1140 O.3   305  NAP305     -0.2703
     24  PN       143.8340   82.9870   -0.4060 P.3   305  NAP305      0.2189
     25  O1N      144.3500   83.4830    0.8690 O.3   305  NAP305     -0.4371
     26  O2N      142.7430   83.8030   -1.0930 O.2   305  NAP305     -0.5170
     27  O5D      144.8870   82.6550   -1.5610 O.3   305  NAP305     -0.3112
     28  C5D      145.5550   81.3340   -1.4560 C.3   305  NAP305      0.1813
     29  C4D      146.0180   80.8570   -2.8380 C.3   305  NAP305      0.1799
     30  O4D      144.9920   80.1220   -3.4930 O.3   305  NAP305     -0.3327
     31  C3D      146.2810   82.0310   -3.8050 C.3   305  NAP305      0.2158
     32  O3D      147.5010   82.7260   -3.5620 O.3   305  NAP305     -0.2175
     33  C2D      146.2350   81.3300   -5.1200 C.3   305  NAP305      0.2309
     34  O2D      147.3290   80.4730   -5.3350 O.3   305  NAP305     -0.2158
     35  C1D      144.9230   80.4980   -4.8650 C.3   305  NAP305      0.2263
     36  N1N      143.7740   81.4270   -5.0390 N.pl3 305  NAP305     -0.2787
     37  C2N      142.9080   81.5930   -3.9750 C.3   305  NAP305      0.1244
     38  C3N      141.7900   82.4830   -4.1670 C.2   305  NAP305      0.0544
     39  C7N      140.8170   82.7290   -3.1020 C.2   305  NAP305      0.2818
     40  O7N      140.2320   83.8240   -3.0000 O.2   305  NAP305     -0.2670
     41  N7N      140.5450   81.8130   -2.1840 N.am  305  NAP305     -0.0839
     42  C4N      141.6360   83.1300   -5.3870 C.2   305  NAP305      0.0033
     43  C5N      142.5080   82.9210   -6.3850 C.2   305  NAP305      0.0157
     44  C6N      143.5690   82.0890   -6.2410 C.2   305  NAP305      0.0633
     45  P2B      142.7360   73.8090    0.7290 P.3   305  NAP305      0.5328
     46  O1X      143.8000   74.8320    0.3990 O.3   305  NAP305     -0.1145
     47  O2X      142.7820   73.4280    2.1070 O.3   305  NAP305     -0.1145
     48  O3X      142.5440   72.9950   -0.4480 O.2   305  NAP305     -0.2224
@<TRIPOS>BOND
     1    43    44    2
     2    43    42    1
     3    44    36    1
     4    18    17    1
     5    42    38    2
     6    34    33    1
     7    33    35    1
     8    33    31    1
     9    36    35    1
    10    36    37    1
    11    35    30    1
    12    17    19    2
    13    17    16    1
    14    38    37    1
    15    38    39    1
    16    19    20    1
    17    31    32    1
    18    31    29    1
    19    15    16    2
    20    15    14    1
    21    16    22    1
    22    30    29    1
    23    39    40    2
    24    39    41   am
    25    29    28    1
    26    20    21    1
    27    14    13    1
    28    22    21    2
    29    22    13    1
    30    13    12    1
    31    27    28    1
    32    27    24    1
    33    26    24    2
    34     7    12    1
    35     7     6    1
    36    48    45    2
    37    24    23    1
    38    24    25    1
    39    12    10    1
    40    23     1    1
    41     5     6    1
    42     5     4    1
    43    10    11    1
    44    10     8    1
    45     2     1    2
    46    46    45    1
    47     6     8    1
    48    45    11    1
    49    45    47    1
    50     1     4    1
    51     1     3    1
    52     8     9    1
