@<TRIPOS>MOLECULE
1gjv_AGS_A_1.pdb
 31 33 0 0 0
SMALL
GASTEIGER

@<TRIPOS>ATOM
      1  PG        93.5620  124.3400   34.8810 P.3   1383  AGS1383     0.4340
      2  S1G       93.7670  125.8340   35.0660 S.3   1383  AGS1383     0.0416
      3  O2G       94.3490  123.4020   35.7420 O.3   1383  AGS1383    -0.1305
      4  O3G       92.1760  123.7700   35.0530 O.2   1383  AGS1383    -0.2423
      5  PB        94.7840  122.7700   32.7500 P.3   1383  AGS1383     0.2262
      6  O1B       94.9590  123.0440   31.3080 O.2   1383  AGS1383    -0.5168
      7  O2B       94.1780  121.4850   33.1800 O.3   1383  AGS1383    -0.4369
      8  O3B       93.9690  123.9910   33.3720 O.3   1383  AGS1383    -0.2405
      9  PA        97.3080  122.1040   34.0780 P.3   1383  AGS1383     0.2189
     10  O1A       96.6990  121.1570   35.0450 O.3   1383  AGS1383    -0.4371
     11  O2A       98.4850  122.8930   34.4800 O.2   1383  AGS1383    -0.5170
     12  O3A       96.1740  123.0640   33.4900 O.3   1383  AGS1383    -0.2701
     13  O5'       97.5980  121.2660   32.7570 O.3   1383  AGS1383    -0.3112
     14  C5'       98.5960  121.6450   31.8220 C.3   1383  AGS1383     0.1813
     15  C4'       98.4380  120.8290   30.5650 C.3   1383  AGS1383     0.1821
     16  O4'       99.1410  119.5570   30.7050 O.3   1383  AGS1383    -0.3135
     17  C3'       97.0050  120.4280   30.2650 C.3   1383  AGS1383     0.2184
     18  O3'       96.3580  121.4790   29.5720 O.3   1383  AGS1383    -0.2174
     19  C2'       97.1850  119.1880   29.3980 C.3   1383  AGS1383     0.2570
     20  O2'       97.5160  119.5170   28.0680 O.3   1383  AGS1383    -0.2130
     21  C1'       98.4050  118.5300   30.0470 C.3   1383  AGS1383     0.3186
     22  N9        98.0930  117.4640   31.0100 N.pl3 1383  AGS1383    -0.1439
     23  C8        97.9970  117.5530   32.3850 C.3   1383  AGS1383     0.3377
     24  N7        97.7180  116.4120   32.9700 N.2   1383  AGS1383    -0.2095
     25  C5        97.6220  115.5120   31.9200 C.2   1383  AGS1383     0.2526
     26  C6        97.3560  114.1420   31.8800 C.2   1383  AGS1383     0.4393
     27  N6        97.1430  113.3960   32.9670 N.pl3 1383  AGS1383     0.2180
     28  N1        97.3220  113.5450   30.6680 N.2   1383  AGS1383     0.0021
     29  C2        97.5580  114.2830   29.5840 C.3   1383  AGS1383     0.5254
     30  N3        97.8320  115.5770   29.4910 N.2   1383  AGS1383    -0.0055
     31  C4        97.8450  116.1440   30.7060 C.2   1383  AGS1383     0.3518
@<TRIPOS>BOND
     1    20    19    1
     2    19    21    1
     3    19    17    1
     4    30    29    1
     5    30    31    2
     6    18    17    1
     7    29    28    1
     8    21    16    1
     9    21    22    1
    10    17    15    1
    11    15    16    1
    12    15    14    1
    13    28    26    2
    14    31    22    1
    15    31    25    1
    16    22    23    1
    17     6     5    2
    18    14    13    1
    19    26    25    1
    20    26    27    1
    21    25    24    2
    22    23    24    1
    23     5     7    1
    24     5     8    1
    25     5    12    1
    26    13     9    1
    27     8     1    1
    28    12     9    1
    29     9    11    2
    30     9    10    1
    31     1     4    2
    32     1     2    1
    33     1     3    1
