@<TRIPOS>MOLECULE
1gjw_GLC_A_1.pdb
 12 12 0 0 0
SMALL
GASTEIGER

@<TRIPOS>ATOM
      1  C1       -37.8650   46.3630   -0.4930 C.3   701  GLC701      0.3024
      2  C2       -37.2060   45.2300   -1.2870 C.3   701  GLC701      0.2434
      3  C3       -35.6730   45.2500   -1.2230 C.3   701  GLC701      0.2199
      4  C4       -35.1050   46.6560   -1.3690 C.3   701  GLC701      0.2144
      5  C5       -35.7970   47.5880   -0.3990 C.3   701  GLC701      0.1836
      6  C6       -35.2300   49.0010   -0.5120 C.3   701  GLC701      0.2142
      7  O1       -37.8190   46.0730    0.8570 O.3   701  GLC701     -0.1869
      8  O2       -37.6580   43.9910   -0.7650 O.3   701  GLC701     -0.2148
      9  O3       -35.1660   44.4530   -2.2750 O.3   701  GLC701     -0.2174
     10  O4       -33.7080   46.6580   -1.1200 O.3   701  GLC701     -0.2176
     11  O5       -37.2070   47.6260   -0.7150 O.3   701  GLC701     -0.3236
     12  O6       -36.0890   49.8600   -1.2410 O.3   701  GLC701     -0.2176
@<TRIPOS>BOND
     1     9     3    1
     2     4     3    1
     3     4    10    1
     4     4     5    1
     5     2     3    1
     6     2     8    1
     7     2     1    1
     8    12     6    1
     9    11     1    1
    10    11     5    1
    11     6     5    1
    12     1     7    1
