@<TRIPOS>MOLECULE
1gjw_MAL_A_1.pdb
 23 24 0 0 0
SMALL
GASTEIGER

@<TRIPOS>ATOM
      1  C1       -17.5280   47.6300    0.9420 C.3   700  MAL700      0.2695
      2  C2       -16.4940   46.8380    1.7680 C.3   700  MAL700      0.2406
      3  C3       -16.6200   47.1280    3.2830 C.3   700  MAL700      0.2198
      4  C4       -16.6400   48.6410    3.5580 C.3   700  MAL700      0.2144
      5  C5       -17.7860   49.2350    2.7500 C.3   700  MAL700      0.1835
      6  C6       -17.9370   50.7210    2.9750 C.3   700  MAL700      0.2142
      7  O1       -18.7890   47.0150    1.0510 O.3   700  MAL700     -0.3257
      8  O2       -16.6810   45.4460    1.5460 O.3   700  MAL700     -0.2149
      9  O3       -15.5320   46.5320    3.9720 O.3   700  MAL700     -0.2174
     10  O4       -16.8170   48.9090    4.9530 O.3   700  MAL700     -0.2176
     11  O5       -17.5440   49.0130    1.3370 O.3   700  MAL700     -0.3256
     12  O6       -16.7010   51.3750    2.7750 O.3   700  MAL700     -0.2176
     13  C1'      -22.5400   47.3490   -0.8810 C.3   700  MAL700      0.3023
     14  C2'      -21.3130   47.0150   -1.7420 C.3   700  MAL700      0.2433
     15  C3'      -20.2040   46.4800   -0.8700 C.3   700  MAL700      0.2168
     16  C4'      -19.8470   47.5170    0.1990 C.3   700  MAL700      0.1804
     17  C5'      -21.1180   47.8030    1.0240 C.3   700  MAL700      0.1804
     18  C6'      -20.9090   48.8540    2.1090 C.3   700  MAL700      0.2141
     19  O1'      -23.0620   46.1720   -0.3570 O.3   700  MAL700     -0.1869
     20  O2'      -21.6250   46.0370   -2.7200 O.3   700  MAL700     -0.2148
     21  O3'      -19.0860   46.1940   -1.6870 O.3   700  MAL700     -0.2175
     22  O5'      -22.1820   48.2720    0.1490 O.3   700  MAL700     -0.3237
     23  O6'      -21.9850   49.7830    2.1480 O.3   700  MAL700     -0.2176
@<TRIPOS>BOND
     1    20    14    1
     2    14    13    1
     3    14    15    1
     4    21    15    1
     5    13    19    1
     6    13    22    1
     7    15    16    1
     8    22    17    1
     9    16    17    1
    10    16     7    1
    11     1     7    1
    12     1    11    1
    13     1     2    1
    14    17    18    1
    15    11     5    1
    16     8     2    1
    17     2     3    1
    18    18    23    1
    19     5     6    1
    20     5     4    1
    21    12     6    1
    22     3     4    1
    23     3     9    1
    24     4    10    1
