@<TRIPOS>MOLECULE
1gk8_CAP_A_1.pdb
 21 20 0 0 0
SMALL
GASTEIGER

@<TRIPOS>ATOM
      1  C1         5.6260   -3.5420   19.6820 C.3   1477  CAP1477     0.1978
      2  C2         4.7270   -2.8200   18.7200 C.3   1477  CAP1477     0.2763
      3  C3         5.5060   -2.6490   17.3910 C.3   1477  CAP1477     0.2253
      4  C4         5.7580   -3.9500   16.6360 C.3   1477  CAP1477     0.2152
      5  C5         5.7050   -3.8830   15.1090 C.3   1477  CAP1477     0.1892
      6  C          3.3600   -3.5240   18.4680 C.2   1477  CAP1477     0.3967
      7  O1         4.9980   -3.6430   20.9630 O.3   1477  CAP1477    -0.2669
      8  O2         4.4250   -1.5620   19.1880 O.3   1477  CAP1477    -0.2086
      9  O3         4.7680   -1.7830   16.5920 O.3   1477  CAP1477    -0.2170
     10  O4         7.0490   -4.2860   16.9620 O.3   1477  CAP1477    -0.2176
     11  O5         6.1520   -5.0860   14.5010 O.3   1477  CAP1477    -0.2674
     12  O6         2.4290   -2.8060   18.0970 O.co2 1477  CAP1477    -0.2428
     13  O7         3.2190   -4.7130   18.6610 O.co2 1477  CAP1477    -0.2428
     14  P1         5.8090   -4.4320   22.1430 P.3   1477  CAP1477     0.5327
     15  P2         7.4030   -5.0870   13.5570 P.3   1477  CAP1477     0.5327
     16  O1P        4.9840   -4.2360   23.3230 O.3   1477  CAP1477    -0.1145
     17  O2P        7.1520   -3.7180   22.2470 O.3   1477  CAP1477    -0.1145
     18  O3P        5.9420   -5.8280   21.6400 O.2   1477  CAP1477    -0.2224
     19  O4P        7.7410   -6.5210   13.2970 O.3   1477  CAP1477    -0.1145
     20  O5P        8.5130   -4.3800   14.3100 O.3   1477  CAP1477    -0.1145
     21  O6P        7.0510   -4.3030   12.3240 O.2   1477  CAP1477    -0.2224
@<TRIPOS>BOND
     1    21    15    2
     2    19    15    1
     3    15    20    1
     4    15    11    1
     5    11     5    1
     6     5     4    1
     7     9     3    1
     8     4    10    1
     9     4     3    1
    10     3     2    1
    11    12     6   ar
    12     6    13   ar
    13     6     2    1
    14     2     8    1
    15     2     1    1
    16     1     7    1
    17     7    14    1
    18    18    14    2
    19    14    17    1
    20    14    16    1
