@<TRIPOS>MOLECULE
1gka_AXT_A_1.pdb
 44 45 0 0 0
SMALL
GASTEIGER

@<TRIPOS>ATOM
      1  C1        45.6840   74.7440   25.2270 C.3   1182  AXT1182     0.0182
      2  C2        46.1580   74.3890   26.6370 C.3   1182  AXT1182     0.0447
      3  C3        47.3090   73.4150   26.6090 C.3   1182  AXT1182     0.2129
      4  C4        48.4530   74.0880   25.8280 C.2   1182  AXT1182     0.1986
      5  C5        48.1420   74.9750   24.7050 C.2   1182  AXT1182     0.0078
      6  C6        46.8470   75.2900   24.3560 C.2   1182  AXT1182    -0.0415
      7  C7        46.6700   76.1340   23.1910 C.3   1182  AXT1182     0.0471
      8  C8        45.4520   76.4390   22.6110 C.2   1182  AXT1182    -0.0302
      9  C9        45.3390   77.2670   21.5240 C.2   1182  AXT1182    -0.0475
     10  C10       44.0380   77.5520   21.1110 C.3   1182  AXT1182     0.0264
     11  C11       43.6600   78.4210   20.0510 C.3   1182  AXT1182     0.0297
     12  C12       42.2910   78.5790   19.8980 C.2   1182  AXT1182    -0.0339
     13  C13       41.6450   79.4100   18.9590 C.2   1182  AXT1182    -0.0438
     14  C14       40.2350   79.4460   19.0350 C.3   1182  AXT1182     0.0473
     15  C15       39.4000   80.2750   18.2170 C.2   1182  AXT1182    -0.0260
     16  C16       44.6000   75.7640   25.4530 C.3   1182  AXT1182     0.0041
     17  C17       45.0570   73.5080   24.6180 C.3   1182  AXT1182     0.0041
     18  C18       49.2420   75.5840   23.8710 C.3   1182  AXT1182     0.0335
     19  C19       46.5560   77.8740   20.8750 C.3   1182  AXT1182     0.0260
     20  C20       42.4040   80.2650   17.9440 C.3   1182  AXT1182     0.0264
     21  O3        47.7260   73.0730   27.9550 O.3   1182  AXT1182    -0.2148
     22  O4        49.6220   73.8400   26.1400 O.2   1182  AXT1182    -0.2890
     23  C21       32.0880   87.4860   12.6600 C.3   1182  AXT1182     0.0216
     24  C22       31.4830   88.8390   12.3910 C.3   1182  AXT1182     0.0450
     25  C23       30.2260   88.7540   11.5580 C.3   1182  AXT1182     0.2129
     26  C24       29.2570   87.9690   12.2460 C.2   1182  AXT1182     0.1989
     27  C25       29.6780   86.9300   13.1110 C.2   1182  AXT1182     0.0114
     28  C26       31.0490   86.6510   13.3280 C.2   1182  AXT1182    -0.0238
     29  C27       31.3480   85.5680   14.1700 C.2   1182  AXT1182    -0.0048
     30  C28       32.5900   85.0600   14.4950 C.2   1182  AXT1182    -0.0049
     31  C29       32.6680   83.9960   15.3730 C.2   1182  AXT1182    -0.0258
     32  C30       33.8830   83.5280   15.7000 C.2   1182  AXT1182    -0.0257
     33  C31       34.0570   82.4880   16.5790 C.3   1182  AXT1182     0.0510
     34  C32       35.3340   82.1830   16.7400 C.2   1182  AXT1182    -0.0296
     35  C33       35.8240   81.2300   17.5820 C.2   1182  AXT1182    -0.0435
     36  C34       37.2380   81.1090   17.5900 C.3   1182  AXT1182     0.0473
     37  C35       38.0080   80.2440   18.3770 C.2   1182  AXT1182    -0.0260
     38  C36       33.2780   87.7930   13.5080 C.3   1182  AXT1182     0.0045
     39  C37       32.5440   86.7850   11.4080 C.3   1182  AXT1182     0.0045
     40  C38       28.6050   86.0880   13.8080 C.3   1182  AXT1182     0.0338
     41  C39       31.4140   83.3860   15.9530 C.3   1182  AXT1182     0.0307
     42  C40       34.9010   80.4120   18.4400 C.3   1182  AXT1182     0.0264
     43  O24       28.0860   88.2230   12.0320 O.2   1182  AXT1182    -0.2890
     44  O23       29.6630   90.0320   11.3750 O.3   1182  AXT1182    -0.2148
@<TRIPOS>BOND
     1    44    25    1
     2    39    23    1
     3    25    26    1
     4    25    24    1
     5    43    26    2
     6    26    27    1
     7    24    23    1
     8    23    28    1
     9    23    38    1
    10    27    28    2
    11    27    40    1
    12    28    29    1
    13    29    30    2
    14    30    31    1
    15    31    32    2
    16    31    41    1
    17    32    33    1
    18    33    34    1
    19    34    35    2
    20    35    36    1
    21    35    42    1
    22    36    37    1
    23    20    13    1
    24    15    37    2
    25    15    14    1
    26    13    14    1
    27    13    12    2
    28    12    11    1
    29    11    10    1
    30    19     9    1
    31    10     9    1
    32     9     8    2
    33     8     7    1
    34     7     6    1
    35    18     5    1
    36     6     5    2
    37     6     1    1
    38    17     1    1
    39     5     4    1
    40     1    16    1
    41     1     2    1
    42     4    22    2
    43     4     3    1
    44     3     2    1
    45     3    21    1
