@<TRIPOS>MOLECULE
1gkc_NFH_A_1.pdb
 22 21 0 0 0
SMALL
GASTEIGER

@<TRIPOS>ATOM
      1  C         66.2740   30.1870  117.6290 C.2   1448  NFH1448     0.2430
      2  N         65.3230   29.1400  114.0740 N.am  1448  NFH1448    -0.2791
      3  O         66.8820   29.1800  118.0670 O.2   1448  NFH1448    -0.2733
      4  C1        66.4910   31.8470  120.5860 C.2   1448  NFH1448     0.2613
      5  N1        66.4500   31.4280  118.1310 N.am  1448  NFH1448    -0.1977
      6  O1        65.4060   32.4680  120.5890 O.2   1448  NFH1448    -0.2715
      7  N2        67.0030   31.1960  121.6670 N.am  1448  NFH1448    -0.2021
      8  CA        65.2680   30.0260  116.4520 C.3   1448  NFH1448     0.0985
      9  CB        64.0190   29.1340  116.8410 C.3   1448  NFH1448     0.0109
     10  CG        63.0380   29.6080  117.9420 C.3   1448  NFH1448     0.0005
     11  CM        64.8510   27.9580  113.6730 C.2   1448  NFH1448     0.1130
     12  OM        64.2130   27.7930  112.6890 O.2   1448  NFH1448    -0.5358
     13  CN        66.0930   29.3440  115.2980 C.3   1448  NFH1448     0.1071
     14  ON        65.0830   30.1770  113.3580 O.3   1448  NFH1448    -0.4195
     15  CA1       67.3890   31.7540  119.2710 C.3   1448  NFH1448     0.1726
     16  CB1       68.2790   33.0670  118.9690 C.3   1448  NFH1448     0.0270
     17  CD1       62.2950   30.8850  117.4880 C.3   1448  NFH1448     0.0000
     18  CD2       61.9510   28.5640  118.1220 C.3   1448  NFH1448     0.0000
     19  CG1       69.2630   33.4070  120.1530 C.3   1448  NFH1448     0.0022
     20  CG2       69.1190   32.8830  117.6770 C.3   1448  NFH1448     0.0022
     21  CG3       67.4240   34.3730  118.7360 C.3   1448  NFH1448     0.0022
     22  CN2       66.3500   31.1370  122.9960 C.3   1448  NFH1448     0.1386
@<TRIPOS>BOND
     1    12    11    2
     2    14     2    1
     3    11     2   am
     4     2    13    1
     5    13     8    1
     6     8     9    1
     7     8     1    1
     8     9    10    1
     9    17    10    1
    10     1     3    2
    11     1     5   am
    12    20    16    1
    13    10    18    1
    14     5    15    1
    15    21    16    1
    16    16    15    1
    17    16    19    1
    18    15     4    1
    19     4     6    2
    20     4     7   am
    21     7    22    1
