@<TRIPOS>MOLECULE
1gkd_BUM_A_1.pdb
 10 9 0 0 0
SMALL
GASTEIGER

@<TRIPOS>ATOM
      1  CG2       -4.5080   15.1980   13.7270 C.3   1449  BUM1449     0.0019
      2  CG3       -6.0420   16.8650   12.7170 C.3   1449  BUM1449     0.0019
      3  CB        -4.7410   16.0190   12.4400 C.3   1449  BUM1449     0.0248
      4  CA        -3.4510   16.9110   12.0750 C.3   1449  BUM1449     0.1692
      5  CG1       -5.1140   15.0290   11.2740 C.3   1449  BUM1449     0.0019
      6  C         -3.6330   17.7830   10.7520 C.2   1449  BUM1449     0.2589
      7  O         -4.3280   18.8260   10.7540 O.2   1449  BUM1449    -0.2718
      8  N         -3.1230   17.8620   13.2090 N.3   1449  BUM1449    -0.1231
      9  N2        -2.9820   17.2920    9.6590 N.am  1449  BUM1449    -0.2023
     10  CN2       -2.9940   17.9140    8.3110 C.3   1449  BUM1449     0.1385
@<TRIPOS>BOND
     1    10     9    1
     2     9     6   am
     3     6     7    2
     4     6     4    1
     5     5     3    1
     6     4     3    1
     7     4     8    1
     8     3     2    1
     9     3     1    1
