@<TRIPOS>MOLECULE
1gkd_STN_A_1.pdb
 12 11 0 0 0
SMALL
GASTEIGER

@<TRIPOS>ATOM
      1  CD1       -2.4800   22.0420   13.8720 C.3   1448  STN1448     0.0000
      2  CG        -1.2250   21.2350   13.4500 C.3   1448  STN1448     0.0005
      3  CN        -1.2270   18.1570   16.0920 C.3   1448  STN1448     0.1057
      4  CA        -1.7980   19.0260   14.9150 C.3   1448  STN1448     0.0852
      5  CB        -0.8270   20.2360   14.5720 C.3   1448  STN1448     0.0095
      6  CD2       -0.1350   22.2800   13.2820 C.3   1448  STN1448     0.0000
      7  C         -1.9150   18.0160   13.7600 C.2   1448  STN1448     0.2087
      8  CM         0.1190   19.1060   17.9320 C.2   1448  STN1448     0.1130
      9  ON        -2.1480   19.2790   17.9140 O.3   1448  STN1448    -0.4195
     10  N         -1.0680   18.8680   17.3470 N.am  1448  STN1448    -0.2792
     11  OM         0.2570   19.6790   18.9530 O.2   1448  STN1448    -0.5358
     12  O         -0.9050   17.3750   13.3890 O.2   1448  STN1448    -0.2882
@<TRIPOS>BOND
     1     6     2    1
     2    12     7    2
     3     2     1    1
     4     2     5    1
     5     7     4    1
     6     5     4    1
     7     4     3    1
     8     3    10    1
     9    10     9    1
    10    10     8   am
    11     8    11    2
