@<TRIPOS>MOLECULE
1gki_ADP_A_1.pdb
 27 29 0 0 0
SMALL
GASTEIGER

@<TRIPOS>ATOM
      1  PB       -36.5250   29.5320  130.7390 P.3   701  ADP701      0.5373
      2  O1B      -36.5780   30.6000  131.8300 O.3   701  ADP701     -0.1143
      3  O2B      -37.2830   29.8410  129.5040 O.2   701  ADP701     -0.2221
      4  O3B      -35.0380   29.1250  130.4360 O.3   701  ADP701     -0.1143
      5  PA       -37.5920   27.7870  132.7880 P.3   701  ADP701      0.2231
      6  O1A      -36.5550   28.2570  133.7640 O.3   701  ADP701     -0.4370
      7  O2A      -37.9910   26.3740  132.7910 O.2   701  ADP701     -0.5169
      8  O3A      -37.0720   28.1950  131.3130 O.3   701  ADP701     -0.2261
      9  O5'      -38.8630   28.7210  132.9920 O.3   701  ADP701     -0.3111
     10  C5'      -40.0110   28.4700  132.1660 C.3   701  ADP701      0.1813
     11  C4'      -41.2680   28.0620  132.9040 C.3   701  ADP701      0.1821
     12  O4'      -41.1400   26.6580  133.3550 O.3   701  ADP701     -0.3135
     13  C3'      -41.6460   28.7990  134.1870 C.3   701  ADP701      0.2184
     14  O3'      -42.3610   30.0040  133.8520 O.3   701  ADP701     -0.2174
     15  C2'      -42.5860   27.7810  134.9210 C.3   701  ADP701      0.2570
     16  O2'      -43.9630   27.8830  134.4100 O.3   701  ADP701     -0.2130
     17  C1'      -41.9550   26.4370  134.5230 C.3   701  ADP701      0.3186
     18  N9       -41.1300   25.7780  135.6420 N.pl3 701  ADP701     -0.1439
     19  C8       -39.8320   25.4790  135.6360 C.3   701  ADP701      0.3377
     20  N7       -39.4370   24.9190  136.7300 N.2   701  ADP701     -0.2095
     21  C5       -40.5850   24.8520  137.5200 C.2   701  ADP701      0.2526
     22  C6       -40.8750   24.3250  138.8560 C.2   701  ADP701      0.4393
     23  N6       -39.9210   23.7500  139.6480 N.pl3 701  ADP701      0.2180
     24  N1       -42.1520   24.4420  139.3230 N.2   701  ADP701      0.0021
     25  C2       -43.1000   24.9890  138.5480 C.3   701  ADP701      0.5254
     26  N3       -42.9270   25.5060  137.3060 N.2   701  ADP701     -0.0055
     27  C4       -41.6470   25.3870  136.8420 C.2   701  ADP701      0.3518
@<TRIPOS>BOND
     1     3     1    2
     2     4     1    1
     3     1     8    1
     4     1     2    1
     5     8     5    1
     6    10    11    1
     7    10     9    1
     8     5     7    2
     9     5     9    1
    10     5     6    1
    11    11    12    1
    12    11    13    1
    13    12    17    1
    14    14    13    1
    15    13    15    1
    16    16    15    1
    17    17    15    1
    18    17    18    1
    19    19    18    1
    20    19    20    1
    21    18    27    1
    22    20    21    2
    23    27    26    2
    24    27    21    1
    25    26    25    1
    26    21    22    1
    27    25    24    1
    28    22    24    2
    29    22    23    1
