@<TRIPOS>MOLECULE
1gkl_FER_A_1.pdb
 14 14 0 0 0
SMALL
GASTEIGER

@<TRIPOS>ATOM
      1  C4        11.9650  113.4570   16.4030 C.ar  3086  FER3086     0.2293
      2  C5        11.5670  114.7000   15.9410 C.ar  3086  FER3086     0.0452
      3  C6        10.7060  114.7930   14.8500 C.ar  3086  FER3086     0.0035
      4  C3        11.5170  112.3180   15.7710 C.ar  3086  FER3086     0.1774
      5  C2        10.6570  112.4040   14.6750 C.ar  3086  FER3086     0.0402
      6  C1        10.2390  113.6370   14.2150 C.ar  3086  FER3086     0.0034
      7  C10       11.6000  109.9370   15.6340 C.3   3086  FER3086     0.2526
      8  C7         9.3120  113.6590   13.0660 C.2   3086  FER3086     0.0069
      9  C8         8.8160  114.7840   12.5120 C.2   3086  FER3086     0.0861
     10  C9         7.8730  114.7460   11.3550 C.2   3086  FER3086     0.3880
     11  O1         7.4960  113.6740   10.8480 O.co2 3086  FER3086    -0.2405
     12  O2         7.4860  115.8570   10.9440 O.co2 3086  FER3086    -0.2405
     13  O4        12.8190  113.3250   17.4850 O.3   3086  FER3086    -0.2833
     14  O3        11.9590  111.1360   16.3130 O.3   3086  FER3086    -0.4682
@<TRIPOS>BOND
     1    11    10   ar
     2    12    10   ar
     3    10     9    1
     4     9     8    2
     5     8     6    1
     6     6     5   ar
     7     6     3   ar
     8     5     4   ar
     9     3     2   ar
    10     7    14    1
    11     4    14    1
    12     4     1   ar
    13     2     1   ar
    14     1    13    1
