@<TRIPOS>MOLECULE
1gks_HEM_A_1.pdb
 43 50 0 0 0
SMALL
GASTEIGER

@<TRIPOS>ATOM
      1 FE         -1.7570   -3.6370    1.8250 Fe      0  HEM0        0.0000
      2  CHA       -2.2690   -5.3640   -1.0780 C.2     0  HEM0        0.0000
      3  CHB       -1.5550   -0.7150    0.0550 C.2     0  HEM0        0.0000
      4  CHC       -1.6800   -1.9130    4.7520 C.2     0  HEM0        0.0000
      5  CHD       -1.7790   -6.6250    3.5620 C.2     0  HEM0        0.0000
      6  NA        -1.8310   -3.1500   -0.1070 N.ar    0  HEM0        0.0000
      7  C1A       -2.0840   -3.9970   -1.1670 C.ar    0  HEM0        0.0000
      8  C2A       -2.1690   -3.2650   -2.3970 C.ar    0  HEM0        0.0000
      9  C3A       -1.8960   -1.9690   -2.0960 C.ar    0  HEM0        0.0000
     10  C4A       -1.7310   -1.8920   -0.6630 C.ar    0  HEM0        0.0000
     11  CMA       -1.8250   -0.7940   -3.0250 C.3     0  HEM0        0.0000
     12  CAA       -2.5390   -3.8730   -3.7270 C.3     0  HEM0        0.0000
     13  CBA       -3.9960   -3.6020   -4.1160 C.3     0  HEM0        0.0000
     14  CGA       -4.4230   -4.3130   -5.3950 C.2     0  HEM0        0.0000
     15  O1A       -4.0020   -5.4490   -5.6030 O.co2   0  HEM0        0.0000
     16  O2A       -5.1870   -3.7210   -6.1540 O.co2   0  HEM0        0.0000
     17  NB        -1.5520   -1.7030    2.3110 N.2     0  HEM0        0.0000
     18  C1B       -1.4590   -0.6310    1.4420 C.2     0  HEM0        0.0000
     19  C2B       -1.2770    0.5960    2.1820 C.2     0  HEM0        0.0000
     20  C3B       -1.3310    0.2750    3.5030 C.2     0  HEM0        0.0000
     21  C4B       -1.5330   -1.1650    3.5830 C.2     0  HEM0        0.0000
     22  CMB       -1.0890    1.9580    1.5610 C.3     0  HEM0        0.0000
     23  CAB       -1.2210    1.2270    4.6710 C.3     0  HEM0        0.0000
     24  CBB       -2.3320    2.2860    4.6430 C.3     0  HEM0        0.0000
     25  NC        -1.7450   -4.1660    3.7610 N.ar    0  HEM0        0.0000
     26  C1C       -1.7570   -3.3010    4.8350 C.ar    0  HEM0        0.0000
     27  C2C       -1.7930   -4.0440    6.0740 C.ar    0  HEM0        0.0000
     28  C3C       -1.6900   -5.3630    5.7560 C.ar    0  HEM0        0.0000
     29  C4C       -1.7250   -5.4430    4.3040 C.ar    0  HEM0        0.0000
     30  CMC       -1.8630   -3.4050    7.4350 C.3     0  HEM0        0.0000
     31  CAC       -1.5370   -6.5370    6.7020 C.3     0  HEM0        0.0000
     32  CBC       -2.8120   -6.8960    7.4730 C.3     0  HEM0        0.0000
     33  ND        -1.9440   -5.5970    1.3410 N.2     0  HEM0        0.0000
     34  C1D       -1.9080   -6.6990    2.1760 C.2     0  HEM0        0.0000
     35  C2D       -2.1670   -7.9160    1.4180 C.2     0  HEM0        0.0000
     36  C3D       -2.4760   -7.5170    0.1520 C.2     0  HEM0        0.0000
     37  C4D       -2.2270   -6.1030    0.0930 C.2     0  HEM0        0.0000
     38  CMD       -2.1640   -9.3120    1.9910 C.3     0  HEM0        0.0000
     39  CAD       -2.9960   -8.2760   -1.0460 C.3     0  HEM0        0.0000
     40  CBD       -3.1410   -9.7870   -0.9660 C.3     0  HEM0        0.0000
     41  CGD       -3.8850  -10.2840   -2.1950 C.2     0  HEM0        0.0000
     42  O1D       -4.9730  -10.8320   -2.0400 O.co2   0  HEM0        0.0000
     43  O2D       -3.3840  -10.0640   -3.2960 O.co2   0  HEM0        0.0000
@<TRIPOS>BOND
     1    16    14   ar
     2    15    14   ar
     3    14    13    1
     4    13    12    1
     5    12     8    1
     6    43    41   ar
     7    11     9    1
     8     8     9   ar
     9     8     7   ar
    10    41    42   ar
    11    41    40    1
    12     9    10   ar
    13     7     2    2
    14     7     6   ar
    15     2    37    1
    16    39    40    1
    17    39    36    1
    18    10     6   ar
    19    10     3    2
    20     6     1    1
    21     3    18    1
    22    37    36    1
    23    37    33    2
    24    36    35    2
    25    33     1    1
    26    33    34    1
    27    35    38    1
    28    35    34    1
    29    18    19    1
    30    18    17    2
    31    22    19    1
    32     1    17    1
    33     1    25    1
    34    34     5    2
    35    19    20    2
    36    17    21    1
    37    20    21    1
    38    20    23    1
    39     5    29    1
    40    21     4    2
    41    25    29   ar
    42    25    26   ar
    43    29    28   ar
    44    24    23    1
    45     4    26    1
    46    26    27   ar
    47    28    27   ar
    48    28    31    1
    49    27    30    1
    50    31    32    1
