@<TRIPOS>MOLECULE
1gky_5GP_A_1.pdb
 24 26 0 0 0
SMALL
GASTEIGER

@<TRIPOS>ATOM
      1  P         29.8750   44.4880   69.8230 P.3   187  5GP187      0.5327
      2  O1P       30.3190   45.0040   71.0730 O.3   187  5GP187     -0.1145
      3  O2P       28.5260   44.8880   69.1430 O.3   187  5GP187     -0.1145
      4  O3P       30.7640   44.6170   68.7020 O.2   187  5GP187     -0.2224
      5  O5'       29.6830   43.0160   70.0270 O.3   187  5GP187     -0.2675
      6  C5'       30.7400   42.2970   70.8370 C.3   187  5GP187      0.1859
      7  C4'       30.6770   40.7470   70.7700 C.3   187  5GP187      0.1801
      8  O4'       29.6080   40.1600   71.5990 O.3   187  5GP187     -0.3326
      9  C3'       30.5470   40.1210   69.3520 C.3   187  5GP187      0.2158
     10  O3'       31.2280   38.8640   69.4160 O.3   187  5GP187     -0.2175
     11  C2'       29.0310   39.8710   69.2480 C.3   187  5GP187      0.2310
     12  O2'       28.6850   38.6900   68.4960 O.3   187  5GP187     -0.2158
     13  C1'       28.6340   39.6410   70.6880 C.3   187  5GP187      0.2293
     14  N9        27.2380   39.5250   71.0760 N.pl3 187  5GP187     -0.2354
     15  C8        26.3300   40.5350   70.8520 C.3   187  5GP187      0.2246
     16  N7        25.1750   40.3140   71.4170 N.2   187  5GP187     -0.2322
     17  C5        25.2780   39.0820   72.0700 C.2   187  5GP187      0.2182
     18  C6        24.3260   38.3540   72.8270 C.1   187  5GP187      0.2372
     19  O6        23.1690   38.6780   73.0290 O.2   187  5GP187     -0.2069
     20  N1        24.8360   37.1900   73.2700 N.2   187  5GP187     -0.2485
     21  C2        26.0750   36.7010   73.0010 C.1   187  5GP187      0.2531
     22  N2        26.3610   35.4900   73.5200 N.pl3 187  5GP187     -0.0226
     23  N3        27.0050   37.3530   72.3100 N.2   187  5GP187     -0.3074
     24  C4        26.5830   38.5590   71.8440 C.2   187  5GP187      0.2300
@<TRIPOS>BOND
     1    12    11    1
     2     4     1    2
     3     3     1    1
     4    11     9    1
     5    11    13    1
     6     9    10    1
     7     9     7    1
     8     1     5    1
     9     1     2    1
    10     5     6    1
    11    13    14    1
    12    13     8    1
    13     7     6    1
    14     7     8    1
    15    15    14    1
    16    15    16    1
    17    14    24    1
    18    16    17    2
    19    24    17    1
    20    24    23    2
    21    17    18    1
    22    23    21    2
    23    18    19    2
    24    18    20    2
    25    21    20    2
    26    21    22    1
