@<TRIPOS>MOLECULE
1gkz_ADP_A_1.pdb
 27 29 0 0 0
SMALL
GASTEIGER

@<TRIPOS>ATOM
      1  PB        95.8590  123.7770   32.2530 P.3   601  ADP601      0.5373
      2  O1B       96.1960  123.8220   30.8000 O.2   601  ADP601     -0.2221
      3  O2B       95.2180  122.5240   32.7790 O.3   601  ADP601     -0.1143
      4  O3B       94.9760  124.8370   32.8370 O.3   601  ADP601     -0.1143
      5  PA        98.2800  123.0980   33.7170 P.3   601  ADP601      0.2231
      6  O1A       97.5960  122.2590   34.7050 O.3   601  ADP601     -0.4370
      7  O2A       99.3830  123.9160   34.1390 O.2   601  ADP601     -0.5169
      8  O3A       97.2480  124.0660   32.9850 O.3   601  ADP601     -0.2261
      9  O5'       98.6100  122.1210   32.4910 O.3   601  ADP601     -0.3111
     10  C5'       99.5140  122.4930   31.4450 C.3   601  ADP601      0.1813
     11  C4'       99.3320  121.5800   30.2480 C.3   601  ADP601      0.1821
     12  O4'      100.0660  120.3450   30.4830 O.3   601  ADP601     -0.3135
     13  C3'       97.9170  121.0950   29.9660 C.3   601  ADP601      0.2184
     14  O3'       97.1890  122.0900   29.2550 O.3   601  ADP601     -0.2174
     15  C2'       98.1890  119.8430   29.1280 C.3   601  ADP601      0.2570
     16  O2'       98.7090  120.1120   27.8240 O.3   601  ADP601     -0.2130
     17  C1'       99.3690  119.2540   29.8910 C.3   601  ADP601      0.3186
     18  N9        99.0610  118.2410   30.9060 N.pl3 601  ADP601     -0.1439
     19  C8        99.0510  118.3500   32.2830 C.3   601  ADP601      0.3377
     20  N7        98.8260  117.2030   32.8970 N.2   601  ADP601     -0.2095
     21  C5        98.6490  116.2990   31.8630 C.2   601  ADP601      0.2526
     22  C6        98.3960  114.9430   31.8650 C.2   601  ADP601      0.4393
     23  N6        98.2230  114.2720   32.9870 N.pl3 601  ADP601      0.2180
     24  N1        98.2990  114.2930   30.6600 N.2   601  ADP601      0.0021
     25  C2        98.4030  115.0110   29.5530 C.3   601  ADP601      0.5254
     26  N3        98.6300  116.3350   29.4240 N.2   601  ADP601     -0.0055
     27  C4        98.7610  116.9190   30.6350 C.2   601  ADP601      0.3518
@<TRIPOS>BOND
     1    16    15    1
     2    15    17    1
     3    15    13    1
     4    14    13    1
     5    26    25    1
     6    26    27    2
     7    25    24    1
     8    17    12    1
     9    17    18    1
    10    13    11    1
    11    11    12    1
    12    11    10    1
    13    27    18    1
    14    27    21    1
    15    24    22    2
    16     2     1    2
    17    18    19    1
    18    10     9    1
    19    21    22    1
    20    21    20    2
    21    22    23    1
    22     1     3    1
    23     1     4    1
    24     1     8    1
    25    19    20    1
    26     9     5    1
    27     8     5    1
    28     5     7    2
    29     5     6    1
