@<TRIPOS>MOLECULE
1gl3_NDP_A_1.pdb
 48 52 0 0 0
SMALL
GASTEIGER

@<TRIPOS>ATOM
      1  PA        -1.1860   52.0020   12.5270 P.3   601  NDP601      0.2189
      2  O1A       -0.0440   52.5310   13.3030 O.3   601  NDP601     -0.4371
      3  O2A       -2.5620   52.2290   13.0330 O.2   601  NDP601     -0.5170
      4  O5B       -1.0590   52.4760   10.9980 O.3   601  NDP601     -0.3112
      5  C5B       -2.1310   52.2500   10.0680 C.3   601  NDP601      0.1813
      6  C4B       -2.7270   53.5280    9.5090 C.3   601  NDP601      0.1820
      7  O4B       -3.0910   54.4260   10.5580 O.3   601  NDP601     -0.3136
      8  C3B       -1.7960   54.3350    8.6430 C.3   601  NDP601      0.2157
      9  O3B       -1.5820   53.7880    7.3470 O.3   601  NDP601     -0.2175
     10  C2B       -2.4650   55.7150    8.6980 C.3   601  NDP601      0.2314
     11  O2B       -3.4670   55.9920    7.6930 O.3   601  NDP601     -0.2630
     12  C1B       -3.1310   55.7790   10.0820 C.3   601  NDP601      0.3158
     13  N9A       -2.5950   56.7030   11.1400 N.pl3 601  NDP601     -0.1439
     14  C8A       -3.3840   57.5350   11.8510 C.3   601  NDP601      0.3377
     15  N7A       -2.7000   58.3010   12.7160 N.2   601  NDP601     -0.2095
     16  C5A       -1.4510   57.9110   12.5140 C.2   601  NDP601      0.2526
     17  C6A       -0.3040   58.4080   13.1530 C.2   601  NDP601      0.4393
     18  N6A       -0.3960   59.3530   14.0850 N.pl3 601  NDP601      0.2180
     19  N1A        0.9100   57.8790   12.8020 N.2   601  NDP601      0.0021
     20  C2A        1.0290   56.9070   11.8700 C.3   601  NDP601      0.5254
     21  N3A       -0.0830   56.4400   11.2590 N.2   601  NDP601     -0.0055
     22  C4A       -1.3330   56.9150   11.5490 C.2   601  NDP601      0.3518
     23  O3        -1.0120   50.4170   12.3430 O.3   601  NDP601     -0.2703
     24  PN         0.1720   49.3590   12.5680 P.3   601  NDP601      0.2189
     25  O1N        0.2990   49.1370   14.0260 O.3   601  NDP601     -0.4371
     26  O2N        1.3750   49.7410   11.7980 O.2   601  NDP601     -0.5170
     27  O5D       -0.4430   48.0120   11.9580 O.3   601  NDP601     -0.3112
     28  C5D       -1.0740   47.7990   10.6760 C.3   601  NDP601      0.1813
     29  C4D       -1.5500   46.3470   10.5110 C.3   601  NDP601      0.1799
     30  O4D       -0.4420   45.4860   10.8460 O.3   601  NDP601     -0.3327
     31  C3D       -2.6730   45.8980   11.4550 C.3   601  NDP601      0.2158
     32  O3D       -3.5870   45.0300   10.7790 O.3   601  NDP601     -0.2175
     33  C2D       -1.9930   45.2080   12.6400 C.3   601  NDP601      0.2309
     34  O2D       -2.7790   44.3340   13.4700 O.3   601  NDP601     -0.2158
     35  C1D       -0.7920   44.5670   11.9250 C.3   601  NDP601      0.2263
     36  N1N        0.4380   44.3340   12.7420 N.pl3 601  NDP601     -0.2787
     37  C2N        0.9050   45.2710   13.7250 C.3   601  NDP601      0.1244
     38  C3N        2.1240   45.0670   14.3950 C.2   601  NDP601      0.0544
     39  C7N        2.6290   46.1010   15.4310 C.2   601  NDP601      0.2818
     40  O7N        3.5970   45.8580   16.1530 O.2   601  NDP601     -0.2670
     41  N7N        1.9830   47.2690   15.4900 N.am  601  NDP601     -0.0839
     42  C4N        2.8580   43.8950   14.0560 C.2   601  NDP601      0.0033
     43  C5N        2.4200   42.9440   13.0970 C.2   601  NDP601      0.0157
     44  C6N        1.1990   43.1670   12.4360 C.2   601  NDP601      0.0633
     45  P2B       -3.1020   56.7660    6.3050 P.3   601  NDP601      0.5328
     46  O1X       -1.6440   57.1920    6.3660 O.3   601  NDP601     -0.1145
     47  O2X       -3.3810   55.7520    5.2020 O.2   601  NDP601     -0.2224
     48  O3X       -4.0310   57.9680    6.2420 O.3   601  NDP601     -0.1145
@<TRIPOS>BOND
     1    47    45    2
     2    48    45    1
     3    45    46    1
     4    45    11    1
     5     9     8    1
     6    11    10    1
     7     8    10    1
     8     8     6    1
     9    10    12    1
    10     6     5    1
    11     6     7    1
    12     5     4    1
    13    12     7    1
    14    12    13    1
    15    29    28    1
    16    29    30    1
    17    29    31    1
    18    28    27    1
    19    32    31    1
    20    30    35    1
    21     4     1    1
    22    13    22    1
    23    13    14    1
    24    21    22    2
    25    21    20    1
    26    31    33    1
    27    22    16    1
    28    26    24    2
    29    14    15    1
    30    20    19    1
    31    35    33    1
    32    35    36    1
    33    27    24    1
    34    23     1    1
    35    23    24    1
    36    44    36    1
    37    44    43    2
    38    16    15    2
    39    16    17    1
    40     1     3    2
    41     1     2    1
    42    24    25    1
    43    33    34    1
    44    36    37    1
    45    19    17    2
    46    43    42    1
    47    17    18    1
    48    37    38    1
    49    42    38    2
    50    38    39    1
    51    39    41   am
    52    39    40    2
