@<TRIPOS>MOLECULE
1gl6_GNP_A_1.pdb
 32 34 0 0 0
SMALL
GASTEIGER

@<TRIPOS>ATOM
      1  PG       -37.9850   31.0210  134.9940 P.3   701  GNP701      0.4884
      2  O1G      -37.2890   31.1880  136.3050 O.3   701  GNP701     -0.1240
      3  O2G      -38.0840   32.3730  134.3160 O.2   701  GNP701     -0.2331
      4  O3G      -39.3340   30.3950  135.0980 O.3   701  GNP701     -0.1240
      5  N3B      -36.8820   29.9990  134.1240 N.3   701  GNP701     -0.0163
      6  PB       -37.1610   29.4670  132.5420 P.3   701  GNP701      0.4669
      7  O1B      -37.2870   30.5930  131.6250 O.2   701  GNP701     -0.2351
      8  O2B      -36.1120   28.4460  132.2400 O.3   701  GNP701     -0.1253
      9  O3A      -38.5970   28.7280  132.6490 O.3   701  GNP701     -0.2360
     10  PA       -38.8700   27.2880  133.0880 P.3   701  GNP701      0.2220
     11  O1A      -38.2770   26.3780  132.1150 O.2   701  GNP701     -0.5170
     12  O2A      -38.4570   27.2300  134.5420 O.3   701  GNP701     -0.4370
     13  O5'      -40.3610   27.1290  132.9970 O.3   701  GNP701     -0.3111
     14  C5'      -41.2680   27.8640  133.8160 C.3   701  GNP701      0.1813
     15  C4'      -42.5940   27.2230  133.7080 C.3   701  GNP701      0.1799
     16  O4'      -42.7500   25.9420  134.2020 O.3   701  GNP701     -0.3326
     17  C3'      -43.7270   28.0730  134.3330 C.3   701  GNP701      0.2158
     18  O3'      -44.3420   28.9460  133.3760 O.3   701  GNP701     -0.2175
     19  C2'      -44.7230   27.0490  134.8900 C.3   701  GNP701      0.2310
     20  O2'      -45.8350   26.8440  134.0690 O.3   701  GNP701     -0.2158
     21  C1'      -43.8890   25.8060  135.0290 C.3   701  GNP701      0.2293
     22  N9       -43.5640   25.5160  136.4970 N.pl3 701  GNP701     -0.2354
     23  C8       -42.2300   25.1030  136.9290 C.3   701  GNP701      0.2246
     24  N7       -42.1750   24.9120  138.2250 N.2   701  GNP701     -0.2322
     25  C5       -43.5300   25.2090  138.7030 C.2   701  GNP701      0.2182
     26  C6       -44.0500   25.1650  140.0780 C.1   701  GNP701      0.2372
     27  O6       -43.5120   24.8890  141.0800 O.2   701  GNP701     -0.2069
     28  N1       -45.3710   25.5100  140.1040 N.2   701  GNP701     -0.2485
     29  C2       -46.0020   25.8320  138.9190 C.1   701  GNP701      0.2531
     30  N2       -47.3430   26.1530  139.2060 N.pl3 701  GNP701     -0.0226
     31  N3       -45.6420   25.9030  137.6780 N.2   701  GNP701     -0.3074
     32  C4       -44.3330   25.5550  137.6350 C.2   701  GNP701      0.2300
@<TRIPOS>BOND
     1     7     6    2
     2    11    10    2
     3     8     6    1
     4     6     9    1
     5     6     5    1
     6     9    10    1
     7    13    10    1
     8    13    14    1
     9    10    12    1
    10    18    17    1
    11    15    14    1
    12    15    16    1
    13    15    17    1
    14    20    19    1
    15     5     1    1
    16    16    21    1
    17     3     1    2
    18    17    19    1
    19    19    21    1
    20     1     4    1
    21     1     2    1
    22    21    22    1
    23    22    23    1
    24    22    32    1
    25    23    24    1
    26    32    31    2
    27    32    25    1
    28    31    29    2
    29    24    25    2
    30    25    26    1
    31    29    30    1
    32    29    28    2
    33    26    28    2
    34    26    27    2
