@<TRIPOS>MOLECULE
1gl7_ANP_A_1.pdb
 31 33 0 0 0
SMALL
GASTEIGER

@<TRIPOS>ATOM
      1  PG       -38.2330   30.5030  135.1930 P.3   701  ANP701      0.4884
      2  O1G      -37.3400   30.7930  136.3650 O.3   701  ANP701     -0.1240
      3  O2G      -38.7450   31.8170  134.6300 O.2   701  ANP701     -0.2331
      4  O3G      -39.3770   29.6180  135.5330 O.3   701  ANP701     -0.1240
      5  PB       -37.5580   29.1670  132.5210 P.3   701  ANP701      0.4669
      6  O1B      -37.8720   30.2670  131.6310 O.2   701  ANP701     -0.2351
      7  O2B      -36.5010   28.2070  132.0730 O.3   701  ANP701     -0.1253
      8  N3B      -37.1200   29.7360  134.0610 N.3   701  ANP701     -0.0163
      9  PA       -39.0290   26.9490  133.4380 P.3   701  ANP701      0.2220
     10  O1A      -38.4990   25.9640  132.5020 O.2   701  ANP701     -0.5170
     11  O2A      -38.4650   27.0140  134.8460 O.3   701  ANP701     -0.4370
     12  O3A      -38.8990   28.3550  132.8500 O.3   701  ANP701     -0.2360
     13  O5'      -40.5180   26.7680  133.5270 O.3   701  ANP701     -0.3111
     14  C5'      -41.2570   27.6260  134.3840 C.3   701  ANP701      0.1813
     15  C4'      -42.6650   27.2390  134.4450 C.3   701  ANP701      0.1821
     16  O4'      -42.9400   25.9340  134.8030 O.3   701  ANP701     -0.3135
     17  C3'      -43.4270   28.1510  135.4290 C.3   701  ANP701      0.2184
     18  O3'      -44.0820   29.2290  134.7340 O.3   701  ANP701     -0.2174
     19  C2'      -44.4280   27.2130  136.1320 C.3   701  ANP701      0.2570
     20  O2'      -45.7290   27.2940  135.6340 O.3   701  ANP701     -0.2130
     21  C1'      -43.8200   25.8540  135.9060 C.3   701  ANP701      0.3186
     22  N9       -43.1080   25.3530  137.1410 N.pl3 701  ANP701     -0.1439
     23  C8       -41.6520   25.1860  137.2700 C.3   701  ANP701      0.3377
     24  N7       -41.3500   24.7290  138.4660 N.2   701  ANP701     -0.2095
     25  C5       -42.6620   24.5780  139.1630 C.2   701  ANP701      0.2526
     26  C6       -42.9640   24.1070  140.5310 C.2   701  ANP701      0.4393
     27  N6       -42.0770   23.6530  141.5570 N.pl3 701  ANP701      0.2180
     28  N1       -44.3350   24.1330  140.7810 N.2   701  ANP701      0.0021
     29  C2       -45.1970   24.5640  139.7930 C.3   701  ANP701      0.5254
     30  N3       -45.0250   24.9860  138.5880 N.2   701  ANP701     -0.0055
     31  C4       -43.6670   24.9710  138.3250 C.2   701  ANP701      0.3518
@<TRIPOS>BOND
     1     6     5    2
     2     7     5    1
     3    10     9    2
     4     5    12    1
     5     5     8    1
     6    12     9    1
     7     9    13    1
     8     9    11    1
     9    13    14    1
    10     8     1    1
    11    14    15    1
    12    15    16    1
    13    15    17    1
    14     3     1    2
    15    18    17    1
    16    16    21    1
    17     1     4    1
    18     1     2    1
    19    17    19    1
    20    20    19    1
    21    21    19    1
    22    21    22    1
    23    22    23    1
    24    22    31    1
    25    23    24    1
    26    31    30    2
    27    31    25    1
    28    24    25    2
    29    30    29    1
    30    25    26    1
    31    29    28    1
    32    26    28    2
    33    26    27    1
