@<TRIPOS>MOLECULE
1gl9_ANP_B_1.pdb
 31 33 0 0 0
SMALL
GASTEIGER

@<TRIPOS>ATOM
      1  PG       249.7720   -8.0370  -25.3010 P.3   2055  ANP2055     0.4884
      2  O1G      249.7790   -9.1510  -26.3300 O.2   2055  ANP2055    -0.2331
      3  O2G      248.7470   -8.2060  -24.1950 O.3   2055  ANP2055    -0.1240
      4  O3G      251.1370   -7.6340  -24.7940 O.3   2055  ANP2055    -0.1240
      5  PB       247.8050   -6.0670  -26.3590 P.3   2055  ANP2055     0.4669
      6  O1B      246.9120   -7.2590  -26.4180 O.2   2055  ANP2055    -0.2351
      7  O2B      247.3200   -5.1020  -25.3820 O.3   2055  ANP2055    -0.1253
      8  N3B      249.2440   -6.6860  -26.1730 N.3   2055  ANP2055    -0.0163
      9  PA       248.1610   -4.5310  -28.9790 P.3   2055  ANP2055     0.2220
     10  O1A      247.6620   -3.1240  -29.0000 O.2   2055  ANP2055    -0.5170
     11  O2A      249.6750   -4.6440  -28.9010 O.3   2055  ANP2055    -0.4370
     12  O3A      247.4820   -5.3260  -27.7870 O.3   2055  ANP2055    -0.2360
     13  O5'      247.5720   -5.3440  -30.2220 O.3   2055  ANP2055    -0.3111
     14  C5'      248.2400   -6.5760  -30.3700 C.3   2055  ANP2055     0.1813
     15  C4'      247.9810   -7.0830  -31.7970 C.3   2055  ANP2055     0.1821
     16  O4'      246.6240   -7.4380  -31.8360 O.3   2055  ANP2055    -0.3135
     17  C3'      248.0550   -6.0600  -32.9110 C.3   2055  ANP2055     0.2184
     18  O3'      248.5540   -6.7660  -34.0160 O.3   2055  ANP2055    -0.2174
     19  C2'      246.6090   -5.7610  -33.2530 C.3   2055  ANP2055     0.2570
     20  O2'      246.0850   -4.5650  -32.7490 O.3   2055  ANP2055    -0.2130
     21  C1'      245.7800   -6.8660  -32.7850 C.3   2055  ANP2055     0.3186
     22  N9       244.3560   -6.5650  -32.3810 N.pl3 2055  ANP2055    -0.1439
     23  C8       243.9700   -5.8190  -31.3180 C.3   2055  ANP2055     0.3377
     24  N7       242.6430   -5.7940  -31.2020 N.2   2055  ANP2055    -0.2095
     25  C5       242.1800   -6.5640  -32.1900 C.2   2055  ANP2055     0.2526
     26  C6       240.8170   -6.8890  -32.4970 C.2   2055  ANP2055     0.4393
     27  N6       239.8240   -6.3770  -31.7230 N.pl3 2055  ANP2055     0.2180
     28  N1       240.5470   -7.7210  -33.5920 N.2   2055  ANP2055     0.0021
     29  C2       241.6300   -8.1760  -34.2940 C.3   2055  ANP2055     0.5254
     30  N3       242.9190   -7.8730  -34.0060 N.2   2055  ANP2055    -0.0055
     31  C4       243.2440   -7.0590  -32.9530 C.2   2055  ANP2055     0.3518
@<TRIPOS>BOND
     1    29    30    1
     2    29    28    1
     3    18    17    1
     4    30    31    2
     5    28    26    2
     6    19    17    1
     7    19    21    1
     8    19    20    1
     9    31    22    1
    10    31    25    1
    11    17    15    1
    12    21    22    1
    13    21    16    1
    14    26    25    1
    15    26    27    1
    16    22    23    1
    17    25    24    2
    18    16    15    1
    19    15    14    1
    20    23    24    1
    21    14    13    1
    22    13     9    1
    23    10     9    2
    24     9    11    1
    25     9    12    1
    26    12     5    1
    27     6     5    2
    28     5     8    1
    29     5     7    1
    30     2     1    2
    31     8     1    1
    32     1     4    1
    33     1     3    1
