@<TRIPOS>MOLECULE
1glb_ADP_G_1.pdb
 27 29 0 0 0
SMALL
GASTEIGER

@<TRIPOS>ATOM
      1  PB        20.7380   50.6060   11.8580 P.3   502  ADP502      0.5373
      2  O1B       19.6480   49.6800   11.5660 O.3   502  ADP502     -0.1143
      3  O2B       21.8140   50.1640   12.7530 O.3   502  ADP502     -0.1143
      4  O3B       21.3510   51.0960   10.4560 O.2   502  ADP502     -0.2221
      5  PA        19.3210   52.2060   13.6760 P.3   502  ADP502      0.2231
      6  O1A       19.5510   51.1720   14.7040 O.3   502  ADP502     -0.4370
      7  O2A       19.8000   53.6660   14.2040 O.2   502  ADP502     -0.5169
      8  O3A       20.1860   52.0040   12.3510 O.3   502  ADP502     -0.2261
      9  O5'       17.7700   52.2090   13.2800 O.3   502  ADP502     -0.3111
     10  C5'       17.2760   53.0010   12.1890 C.3   502  ADP502      0.1813
     11  C4'       16.0540   52.3190   11.6430 C.3   502  ADP502      0.1821
     12  O4'       15.0050   52.4780   12.5880 O.3   502  ADP502     -0.3135
     13  C3'       15.5960   52.8930   10.3410 C.3   502  ADP502      0.2184
     14  O3'       15.3920   51.7400    9.5130 O.3   502  ADP502     -0.2174
     15  C2'       14.3430   53.6900   10.6970 C.3   502  ADP502      0.2570
     16  O2'       13.3210   53.6100    9.7000 O.3   502  ADP502     -0.2130
     17  C1'       13.8330   52.9590   11.8970 C.3   502  ADP502      0.3186
     18  N9        13.0520   53.8740   12.7750 N.pl3 502  ADP502     -0.1439
     19  C8        13.4440   55.0680   13.3100 C.3   502  ADP502      0.3377
     20  N7        12.5430   55.6290   14.0650 N.2   502  ADP502     -0.2095
     21  C5        11.4690   54.7590   14.0230 C.2   502  ADP502      0.2526
     22  C6        10.2180   54.7890   14.6380 C.2   502  ADP502      0.4393
     23  N6         9.8170   55.8300   15.3530 N.pl3 502  ADP502      0.2180
     24  N1         9.3870   53.7580   14.4380 N.2   502  ADP502      0.0021
     25  C2         9.8050   52.7690   13.6680 C.3   502  ADP502      0.5254
     26  N3        10.9620   52.6190   13.0250 N.2   502  ADP502     -0.0055
     27  C4        11.7720   53.6710   13.2580 C.2   502  ADP502      0.3518
@<TRIPOS>BOND
     1    14    13    1
     2    16    15    1
     3    13    15    1
     4    13    11    1
     5     4     1    2
     6    15    17    1
     7     2     1    1
     8    11    10    1
     9    11    12    1
    10     1     8    1
    11     1     3    1
    12    17    12    1
    13    17    18    1
    14    10     9    1
    15     8     5    1
    16    18    27    1
    17    18    19    1
    18    26    27    2
    19    26    25    1
    20    27    21    1
    21     9     5    1
    22    19    20    1
    23    25    24    1
    24     5     7    2
    25     5     6    1
    26    21    20    2
    27    21    22    1
    28    24    22    2
    29    22    23    1
