@<TRIPOS>MOLECULE
1glc_G3H_G_1.pdb
 10 9 0 0 0
SMALL
GASTEIGER

@<TRIPOS>ATOM
      1  O1        23.8510   41.1670   10.0510 O.3   503  G3H503     -0.2175
      2  C1        24.0400   42.4790    9.5830 C.3   503  G3H503      0.2174
      3  C2        23.8880   43.4370   10.7330 C.3   503  G3H503      0.2147
      4  O2        25.1850   43.8230   11.0720 O.3   503  G3H503     -0.2176
      5  C3        23.1640   44.7270   10.2440 C.3   503  G3H503      0.1892
      6  O1P       23.3150   45.8120   11.1990 O.3   503  G3H503     -0.2674
      7  O2P       22.8160   47.8760    9.7190 O.2   503  G3H503     -0.2224
      8  O3P       20.9430   46.9850   11.1840 O.3   503  G3H503     -0.1145
      9  O4P       22.8550   48.2180   12.1320 O.3   503  G3H503     -0.1145
     10  P         22.4470   47.2280   11.0410 P.3   503  G3H503      0.5327
@<TRIPOS>BOND
     1     2     1    1
     2     2     3    1
     3     7    10    2
     4     5     3    1
     5     5     6    1
     6     3     4    1
     7    10     8    1
     8    10     6    1
     9    10     9    1
