@<TRIPOS>MOLECULE
1glc_ADP_G_1.pdb
 27 29 0 0 0
SMALL
GASTEIGER

@<TRIPOS>ATOM
      1  PB        20.7330   50.9640   11.6370 P.3   504  ADP504      0.5373
      2  O1B       20.4480   49.7430   10.8500 O.3   504  ADP504     -0.1143
      3  O2B       21.8900   50.6280   12.5260 O.3   504  ADP504     -0.1143
      4  O3B       21.0940   52.1340   10.7170 O.2   504  ADP504     -0.2221
      5  PA        19.2420   52.3990   13.6170 P.3   504  ADP504      0.2231
      6  O1A       19.7570   53.8050   13.4630 O.2   504  ADP504     -0.5169
      7  O2A       19.4930   51.6190   14.8900 O.3   504  ADP504     -0.4370
      8  O3A       19.3230   51.2480   12.4400 O.3   504  ADP504     -0.2261
      9  O5'       17.6380   52.5080   13.3900 O.3   504  ADP504     -0.3111
     10  C5'       16.9380   53.2240   12.2890 C.3   504  ADP504      0.1813
     11  C4'       15.6640   52.4800   11.9420 C.3   504  ADP504      0.1821
     12  O4'       14.6100   52.8590   12.8680 O.3   504  ADP504     -0.3135
     13  C3'       15.1710   52.7780   10.5630 C.3   504  ADP504      0.2184
     14  O3'       14.9800   51.5860    9.7820 O.3   504  ADP504     -0.2174
     15  C2'       13.9420   53.6990   10.7780 C.3   504  ADP504      0.2570
     16  O2'       13.2580   54.0200    9.5760 O.3   504  ADP504     -0.2130
     17  C1'       13.5100   53.4200   12.2000 C.3   504  ADP504      0.3186
     18  N9        13.0370   54.5500   12.9950 N.pl3 504  ADP504     -0.1439
     19  C8        13.3560   55.7160   13.5820 C.3   504  ADP504      0.3377
     20  N7        12.4400   56.1870   14.3770 N.2   504  ADP504     -0.2095
     21  C5        11.4540   55.2480   14.3130 C.2   504  ADP504      0.2526
     22  C6        10.2110   55.2150   14.9280 C.2   504  ADP504      0.4393
     23  N6         9.8070   56.2090   15.7150 N.pl3 504  ADP504      0.2180
     24  N1         9.4230   54.1400   14.7190 N.2   504  ADP504      0.0021
     25  C2         9.8590   53.2080   13.8780 C.3   504  ADP504      0.5254
     26  N3        11.0120   53.1700   13.1950 N.2   504  ADP504     -0.0055
     27  C4        11.7930   54.2200   13.5010 C.2   504  ADP504      0.3518
@<TRIPOS>BOND
     1    16    15    1
     2    14    13    1
     3    13    15    1
     4    13    11    1
     5     4     1    2
     6    15    17    1
     7     2     1    1
     8     1     8    1
     9     1     3    1
    10    11    10    1
    11    11    12    1
    12    17    12    1
    13    17    18    1
    14    10     9    1
    15     8     5    1
    16    18    27    1
    17    18    19    1
    18    26    27    2
    19    26    25    1
    20     9     5    1
    21     6     5    2
    22    27    21    1
    23    19    20    1
    24     5     7    1
    25    25    24    1
    26    21    20    2
    27    21    22    1
    28    24    22    2
    29    22    23    1
