@<TRIPOS>MOLECULE
1gld_ADP_G_1.pdb
 27 29 0 0 0
SMALL
GASTEIGER

@<TRIPOS>ATOM
      1  PB        20.8150   51.5000   11.5170 P.3   504  ADP504      0.5373
      2  O1B       20.2910   50.2750   10.8030 O.3   504  ADP504     -0.1143
      3  O2B       21.8010   51.0210   12.5490 O.3   504  ADP504     -0.1143
      4  O3B       21.4850   52.4100   10.5150 O.2   504  ADP504     -0.2221
      5  PA        19.2780   52.4320   13.7540 P.3   504  ADP504      0.2231
      6  O1A       19.5370   53.9110   13.5940 O.2   504  ADP504     -0.5169
      7  O2A       19.6060   51.7410   15.0540 O.3   504  ADP504     -0.4370
      8  O3A       19.6050   52.4400   12.1460 O.3   504  ADP504     -0.2261
      9  O5'       17.7240   52.2990   13.4060 O.3   504  ADP504     -0.3111
     10  C5'       16.9880   53.4370   12.7830 C.3   504  ADP504      0.1813
     11  C4'       15.6420   52.9160   12.3420 C.3   504  ADP504      0.1821
     12  O4'       14.5640   53.4050   13.1740 O.3   504  ADP504     -0.3135
     13  C3'       15.3020   53.2280   10.9400 C.3   504  ADP504      0.2184
     14  O3'       15.0780   52.0220   10.2550 O.3   504  ADP504     -0.2174
     15  C2'       14.0970   54.1780   11.0450 C.3   504  ADP504      0.2570
     16  O2'       13.4450   54.1180    9.7990 O.3   504  ADP504     -0.2130
     17  C1'       13.5160   53.8900   12.3880 C.3   504  ADP504      0.3186
     18  N9        12.9690   55.0030   13.1150 N.pl3 504  ADP504     -0.1439
     19  C8        13.2410   56.1810   13.7300 C.3   504  ADP504      0.3377
     20  N7        12.2770   56.6100   14.5200 N.2   504  ADP504     -0.2095
     21  C5        11.3110   55.6220   14.4320 C.2   504  ADP504      0.2526
     22  C6        10.0350   55.5070   14.9860 C.2   504  ADP504      0.4393
     23  N6         9.4650   56.4610   15.7710 N.pl3 504  ADP504      0.2180
     24  N1         9.2940   54.4310   14.6030 N.2   504  ADP504      0.0021
     25  C2         9.8080   53.5460   13.7500 C.3   504  ADP504      0.5254
     26  N3        11.0080   53.5250   13.2380 N.2   504  ADP504     -0.0055
     27  C4        11.7300   54.6010   13.6030 C.2   504  ADP504      0.3518
@<TRIPOS>BOND
     1    16    15    1
     2    14    13    1
     3     4     1    2
     4     2     1    1
     5    13    15    1
     6    13    11    1
     7    15    17    1
     8     1     8    1
     9     1     3    1
    10     8     5    1
    11    11    10    1
    12    11    12    1
    13    17    18    1
    14    17    12    1
    15    10     9    1
    16    18    27    1
    17    18    19    1
    18    26    27    2
    19    26    25    1
    20     9     5    1
    21     6     5    2
    22    27    21    1
    23    19    20    1
    24    25    24    1
    25     5     7    1
    26    21    20    2
    27    21    22    1
    28    24    22    2
    29    22    23    1
