@<TRIPOS>MOLECULE
1gld_G3H_G_1.pdb
 10 9 0 0 0
SMALL
GASTEIGER

@<TRIPOS>ATOM
      1  O1        23.6310   41.7540    9.9330 O.3   503  G3H503     -0.2175
      2  C1        24.3480   42.9400    9.8080 C.3   503  G3H503      0.2174
      3  C2        23.8290   43.8370   10.8940 C.3   503  G3H503      0.2147
      4  O2        24.9290   44.1750   11.7000 O.3   503  G3H503     -0.2176
      5  C3        23.0500   45.0690   10.3330 C.3   503  G3H503      0.1892
      6  O1P       23.2880   46.1640   11.2050 O.3   503  G3H503     -0.2674
      7  O2P       22.8420   48.1890    9.7380 O.2   503  G3H503     -0.2224
      8  O3P       21.1000   47.4710   11.4110 O.3   503  G3H503     -0.1145
      9  O4P       23.1620   48.5180   12.1480 O.3   503  G3H503     -0.1145
     10  P         22.5680   47.6080   11.1110 P.3   503  G3H503      0.5327
@<TRIPOS>BOND
     1     7    10    2
     2     2     1    1
     3     2     3    1
     4     5     3    1
     5     5     6    1
     6     3     4    1
     7    10     6    1
     8    10     8    1
     9    10     9    1
