@<TRIPOS>MOLECULE
1gle_G3H_G_1.pdb
 10 9 0 0 0
SMALL
GASTEIGER

@<TRIPOS>ATOM
      1  O1        24.1230   41.3640    9.7750 O.3   503  G3H503     -0.2175
      2  C1        24.1170   42.7720    9.4960 C.3   503  G3H503      0.2174
      3  C2        24.0690   43.5920   10.8050 C.3   503  G3H503      0.2147
      4  O2        25.3130   44.2250   11.0950 O.3   503  G3H503     -0.2176
      5  C3        22.9920   44.6450   10.6560 C.3   503  G3H503      0.1892
      6  O1P       23.3820   45.8620   11.2570 O.3   503  G3H503     -0.2674
      7  O2P       22.8880   47.6010    9.4060 O.2   503  G3H503     -0.2224
      8  O3P       21.1140   47.0690   11.1560 O.3   503  G3H503     -0.1145
      9  O4P       23.0660   48.3850   11.7300 O.3   503  G3H503     -0.1145
     10  P         22.5970   47.2430   10.8620 P.3   503  G3H503      0.5327
@<TRIPOS>BOND
     1     7    10    2
     2     2     1    1
     3     2     3    1
     4     5     3    1
     5     5     6    1
     6     3     4    1
     7    10     8    1
     8    10     6    1
     9    10     9    1
