@<TRIPOS>MOLECULE
1gle_ADP_G_1.pdb
 27 29 0 0 0
SMALL
GASTEIGER

@<TRIPOS>ATOM
      1  PB        20.5870   51.0650   11.6200 P.3   504  ADP504      0.5373
      2  O1B       19.6370   50.3320   10.7160 O.2   504  ADP504     -0.2221
      3  O2B       21.1680   50.1010   12.6380 O.3   504  ADP504     -0.1143
      4  O3B       21.6670   51.6390   10.7520 O.3   504  ADP504     -0.1143
      5  PA        19.3040   52.2490   13.8710 P.3   504  ADP504      0.2231
      6  O1A       19.6190   53.7090   14.0090 O.2   504  ADP504     -0.5169
      7  O2A       19.5150   51.3370   15.0530 O.3   504  ADP504     -0.4370
      8  O3A       19.8200   52.3560   12.3140 O.3   504  ADP504     -0.2261
      9  O5'       17.7690   52.2020   13.4150 O.3   504  ADP504     -0.3111
     10  C5'       17.1240   53.2430   12.6050 C.3   504  ADP504      0.1813
     11  C4'       15.7850   52.6670   12.1470 C.3   504  ADP504      0.1821
     12  O4'       14.7430   53.0250   13.0620 O.3   504  ADP504     -0.3135
     13  C3'       15.3120   52.9180   10.7380 C.3   504  ADP504      0.2184
     14  O3'       15.1820   51.6370   10.0460 O.3   504  ADP504     -0.2174
     15  C2'       13.9960   53.7060   10.9400 C.3   504  ADP504      0.2570
     16  O2'       13.3350   53.4930    9.6790 O.3   504  ADP504     -0.2130
     17  C1'       13.5970   53.3980   12.3730 C.3   504  ADP504      0.3186
     18  N9        13.0100   54.4740   13.1640 N.pl3 504  ADP504     -0.1439
     19  C8        13.3460   55.6340   13.7730 C.3   504  ADP504      0.3377
     20  N7        12.4010   56.1210   14.5430 N.2   504  ADP504     -0.2095
     21  C5        11.3640   55.2010   14.4370 C.2   504  ADP504      0.2526
     22  C6        10.0630   55.1230   15.0270 C.2   504  ADP504      0.4393
     23  N6         9.5010   56.0760   15.8090 N.pl3 504  ADP504      0.2180
     24  N1         9.3230   54.0350   14.7320 N.2   504  ADP504      0.0021
     25  C2         9.8040   53.1440   13.8440 C.3   504  ADP504      0.5254
     26  N3        11.0020   53.0850   13.2870 N.2   504  ADP504     -0.0055
     27  C4        11.7540   54.1460   13.6400 C.2   504  ADP504      0.3518
@<TRIPOS>BOND
     1    16    15    1
     2    14    13    1
     3     2     1    2
     4    13    15    1
     5    13    11    1
     6     4     1    1
     7    15    17    1
     8     1     8    1
     9     1     3    1
    10    11    10    1
    11    11    12    1
    12     8     5    1
    13    17    12    1
    14    17    18    1
    15    10     9    1
    16    18    27    1
    17    18    19    1
    18    26    27    2
    19    26    25    1
    20     9     5    1
    21    27    21    1
    22    19    20    1
    23    25    24    1
    24     5     6    2
    25     5     7    1
    26    21    20    2
    27    21    22    1
    28    24    22    2
    29    22    23    1
