@<TRIPOS>MOLECULE
1glf_ADP_O_1.pdb
 27 29 0 0 0
SMALL
GASTEIGER

@<TRIPOS>ATOM
      1  PB         8.6620    6.4860   39.7630 P.3   607  ADP607      0.5373
      2  O1B        7.6530    5.3760   39.7510 O.2   607  ADP607     -0.2221
      3  O2B        8.0630    7.6340   40.5090 O.3   607  ADP607     -0.1143
      4  O3B        9.8400    5.9900   40.4950 O.3   607  ADP607     -0.1143
      5  PA        10.0760    8.2440   38.0070 P.3   607  ADP607      0.2231
      6  O1A       11.5890    8.0870   38.1770 O.2   607  ADP607     -0.5169
      7  O2A        9.4530    9.5820   38.3470 O.3   607  ADP607     -0.4370
      8  O3A        9.1320    6.8900   38.2360 O.3   607  ADP607     -0.2261
      9  O5'        9.8300    8.2330   36.4000 O.3   607  ADP607     -0.3111
     10  C5'       10.2590    7.2760   35.4300 C.3   607  ADP607      0.1813
     11  C4'        9.1900    7.1810   34.3770 C.3   607  ADP607      0.1821
     12  O4'        9.0040    8.4600   33.7380 O.3   607  ADP607     -0.3135
     13  C3'        9.3790    6.1060   33.3270 C.3   607  ADP607      0.2184
     14  O3'        8.2800    5.2430   33.3700 O.3   607  ADP607     -0.2174
     15  C2'        9.3500    6.8520   31.9930 C.3   607  ADP607      0.2570
     16  O2'        9.4850    5.9900   30.7440 O.3   607  ADP607     -0.2130
     17  C1'        9.0340    8.2500   32.3290 C.3   607  ADP607      0.3186
     18  N9        10.0120    9.1660   31.8140 N.pl3 607  ADP607     -0.1439
     19  C8        11.2440    9.7060   31.9010 C.3   607  ADP607      0.3377
     20  N7        11.4650   10.6280   30.9860 N.2   607  ADP607     -0.2095
     21  C5        10.3010   10.6610   30.2340 C.2   607  ADP607      0.2526
     22  C6         9.8950   11.4490   29.1180 C.2   607  ADP607      0.4393
     23  N6        10.6640   12.3400   28.4730 N.pl3 607  ADP607      0.2180
     24  N1         8.6230   11.3080   28.7210 N.2   607  ADP607      0.0021
     25  C2         7.8540   10.3400   29.2750 C.3   607  ADP607      0.5254
     26  N3         8.1340    9.5240   30.2910 N.2   607  ADP607     -0.0055
     27  C4         9.3810    9.7620   30.7490 C.2   607  ADP607      0.3518
@<TRIPOS>BOND
     1    23    22    1
     2    24    22    2
     3    24    25    1
     4    22    21    1
     5    25    26    1
     6    21    27    1
     7    21    20    2
     8    26    27    2
     9    16    15    1
    10    27    18    1
    11    20    19    1
    12    18    19    1
    13    18    17    1
    14    15    17    1
    15    15    13    1
    16    17    12    1
    17    13    14    1
    18    13    11    1
    19    12    11    1
    20    11    10    1
    21    10     9    1
    22     9     5    1
    23     5     6    2
    24     5     8    1
    25     5     7    1
    26     8     1    1
    27     2     1    2
    28     1     4    1
    29     1     3    1
