@<TRIPOS>MOLECULE
1glg_GAL_A_1.pdb
 12 12 0 0 0
SMALL
GASTEIGER

@<TRIPOS>ATOM
      1  C1        36.9390   30.9260   49.7620 C.3   310  GAL310      0.3024
      2  C2        37.1440   30.0100   50.9710 C.3   310  GAL310      0.2434
      3  C3        38.3030   30.5070   51.8170 C.3   310  GAL310      0.2199
      4  C4        39.5590   30.7030   50.9470 C.3   310  GAL310      0.2144
      5  C5        39.2640   31.5410   49.7080 C.3   310  GAL310      0.1836
      6  C6        40.4170   31.5300   48.7380 C.3   310  GAL310      0.2142
      7  O1        35.9570   30.3770   48.9460 O.3   310  GAL310     -0.1869
      8  O2        35.9790   30.0800   51.7750 O.3   310  GAL310     -0.2148
      9  O3        38.6340   29.6420   52.9060 O.3   310  GAL310     -0.2174
     10  O4        39.9650   29.3860   50.5180 O.3   310  GAL310     -0.2176
     11  O5        38.1320   30.9700   49.0000 O.3   310  GAL310     -0.3236
     12  O6        40.1380   32.1680   47.5110 O.3   310  GAL310     -0.2176
@<TRIPOS>BOND
     1    12     6    1
     2     6     5    1
     3     7     1    1
     4    11     5    1
     5    11     1    1
     6     5     4    1
     7     1     2    1
     8    10     4    1
     9     4     3    1
    10     2     8    1
    11     2     3    1
    12     3     9    1
