@<TRIPOS>MOLECULE
1gli_HEM_A_1.pdb
 43 50 0 0 0
SMALL
GASTEIGER

@<TRIPOS>ATOM
      1  CHA        8.6170    7.8790  -18.3610 C.2   142  HEM142      0.0000
      2  CHB       10.3560   10.0050  -14.3190 C.2   142  HEM142      0.0000
      3  CHC        8.3070    6.4560  -11.6690 C.2   142  HEM142      0.0000
      4  CHD        6.9280    4.1450  -15.7250 C.2   142  HEM142      0.0000
      5  C1A        9.2770    8.7700  -17.4860 C.2   142  HEM142      0.0000
      6  C2A       10.0830    9.8980  -17.9020 C.2   142  HEM142      0.0000
      7  C3A       10.5650   10.4930  -16.7810 C.2   142  HEM142      0.0000
      8  C4A       10.0770    9.7230  -15.6650 C.2   142  HEM142      0.0000
      9  CMA       11.5260   11.6600  -16.7230 C.3   142  HEM142      0.0000
     10  CAA       10.3930   10.3370  -19.3130 C.3   142  HEM142      0.0000
     11  CBA        9.3650   11.3410  -19.8150 C.3   142  HEM142      0.0000
     12  CGA        9.6710   11.8420  -21.2110 C.2   142  HEM142      0.0000
     13  O1A        9.8870   11.0560  -22.1360 O.co2 142  HEM142      0.0000
     14  O2A        9.6250   13.0560  -21.4080 O.co2 142  HEM142      0.0000
     15  C1B        9.9460    9.2120  -13.2330 C.ar  142  HEM142      0.0000
     16  C2B       10.3020    9.4470  -11.8620 C.ar  142  HEM142      0.0000
     17  C3B        9.7280    8.4540  -11.1150 C.ar  142  HEM142      0.0000
     18  C4B        9.0220    7.6030  -12.0410 C.ar  142  HEM142      0.0000
     19  CMB       11.0630   10.6600  -11.3720 C.3   142  HEM142      0.0000
     20  CAB        9.5900    8.3960   -9.6380 C.3   142  HEM142      0.0000
     21  CBB       10.6910    8.5960   -8.8300 C.3   142  HEM142      0.0000
     22  C1C        7.7710    5.5090  -12.5610 C.2   142  HEM142      0.0000
     23  C2C        7.2800    4.2060  -12.1500 C.2   142  HEM142      0.0000
     24  C3C        6.8900    3.5550  -13.2900 C.2   142  HEM142      0.0000
     25  C4C        7.1590    4.4440  -14.3900 C.2   142  HEM142      0.0000
     26  CMC        7.1470    3.7270  -10.7230 C.3   142  HEM142      0.0000
     27  CAC        6.4110    2.1470  -13.4710 C.3   142  HEM142      0.0000
     28  CBC        6.7610    1.0830  -12.6430 C.3   142  HEM142      0.0000
     29  C1D        7.2570    4.9830  -16.7970 C.ar  142  HEM142      0.0000
     30  C2D        7.0670    4.6350  -18.1840 C.ar  142  HEM142      0.0000
     31  C3D        7.5140    5.6730  -18.9270 C.ar  142  HEM142      0.0000
     32  C4D        7.9750    6.6840  -17.9910 C.ar  142  HEM142      0.0000
     33  CMD        6.3320    3.4250  -18.7160 C.3   142  HEM142      0.0000
     34  CAD        7.6180    5.6960  -20.4320 C.3   142  HEM142      0.0000
     35  CBD        8.9470    5.1430  -20.9470 C.3   142  HEM142      0.0000
     36  CGD        9.0470    5.1550  -22.4610 C.2   142  HEM142      0.0000
     37  O1D       10.1390    5.4580  -22.9590 O.co2 142  HEM142      0.0000
     38  O2D        8.0960    4.8330  -23.1770 O.co2 142  HEM142      0.0000
     39  NA         9.2970    8.6650  -16.1140 N.2   142  HEM142      0.0000
     40  NB         9.1680    8.0790  -13.3200 N.ar  142  HEM142      0.0000
     41  NC         7.6330    5.6490  -13.9390 N.2   142  HEM142      0.0000
     42  ND         7.7830    6.2490  -16.6970 N.ar  142  HEM142      0.0000
     43 FE          8.1280    7.3710  -15.0220 Fe    142  HEM142      0.0000
@<TRIPOS>BOND
     1    38    36   ar
     2    37    36   ar
     3    36    35    1
     4    13    12   ar
     5    14    12   ar
     6    12    11    1
     7    35    34    1
     8    34    31    1
     9    11    10    1
    10    10     6    1
    11    31    30   ar
    12    31    32   ar
    13    33    30    1
    14     1    32    2
    15     1     5    1
    16    30    29   ar
    17    32    42   ar
    18     6     5    1
    19     6     7    2
    20     5    39    2
    21    29    42   ar
    22    29     4    2
    23     7     9    1
    24     7     8    1
    25    42    43    1
    26    39     8    1
    27    39    43    1
    28     4    25    1
    29     8     2    2
    30    43    41    1
    31    43    40    1
    32    25    41    2
    33    25    24    1
    34     2    15    1
    35    41    22    1
    36    27    24    1
    37    27    28    1
    38    40    15   ar
    39    40    18   ar
    40    24    23    2
    41    15    16   ar
    42    22    23    1
    43    22     3    2
    44    23    26    1
    45    18     3    1
    46    18    17   ar
    47    16    19    1
    48    16    17   ar
    49    17    20    1
    50    20    21    1
