@<TRIPOS>MOLECULE
1glj_ATS_O_1.pdb
 31 32 0 0 0
SMALL
GASTEIGER

@<TRIPOS>ATOM
      1 AS1        35.4290   11.0330   31.0210 As    601  ATS601      0.0000
      2  OG2       34.0510    9.9540   30.9960 O.3   601  ATS601      0.0000
      3  OG3       36.3670   11.0590   29.5790 O.3   601  ATS601      0.0000
      4  OG1       36.3920   10.7860   32.3390 O.3   601  ATS601      0.0000
      5  PA        33.9920   14.5070   34.2540 P.3   601  ATS601      0.0000
      6  O5'       34.6870   15.9340   34.4020 O.3   601  ATS601      0.0000
      7  O11       34.9910   13.4370   34.5030 O.2   601  ATS601     -0.5000
      8  O13       33.3550   14.3470   32.8040 O.3   601  ATS601      0.0000
      9  O12       32.9140   14.4050   35.2620 O.3   601  ATS601     -0.5000
     10  C5'       35.5930   16.3740   33.4240 C.3   601  ATS601      0.0000
     11  C4'       35.0350   17.5480   32.6400 C.3   601  ATS601      0.0000
     12  O4'       34.7080   18.6430   33.5320 O.3   601  ATS601      0.0000
     13  C2'       36.4510   19.4500   32.1990 C.3   601  ATS601      0.0000
     14  O2'       36.6780   20.3540   31.1640 O.3   601  ATS601      0.0000
     15  C3'       35.9570   18.1390   31.5850 C.3   601  ATS601      0.0000
     16  O3'       35.2940   18.3520   30.3610 O.3   601  ATS601      0.0000
     17  C1'       35.2670   19.8700   33.0690 C.3   601  ATS601      0.0000
     18  N9        35.5020   20.6900   34.2760 N.pl3 601  ATS601      0.5000
     19  C4        35.0250   21.9120   34.6800 C.2   601  ATS601      0.0000
     20  N3        34.4140   22.8270   33.9770 N.2   601  ATS601      0.5000
     21  C2        34.2110   23.9370   34.6800 C.3   601  ATS601      0.0000
     22  N1        34.5160   24.2190   35.9290 N.2   601  ATS601      0.5000
     23  C6        35.1480   23.2740   36.6040 C.2   601  ATS601      0.0000
     24  N6        35.4800   23.5280   37.8620 N.pl3 601  ATS601      0.5000
     25  C5        35.4220   22.0610   35.9640 C.2   601  ATS601      0.0000
     26  N7        36.0300   20.9350   36.4100 N.2   601  ATS601      0.0000
     27  C8        36.0010   20.1400   35.3890 C.3   601  ATS601      0.0000
     28  PB        33.3100   12.9710   31.9570 P.3   601  ATS601      0.0000
     29  OB2       32.1970   13.0400   30.8700 O.2   601  ATS601      0.0000
     30  C3B       34.7830   12.8360   31.0670 C.3   601  ATS601      0.0000
     31  OB1       33.0910   11.7120   32.8550 O.3   601  ATS601      0.0000
@<TRIPOS>BOND
     1     3     1    1
     2    16    15    1
     3    29    28    2
     4     2     1    1
     5     1     4    1
     6    30    28    1
     7    14    13    1
     8    15    13    1
     9    15    11    1
    10    28     8    1
    11    28    31    1
    12    13    17    1
    13    11    10    1
    14    11    12    1
    15     8     5    1
    16    17    12    1
    17    17    18    1
    18    10     6    1
    19    20    21    1
    20    20    19    2
    21     5     6    1
    22     5     7    2
    23     5     9    1
    24    18    19    1
    25    18    27    1
    26    21    22    1
    27    19    25    1
    28    27    26    1
    29    22    23    2
    30    25    26    2
    31    25    23    1
    32    23    24    1
