@<TRIPOS>MOLECULE
1gll_ACP_O_1.pdb
 31 33 0 0 0
SMALL
GASTEIGER

@<TRIPOS>ATOM
      1  PG        35.3120   10.8370   30.6520 P.3   601  ACP601      0.1295
      2  O1G       33.8440   10.3540   30.1370 O.3   601  ACP601     -0.3567
      3  O2G       35.7430   10.1160   32.2000 O.3   601  ACP601     -0.3567
      4  O3G       36.5160   10.6430   29.4370 O.2   601  ACP601     -0.4595
      5  PB        33.6530   13.0690   31.7830 P.3   601  ACP601      0.3815
      6  O1B       32.5560   13.0070   30.6640 O.2   601  ACP601     -0.2547
      7  O2B       33.5030   11.9310   32.8390 O.3   601  ACP601     -0.1391
      8  C3B       35.1740   12.7720   30.9170 C.3   601  ACP601      0.1768
      9  PA        34.1490   14.6420   34.0940 P.3   601  ACP601      0.2209
     10  O1A       35.2860   13.6800   34.3470 O.2   601  ACP601     -0.5170
     11  O2A       33.0310   14.3640   35.0370 O.3   601  ACP601     -0.4371
     12  O3A       33.6140   14.4860   32.5740 O.3   601  ACP601     -0.2483
     13  O5'       34.6750   16.1650   34.2210 O.3   601  ACP601     -0.3111
     14  C5'       35.6390   16.5880   33.2770 C.3   601  ACP601      0.1813
     15  C4'       35.1520   17.7990   32.5290 C.3   601  ACP601      0.1821
     16  O4'       34.8530   18.8370   33.4680 O.3   601  ACP601     -0.3135
     17  C3'       36.1430   18.4130   31.5560 C.3   601  ACP601      0.2184
     18  O3'       35.6130   18.3720   30.2280 O.3   601  ACP601     -0.2174
     19  C2'       36.4010   19.8500   32.0560 C.3   601  ACP601      0.2570
     20  O2'       36.4270   20.7620   30.9840 O.3   601  ACP601     -0.2130
     21  C1'       35.2000   20.1010   32.9320 C.3   601  ACP601      0.3186
     22  N9        35.3270   21.0900   34.0340 N.pl3 601  ACP601     -0.1439
     23  C8        35.9170   20.4080   35.0520 C.3   601  ACP601      0.3377
     24  N7        35.9970   21.0760   36.1840 N.2   601  ACP601     -0.2095
     25  C5        35.3740   22.2730   35.9260 C.2   601  ACP601      0.2526
     26  C6        35.1440   23.4360   36.7180 C.2   601  ACP601      0.4393
     27  N6        35.5540   23.6110   37.9880 N.pl3 601  ACP601      0.2180
     28  N1        34.4730   24.4350   36.1390 N.2   601  ACP601      0.0021
     29  C2        34.1180   24.3070   34.8640 C.3   601  ACP601      0.5254
     30  N3        34.2880   23.2850   34.0350 N.2   601  ACP601     -0.0055
     31  C4        34.9260   22.2870   34.6200 C.2   601  ACP601      0.3518
@<TRIPOS>BOND
     1     4     1    2
     2     2     1    1
     3    18    17    1
     4     1     8    1
     5     1     3    1
     6     6     5    2
     7     8     5    1
     8    20    19    1
     9    17    19    1
    10    17    15    1
    11     5    12    1
    12     5     7    1
    13    19    21    1
    14    15    14    1
    15    15    16    1
    16    12     9    1
    17    21    16    1
    18    21    22    1
    19    14    13    1
    20    22    31    1
    21    22    23    1
    22    30    31    2
    23    30    29    1
    24     9    13    1
    25     9    10    2
    26     9    11    1
    27    31    25    1
    28    29    28    1
    29    23    24    1
    30    25    24    2
    31    25    26    1
    32    28    26    2
    33    26    27    1
