@<TRIPOS>MOLECULE
1glm_MAN_A_10.pdb
 11 11 0 0 0
SMALL
GASTEIGER

@<TRIPOS>ATOM
      1  C1        21.4340    2.0560   34.1160 C.3   491  MAN491      0.1777
      2  C2        20.0080    1.7420   34.5810 C.3   491  MAN491      0.2141
      3  C3        19.1120    2.9650   34.4190 C.3   491  MAN491      0.2173
      4  C4        19.7140    4.1920   35.0620 C.3   491  MAN491      0.2142
      5  C5        21.1400    4.4420   34.5650 C.3   491  MAN491      0.1810
      6  C6        21.8540    5.5480   35.3020 C.3   491  MAN491      0.2141
      7  O2        20.0240    1.3300   35.9400 O.3   491  MAN491     -0.2176
      8  O3        17.8600    2.7590   35.0820 O.3   491  MAN491     -0.2175
      9  O4        18.9280    5.3500   34.7300 O.3   491  MAN491     -0.2176
     10  O5        21.8880    3.2190   34.8080 O.3   491  MAN491     -0.3481
     11  O6        21.9460    5.2260   36.7100 O.3   491  MAN491     -0.2176
@<TRIPOS>BOND
     1     1     2    1
     2     1    10    1
     3     3     2    1
     4     3     4    1
     5     3     8    1
     6     5    10    1
     7     5     4    1
     8     5     6    1
     9     2     7    1
    10     9     4    1
    11     6    11    1
