@<TRIPOS>MOLECULE
1glp_GTS_A_1.pdb
 23 22 0 0 0
SMALL
GASTEIGER

@<TRIPOS>ATOM
      1  N1        60.0580   10.4360   10.1510 N.3   210  GTS210     -0.1208
      2  CA1       59.7300    9.0400   10.0890 C.3   210  GTS210      0.1948
      3  C1        59.8560    8.6630    8.6360 C.2   210  GTS210      0.3819
      4  O11       60.0510    7.4930    8.3590 O.co2 210  GTS210     -0.2441
      5  O12       59.8030    9.5490    7.7890 O.co2 210  GTS210     -0.2441
      6  CB1       58.3210    8.8500   10.5820 C.3   210  GTS210      0.0402
      7  CG1       58.0240    7.3640   10.7090 C.3   210  GTS210      0.0889
      8  CD1       56.7520    7.1180   11.4610 C.2   210  GTS210      0.2419
      9  OE1       56.0230    8.0370   11.8450 O.2   210  GTS210     -0.2733
     10  N2        56.5410    5.8370   11.6960 N.am  210  GTS210     -0.1961
     11  CA2       55.3520    5.3770   12.3730 C.3   210  GTS210      0.1924
     12  C2        55.7700    4.4020   13.4230 C.2   210  GTS210      0.2634
     13  O2        56.6870    3.6120   13.1770 O.2   210  GTS210     -0.2714
     14  CB2       54.4160    4.6170   11.4570 C.3   210  GTS210      0.1362
     15  SG2       53.6910    5.5440   10.0760 S.3   210  GTS210     -0.1938
     16  O1S       54.6830    5.8540    9.0820 O.3   210  GTS210     -0.3074
     17  O2S       52.6880    4.6980    9.5130 O.3   210  GTS210     -0.3074
     18  O3S       53.1100    6.7800   10.5270 O.3   210  GTS210     -0.3074
     19  N3        55.0740    4.3940   14.5500 N.am  210  GTS210     -0.1917
     20  CA3       55.3160    3.3320   15.4890 C.3   210  GTS210      0.2285
     21  C3        55.6710    3.8570   16.8410 C.2   210  GTS210      0.3865
     22  O31       55.6930    3.0390   17.7580 O.co2 210  GTS210     -0.2437
     23  O32       55.8910    5.0670   16.9550 O.co2 210  GTS210     -0.2437
@<TRIPOS>BOND
     1     5     3   ar
     2     4     3   ar
     3     3     2    1
     4    16    15    1
     5    17    15    1
     6    15    18    1
     7    15    14    1
     8     2     1    1
     9     2     6    1
    10     6     7    1
    11     7     8    1
    12    14    11    1
    13     8    10   am
    14     8     9    2
    15    10    11    1
    16    11    12    1
    17    13    12    2
    18    12    19   am
    19    19    20    1
    20    20    21    1
    21    21    23   ar
    22    21    22   ar
