@<TRIPOS>MOLECULE
1glq_GTB_A_1.pdb
 30 30 0 0 0
SMALL
GASTEIGER

@<TRIPOS>ATOM
      1  N1        60.2710   10.3730   10.0540 N.3   210  GTB210     -0.1208
      2  CA1       59.8890    9.0110   10.1120 C.3   210  GTB210      0.1948
      3  C1        59.9170    8.6840    8.6190 C.2   210  GTB210      0.3819
      4  O11       60.1810    7.5330    8.2770 O.co2 210  GTB210     -0.2441
      5  O12       59.7360    9.5830    7.7740 O.co2 210  GTB210     -0.2441
      6  CB1       58.5070    8.9020   10.6760 C.3   210  GTB210      0.0402
      7  CG1       58.1350    7.4420   10.8010 C.3   210  GTB210      0.0889
      8  CD1       56.8070    7.1960   11.4700 C.2   210  GTB210      0.2418
      9  OE1       56.0640    8.1030   11.8410 O.2   210  GTB210     -0.2733
     10  N2        56.6660    5.9050   11.7150 N.am  210  GTB210     -0.1969
     11  CA2       55.4590    5.3220   12.2760 C.3   210  GTB210      0.1834
     12  C2        55.8100    4.3740   13.3860 C.2   210  GTB210      0.2626
     13  O2        56.7760    3.6310   13.1970 O.2   210  GTB210     -0.2714
     14  CB2       54.7080    4.5330   11.1980 C.3   210  GTB210      0.0889
     15  SG2       54.0370    5.5530    9.8410 S.3   210  GTB210     -0.1331
     16  N3        55.0640    4.3310   14.4860 N.am  210  GTB210     -0.1917
     17  CA3       55.3080    3.2900   15.4680 C.3   210  GTB210      0.2285
     18  C3        55.7300    3.8870   16.7850 C.2   210  GTB210      0.3865
     19  O31       55.7500    3.1400   17.7720 O.co2 210  GTB210     -0.2437
     20  O32       56.0040    5.1010   16.8170 O.co2 210  GTB210     -0.2437
     21  C'        52.4410    5.9310   10.6290 C.3   210  GTB210      0.0838
     22  C1'       51.6320    4.6700   10.9240 C.ar  210  GTB210     -0.0112
     23  C2'       51.2900    4.3320   12.2300 C.ar  210  GTB210     -0.0017
     24  C3'       50.5790    3.1690   12.4830 C.ar  210  GTB210      0.0238
     25  C4'       50.2170    2.3270   11.4270 C.ar  210  GTB210      0.1429
     26  N41       49.5080    1.0300   11.6930 N.pl3 210  GTB210      0.0577
     27  O41       49.3110    0.6860   12.8350 O.2   210  GTB210     -0.1261
     28  O42       49.2210    0.2700   10.7880 O.2   210  GTB210     -0.1261
     29  C5'       50.5360    2.6870   10.1190 C.ar  210  GTB210      0.0238
     30  C6'       51.2520    3.8440    9.8720 C.ar  210  GTB210     -0.0017
@<TRIPOS>BOND
     1     5     3   ar
     2     4     3   ar
     3     3     2    1
     4    15    21    1
     5    15    14    1
     6    30    29   ar
     7    30    22   ar
     8     1     2    1
     9     2     6    1
    10    29    25   ar
    11    21    22    1
    12     6     7    1
    13    28    26    2
    14     7     8    1
    15    22    23   ar
    16    14    11    1
    17    25    26    1
    18    25    24   ar
    19     8    10   am
    20     8     9    2
    21    26    27    2
    22    10    11    1
    23    23    24   ar
    24    11    12    1
    25    13    12    2
    26    12    16   am
    27    16    17    1
    28    17    18    1
    29    18    20   ar
    30    18    19   ar
