@<TRIPOS>MOLECULE
1gm4_HEC_A_1.pdb
 43 50 0 0 0
SMALL
GASTEIGER

@<TRIPOS>ATOM
      1 FE        -14.9880   52.1640   10.6400 Fe    201  HEC201      0.0000
      2  CHA      -14.9150   49.5840    8.4800 C.2   201  HEC201      0.0000
      3  CHB      -15.0230   54.3440    8.0900 C.2   201  HEC201      0.0000
      4  CHC      -15.3810   54.6740   12.8870 C.2   201  HEC201      0.0000
      5  CHD      -14.3080   50.0160   13.2060 C.2   201  HEC201      0.0000
      6  NA       -14.9110   51.9920    8.6720 N.ar  201  HEC201      0.0000
      7  C1A      -14.8860   50.8470    7.9110 C.ar  201  HEC201      0.0000
      8  C2A      -14.7770   51.1670    6.4720 C.ar  201  HEC201      0.0000
      9  C3A      -14.8120   52.5200    6.4320 C.ar  201  HEC201      0.0000
     10  C4A      -14.9060   53.0110    7.7700 C.ar  201  HEC201      0.0000
     11  CMA      -14.7220   53.4430    5.2250 C.3   201  HEC201      0.0000
     12  NB       -15.1800   54.0960   10.5210 N.2   201  HEC201      0.0000
     13  C1B      -15.1630   54.8550    9.3630 C.2   201  HEC201      0.0000
     14  C2B      -15.2740   56.2530    9.6670 C.2   201  HEC201      0.0000
     15  C3B      -15.4170   56.3830   11.0500 C.2   201  HEC201      0.0000
     16  C4B      -15.3120   55.0240   11.5550 C.2   201  HEC201      0.0000
     17  CMB      -15.0790   57.3700    8.6280 C.3   201  HEC201      0.0000
     18  CAB      -15.7500   57.5490   11.7940 C.3   201  HEC201      0.0000
     19  CBB      -16.9330   58.3970   11.5110 C.3   201  HEC201      0.0000
     20  NC       -15.0150   52.2700   12.6780 N.ar  201  HEC201      0.0000
     21  C1C      -15.2710   53.3930   13.4290 C.ar  201  HEC201      0.0000
     22  C2C      -15.1010   53.1580   14.8780 C.ar  201  HEC201      0.0000
     23  C3C      -14.6950   51.8350   14.9930 C.ar  201  HEC201      0.0000
     24  C4C      -14.6630   51.3080   13.5930 C.ar  201  HEC201      0.0000
     25  CMC      -15.3050   54.2250   16.0020 C.3   201  HEC201      0.0000
     26  CAC      -14.3430   51.1710   16.2050 C.3   201  HEC201      0.0000
     27  CBC      -15.2780   51.0480   17.2860 C.3   201  HEC201      0.0000
     28  ND       -14.6690   50.2070   10.8010 N.2   201  HEC201      0.0000
     29  C1D      -14.3690   49.4840   11.9270 C.2   201  HEC201      0.0000
     30  C2D      -14.2580   48.0660   11.6040 C.2   201  HEC201      0.0000
     31  C3D      -14.4290   47.9440   10.2720 C.2   201  HEC201      0.0000
     32  C4D      -14.7320   49.2680    9.8060 C.2   201  HEC201      0.0000
     33  CMD      -13.9460   46.9260   12.5720 C.3   201  HEC201      0.0000
     34  CAD      -14.1480   46.7090    9.4100 C.3   201  HEC201      0.0000
     35  CBD      -12.6670   46.4050    9.1920 C.3   201  HEC201      0.0000
     36  CGD      -12.4350   45.0720    8.4940 C.2   201  HEC201      0.0000
     37  O1D      -13.3520   44.5720    7.8200 O.co2 201  HEC201      0.0000
     38  O2D      -11.3250   44.5080    8.6240 O.co2 201  HEC201      0.0000
     39  CAA      -14.8830   50.2590    5.2450 C.3   201  HEC201      0.0000
     40  CBA      -13.8270   49.2180    4.8750 C.3   201  HEC201      0.0000
     41  CGA      -13.9080   47.9450    5.6960 C.2   201  HEC201      0.0000
     42  O1A      -12.9400   47.6670    6.4290 O.co2 201  HEC201      0.0000
     43  O2A      -14.9210   47.2170    5.6050 O.co2 201  HEC201      0.0000
@<TRIPOS>BOND
     1    40    39    1
     2    40    41    1
     3    11     9    1
     4    39     8    1
     5    43    41   ar
     6    41    42   ar
     7     9     8   ar
     8     9    10   ar
     9     8     7   ar
    10    10     3    2
    11    10     6   ar
    12    37    36   ar
    13     7     2    2
    14     7     6   ar
    15     3    13    1
    16     2    32    1
    17    36    38   ar
    18    36    35    1
    19    17    14    1
    20     6     1    1
    21    35    34    1
    22    13    14    1
    23    13    12    2
    24    34    31    1
    25    14    15    2
    26    32    31    1
    27    32    28    2
    28    31    30    2
    29    12     1    1
    30    12    16    1
    31     1    28    1
    32     1    20    1
    33    28    29    1
    34    15    16    1
    35    15    18    1
    36    19    18    1
    37    16     4    2
    38    30    29    1
    39    30    33    1
    40    29     5    2
    41    20    21   ar
    42    20    24   ar
    43     4    21    1
    44     5    24    1
    45    21    22   ar
    46    24    23   ar
    47    22    23   ar
    48    22    25    1
    49    23    26    1
    50    26    27    1
