@<TRIPOS>MOLECULE
1gm5_ADP_A_1.pdb
 27 29 0 0 0
SMALL
GASTEIGER

@<TRIPOS>ATOM
      1  PB         3.3670   11.2970   22.9750 P.3   1756  ADP1756     0.5373
      2  O1B        3.1870   10.0160   22.1370 O.2   1756  ADP1756    -0.2221
      3  O2B        2.2250   11.4460   23.9710 O.3   1756  ADP1756    -0.1143
      4  O3B        4.6410   11.1570   23.7020 O.3   1756  ADP1756    -0.1143
      5  PA         2.7520   12.9000   20.6580 P.3   1756  ADP1756     0.2231
      6  O1A        2.3060   14.3150   20.5820 O.3   1756  ADP1756    -0.4370
      7  O2A        3.7250   12.5070   19.5140 O.2   1756  ADP1756    -0.5169
      8  O3A        3.3830   12.6700   22.1310 O.3   1756  ADP1756    -0.2261
      9  O5'        1.4940   11.9800   20.4570 O.3   1756  ADP1756    -0.3111
     10  C5'        0.2990   12.5960   20.0740 C.3   1756  ADP1756     0.1813
     11  C4'       -0.0640   12.3890   18.6130 C.3   1756  ADP1756     0.1821
     12  O4'       -1.1650   13.2280   18.3710 O.3   1756  ADP1756    -0.3135
     13  C3'        0.9650   13.0100   17.7150 C.3   1756  ADP1756     0.2184
     14  O3'        0.5510   12.7050   16.4090 O.3   1756  ADP1756    -0.2174
     15  C2'        0.7600   14.4800   17.9140 C.3   1756  ADP1756     0.2570
     16  O2'        1.2340   15.1380   16.7770 O.3   1756  ADP1756    -0.2130
     17  C1'       -0.7470   14.5270   17.9640 C.3   1756  ADP1756     0.3186
     18  N9        -1.2520   15.5610   18.8820 N.pl3 1756  ADP1756    -0.1439
     19  C8        -0.5470   16.2660   19.8160 C.3   1756  ADP1756     0.3377
     20  N7        -1.3940   17.1150   20.4420 N.2   1756  ADP1756    -0.2095
     21  C5        -2.6130   16.9690   19.9100 C.2   1756  ADP1756     0.2526
     22  C6        -3.8080   17.5770   20.1860 C.2   1756  ADP1756     0.4393
     23  N6        -3.8640   18.5640   21.0660 N.pl3 1756  ADP1756     0.2180
     24  N1        -4.9170   17.2110   19.4780 N.2   1756  ADP1756     0.0021
     25  C2        -4.8260   16.2490   18.5090 C.3   1756  ADP1756     0.5254
     26  N3        -3.6270   15.6430   18.2430 N.2   1756  ADP1756    -0.0055
     27  C4        -2.5390   16.0020   18.9330 C.2   1756  ADP1756     0.3518
@<TRIPOS>BOND
     1    14    13    1
     2    16    15    1
     3    13    15    1
     4    13    11    1
     5    15    17    1
     6    17    12    1
     7    17    18    1
     8    26    25    1
     9    26    27    2
    10    12    11    1
    11    25    24    1
    12    11    10    1
    13    18    27    1
    14    18    19    1
    15    27    21    1
    16    24    22    2
    17     7     5    2
    18    19    20    1
    19    21    22    1
    20    21    20    2
    21    10     9    1
    22    22    23    1
    23     9     5    1
    24     6     5    1
    25     5     8    1
    26     8     1    1
    27     2     1    2
    28     1     4    1
    29     1     3    1
