@<TRIPOS>MOLECULE
1gm6_NAG_A_1.pdb
 14 14 0 0 0
SMALL
GASTEIGER

@<TRIPOS>ATOM
      1  C1        -3.0970   18.5040   32.4190 C.3   1168  NAG1168     0.1665
      2  C2        -4.2540   19.1110   31.6210 C.3   1168  NAG1168     0.1576
      3  C3        -3.7150   20.4580   31.2180 C.3   1168  NAG1168     0.2069
      4  C4        -3.3160   21.2440   32.4810 C.3   1168  NAG1168     0.2134
      5  C5        -2.2980   20.4510   33.3140 C.3   1168  NAG1168     0.1809
      6  C6        -1.8650   21.1420   34.5750 C.3   1168  NAG1168     0.2141
      7  C7        -5.7290   17.7130   30.2280 C.2   1168  NAG1168     0.2420
      8  C8        -6.6750   17.5350   31.4130 C.3   1168  NAG1168     0.0964
      9  N2        -4.5240   18.2620   30.4530 N.am  1168  NAG1168    -0.2019
     10  O3        -4.6990   21.1610   30.4930 O.3   1168  NAG1168    -0.2184
     11  O4        -2.7590   22.4930   32.1240 O.3   1168  NAG1168    -0.2176
     12  O5        -2.8680   19.1960   33.6450 O.3   1168  NAG1168    -0.3489
     13  O6        -2.8300   21.0110   35.6090 O.3   1168  NAG1168    -0.2176
     14  O7        -6.0910   17.3330   29.1070 O.2   1168  NAG1168    -0.2733
@<TRIPOS>BOND
     1    14     7    2
     2     7     9   am
     3     7     8    1
     4     9     2    1
     5    10     3    1
     6     3     2    1
     7     3     4    1
     8     2     1    1
     9    11     4    1
    10     1    12    1
    11     4     5    1
    12     5    12    1
    13     5     6    1
    14     6    13    1
