@<TRIPOS>MOLECULE
1gm7_PNN_B_1.pdb
 23 25 0 0 0
SMALL
GASTEIGER

@<TRIPOS>ATOM
      1  O8        11.8400   -2.0680    2.4550 O.2   1577  PNN1577    -0.2729
      2  C7        12.9740   -2.4500    2.6530 C.2   1577  PNN1577     0.2491
      3  N4        13.3820   -3.7010    3.0970 N.am  1577  PNN1577    -0.2594
      4  C3        12.6650   -4.5860    4.0280 C.3   1577  PNN1577     0.1888
      5  C11       12.2870   -5.8540    3.2870 C.2   1577  PNN1577     0.3833
      6  O13       12.6270   -6.2380    2.2000 O.co2 1577  PNN1577    -0.2438
      7  O12       11.4270   -6.5760    4.0240 O.co2 1577  PNN1577    -0.2438
      8  C2        13.6290   -4.8100    5.2520 C.3   1577  PNN1577     0.0681
      9  C10       14.6160   -5.9320    5.0080 C.3   1577  PNN1577     0.0131
     10  C9        12.8280   -4.9260    6.5590 C.3   1577  PNN1577     0.0131
     11  S1        14.5430   -3.2020    5.3420 S.3   1577  PNN1577    -0.1184
     12  C5        14.7020   -3.1740    3.5270 C.3   1577  PNN1577     0.1529
     13  C6        14.3850   -1.8770    2.7170 C.3   1577  PNN1577     0.1995
     14  N14       14.4770   -0.6430    3.4510 N.am  1577  PNN1577    -0.1949
     15  C15       15.2600    0.3430    2.9520 C.2   1577  PNN1577     0.2463
     16  O16       15.9610    0.3800    1.9820 O.2   1577  PNN1577    -0.2730
     17  C17       15.2860    1.5740    3.8400 C.3   1577  PNN1577     0.1131
     18  C18       16.7030    1.9440    4.3440 C.ar  1577  PNN1577    -0.0130
     19  C19       17.3250    3.0590    3.7840 C.ar  1577  PNN1577    -0.0038
     20  C20       18.5950    3.5230    4.2140 C.ar  1577  PNN1577    -0.0003
     21  C21       19.1450    2.7090    5.2260 C.ar  1577  PNN1577    -0.0000
     22  C22       18.5650    1.6150    5.7570 C.ar  1577  PNN1577    -0.0003
     23  C23       17.3050    1.1770    5.3100 C.ar  1577  PNN1577    -0.0038
@<TRIPOS>BOND
     1    16    15    2
     2     6     5   ar
     3     1     2    2
     4     2    13    1
     5     2     3   am
     6    13    14    1
     7    13    12    1
     8    15    14   am
     9    15    17    1
    10     3    12    1
    11     3     4    1
    12     5     7   ar
    13     5     4    1
    14    12    11    1
    15    19    20   ar
    16    19    18   ar
    17    17    18    1
    18     4     8    1
    19    20    21   ar
    20    18    23   ar
    21     9     8    1
    22    21    22   ar
    23     8    11    1
    24     8    10    1
    25    23    22   ar
