@<TRIPOS>MOLECULE
1gm8_SOX_B_1.pdb
 24 26 0 0 0
SMALL
GASTEIGER

@<TRIPOS>ATOM
      1  O8        11.7930   -2.1560    2.0530 O.2   1559  SOX1559    -0.2729
      2  C7        12.8370   -2.6800    2.3630 C.2   1559  SOX1559     0.2492
      3  N4        13.1500   -3.9790    2.7790 N.am  1559  SOX1559    -0.2574
      4  C3        12.3530   -5.0080    3.3790 C.3   1559  SOX1559     0.1913
      5  C11       12.1060   -6.2040    2.4480 C.2   1559  SOX1559     0.3834
      6  O13       12.4880   -6.2830    1.3210 O.co2 1559  SOX1559    -0.2438
      7  O12       11.4180   -7.1670    3.1260 O.co2 1559  SOX1559    -0.2438
      8  C2        13.1470   -5.3640    4.6560 C.3   1559  SOX1559     0.0975
      9  C10       14.0770   -6.6000    4.5160 C.3   1559  SOX1559     0.0157
     10  C9        12.2410   -5.6410    5.8740 C.3   1559  SOX1559     0.0157
     11  S1        14.1410   -3.8690    5.0030 S.O   1559  SOX1559     0.0623
     12  C5        14.4550   -3.5580    3.2470 C.3   1559  SOX1559     0.1843
     13  C6        14.2560   -2.1940    2.5600 C.3   1559  SOX1559     0.2021
     14  N14       14.3180   -0.9860    3.3330 N.am  1559  SOX1559    -0.1948
     15  C15       14.9890    0.1200    2.9310 C.2   1559  SOX1559     0.2463
     16  O16       15.6650    0.3130    1.9230 O.2   1559  SOX1559    -0.2730
     17  C17       14.9000    1.2820    3.9200 C.3   1559  SOX1559     0.1131
     18  C18       16.3010    1.7990    4.2240 C.ar  1559  SOX1559    -0.0130
     19  C19       16.8270    2.9210    3.6010 C.ar  1559  SOX1559    -0.0038
     20  C20       18.0650    3.4310    4.0050 C.ar  1559  SOX1559    -0.0003
     21  C21       18.8150    2.7570    4.9800 C.ar  1559  SOX1559    -0.0000
     22  C22       18.3160    1.6020    5.5910 C.ar  1559  SOX1559    -0.0003
     23  C23       17.0490    1.1580    5.2140 C.ar  1559  SOX1559    -0.0038
     24  O5        13.2820   -2.7090    5.3380 O.2   1559  SOX1559    -0.2542
@<TRIPOS>BOND
     1     6     5   ar
     2    16    15    2
     3     1     2    2
     4     2    13    1
     5     2     3   am
     6     5     7   ar
     7     5     4    1
     8    13    12    1
     9    13    14    1
    10     3    12    1
    11     3     4    1
    12    15    14   am
    13    15    17    1
    14    12    11    1
    15     4     8    1
    16    19    20   ar
    17    19    18   ar
    18    17    18    1
    19    20    21   ar
    20    18    23   ar
    21     9     8    1
    22     8    11    1
    23     8    10    1
    24    21    22   ar
    25    11    24    2
    26    23    22   ar
