@<TRIPOS>MOLECULE
1gm9_SOX_B_1.pdb
 24 26 0 0 0
SMALL
GASTEIGER

@<TRIPOS>ATOM
      1  O8        13.2790    0.0470    0.0370 O.2   1569  SOX1569    -0.2729
      2  C7        13.6880   -1.0620    0.0600 C.2   1569  SOX1569     0.2492
      3  N4        13.5430   -2.4340   -0.1760 N.am  1569  SOX1569    -0.2574
      4  C3        12.4610   -3.4080   -0.2720 C.3   1569  SOX1569     0.1913
      5  C11       12.5100   -4.1680   -1.6120 C.2   1569  SOX1569     0.3834
      6  O13       11.6270   -4.7430   -2.1550 O.co2 1569  SOX1569    -0.2438
      7  O12       13.7900   -4.0720   -2.0490 O.co2 1569  SOX1569    -0.2438
      8  C2        12.8110   -4.4010    0.8650 C.3   1569  SOX1569     0.0975
      9  C10       13.7580   -5.5050    0.3180 C.3   1569  SOX1569     0.0157
     10  C9        11.6000   -5.0240    1.5520 C.3   1569  SOX1569     0.0157
     11  S1        13.7720   -3.3740    2.0660 S.O   1569  SOX1569     0.0623
     12  C5        14.6950   -2.7200    0.6640 C.3   1569  SOX1569     0.1843
     13  C6        15.0590   -1.2250    0.7910 C.3   1569  SOX1569     0.2021
     14  N14       14.8390   -0.5150    2.0710 N.am  1569  SOX1569    -0.1948
     15  C15       15.7750    0.4280    2.2930 C.2   1569  SOX1569     0.2463
     16  O16       16.6870    0.6300    1.5060 O.2   1569  SOX1569    -0.2730
     17  C17       15.5980    1.2490    3.5340 C.3   1569  SOX1569     0.1131
     18  C18       16.8120    2.0260    3.9660 C.ar  1569  SOX1569    -0.0130
     19  C19       17.1880    3.2420    3.3420 C.ar  1569  SOX1569    -0.0038
     20  C20       18.2860    3.9600    3.8850 C.ar  1569  SOX1569    -0.0003
     21  C21       19.0180    3.4620    4.9530 C.ar  1569  SOX1569    -0.0000
     22  C22       18.6250    2.2540    5.5680 C.ar  1569  SOX1569    -0.0003
     23  C23       17.5250    1.5720    5.0660 C.ar  1569  SOX1569    -0.0038
     24  O5        13.0290   -2.2950    2.6010 O.2   1569  SOX1569    -0.2542
@<TRIPOS>BOND
     1     6     5   ar
     2     7     5   ar
     3     5     4    1
     4     4     3    1
     5     4     8    1
     6     3     2   am
     7     3    12    1
     8     1     2    2
     9     2    13    1
    10     9     8    1
    11    12    13    1
    12    12    11    1
    13    13    14    1
    14     8    10    1
    15     8    11    1
    16    16    15    2
    17    11    24    2
    18    14    15   am
    19    15    17    1
    20    19    20   ar
    21    19    18   ar
    22    17    18    1
    23    20    21   ar
    24    18    23   ar
    25    21    22   ar
    26    23    22   ar
