@<TRIPOS>MOLECULE
1gmb_HEC_A_1.pdb
 43 50 0 0 0
SMALL
GASTEIGER

@<TRIPOS>ATOM
      1 FE        -15.3510   52.0560   11.1210 Fe    201  HEC201      0.0000
      2  CHA      -15.2300   49.5680    8.8800 C.2   201  HEC201      0.0000
      3  CHB      -15.4460   54.3710    8.6550 C.2   201  HEC201      0.0000
      4  CHC      -15.6560   54.5130   13.3780 C.2   201  HEC201      0.0000
      5  CHD      -14.5400   49.8660   13.5650 C.2   201  HEC201      0.0000
      6  NA       -15.3500   52.0010    9.1970 N.ar  201  HEC201      0.0000
      7  C1A      -15.2970   50.8880    8.4010 C.ar  201  HEC201      0.0000
      8  C2A      -15.3050   51.3190    7.0100 C.ar  201  HEC201      0.0000
      9  C3A      -15.3150   52.6360    6.9360 C.ar  201  HEC201      0.0000
     10  C4A      -15.3660   53.0600    8.3060 C.ar  201  HEC201      0.0000
     11  CMA      -15.3340   53.4800    5.6530 C.3   201  HEC201      0.0000
     12  NB       -15.4960   54.0570   11.0330 N.2   201  HEC201      0.0000
     13  C1B      -15.4740   54.8600    9.9230 C.2   201  HEC201      0.0000
     14  C2B      -15.5970   56.2790   10.2470 C.2   201  HEC201      0.0000
     15  C3B      -15.7530   56.3260   11.6230 C.2   201  HEC201      0.0000
     16  C4B      -15.6470   54.9220   12.0800 C.2   201  HEC201      0.0000
     17  CMB      -15.5370   57.4480    9.2710 C.3   201  HEC201      0.0000
     18  CAB      -16.0450   57.4440   12.4320 C.3   201  HEC201      0.0000
     19  CBB      -17.2430   58.2890   12.2500 C.3   201  HEC201      0.0000
     20  NC       -15.1510   52.1620   13.0590 N.ar  201  HEC201      0.0000
     21  C1C      -15.4080   53.2350   13.8530 C.ar  201  HEC201      0.0000
     22  C2C      -15.3160   52.8970   15.2600 C.ar  201  HEC201      0.0000
     23  C3C      -14.9820   51.5900   15.3460 C.ar  201  HEC201      0.0000
     24  C4C      -14.8450   51.1570   13.9470 C.ar  201  HEC201      0.0000
     25  CMC      -15.5440   53.8650   16.4270 C.3   201  HEC201      0.0000
     26  CAC      -14.6930   50.8680   16.5350 C.3   201  HEC201      0.0000
     27  CBC      -15.6650   50.7120   17.5990 C.3   201  HEC201      0.0000
     28  ND       -15.0160   50.1060   11.2120 N.2   201  HEC201      0.0000
     29  C1D      -14.6610   49.3560   12.3140 C.2   201  HEC201      0.0000
     30  C2D      -14.5640   47.9410   11.9890 C.2   201  HEC201      0.0000
     31  C3D      -14.8310   47.8440   10.6650 C.2   201  HEC201      0.0000
     32  C4D      -15.0890   49.1940   10.1920 C.2   201  HEC201      0.0000
     33  CMD      -14.2910   46.7720   12.9360 C.3   201  HEC201      0.0000
     34  CAD      -14.7640   46.5600    9.8370 C.3   201  HEC201      0.0000
     35  CBD      -13.3830   46.4430    9.2070 C.3   201  HEC201      0.0000
     36  CGD      -13.0940   45.0510    8.7350 C.2   201  HEC201      0.0000
     37  O1D      -12.1300   44.4410    9.2360 O.co2 201  HEC201      0.0000
     38  O2D      -13.8350   44.5480    7.8790 O.co2 201  HEC201      0.0000
     39  CAA      -15.3420   50.4020    5.8160 C.3   201  HEC201      0.0000
     40  CBA      -13.9730   49.8340    5.5250 C.3   201  HEC201      0.0000
     41  CGA      -14.0460   48.3800    5.1440 C.2   201  HEC201      0.0000
     42  O1A      -14.1820   47.5400    6.0610 O.co2 201  HEC201      0.0000
     43  O2A      -13.9910   48.0760    3.9280 O.co2 201  HEC201      0.0000
@<TRIPOS>BOND
     1    43    41   ar
     2    41    40    1
     3    41    42   ar
     4    40    39    1
     5    11     9    1
     6    39     8    1
     7     9     8   ar
     8     9    10   ar
     9     8     7   ar
    10    38    36   ar
    11    10     3    2
    12    10     6   ar
    13     7     2    2
    14     7     6   ar
    15     3    13    1
    16    36    35    1
    17    36    37   ar
    18     2    32    1
    19     6     1    1
    20    35    34    1
    21    17    14    1
    22    34    31    1
    23    13    14    1
    24    13    12    2
    25    32    31    1
    26    32    28    2
    27    14    15    2
    28    31    30    2
    29    12     1    1
    30    12    16    1
    31     1    28    1
    32     1    20    1
    33    28    29    1
    34    15    16    1
    35    15    18    1
    36    30    29    1
    37    30    33    1
    38    16     4    2
    39    19    18    1
    40    29     5    2
    41    20    21   ar
    42    20    24   ar
    43     4    21    1
    44     5    24    1
    45    21    22   ar
    46    24    23   ar
    47    22    23   ar
    48    22    25    1
    49    23    26    1
    50    26    27    1
