@<TRIPOS>MOLECULE
1gmc_III_B_1.pdb
 28 29 0 0 0
SMALL
GASTEIGER

@<TRIPOS>ATOM
      1  N         30.4450   71.7810   90.9490 N.3   501  PRO501     -0.2102
      2  CA        31.8760   72.0430   90.6110 C.3   501  PRO501      0.1504
      3  C         32.9320   71.7040   91.6610 C.2   501  PRO501      0.2576
      4  O         32.6720   70.9880   92.6380 O.2   501  PRO501     -0.2718
      5  CB        32.0250   73.5020   90.1770 C.3   501  PRO501      0.0282
      6  CG        30.9060   73.6200   89.3870 C.3   501  PRO501      0.0208
      7  CD        29.8500   72.9690   90.3060 C.3   501  PRO501      0.0893
      8  N         34.1100   72.2710   91.4110 N.am  502  GLY502     -0.1943
      9  CA        35.3140   72.1130   92.2100 C.3   502  GLY502      0.2014
     10  C         36.2640   72.7900   91.2290 C.2   502  GLY502      0.2639
     11  O         37.1760   73.5270   91.6030 O.2   502  GLY502     -0.2714
     12  N         36.0110   72.5330   89.9440 N.am  503  ALA503     -0.1963
     13  CA        36.7520   73.1320   88.8440 C.3   503  ALA503      0.1728
     14  C         36.1070   74.5090   88.5920 C.2   503  ALA503      0.2616
     15  O         34.8960   74.6490   88.7900 O.2   503  ALA503     -0.2715
     16  CB        36.6270   72.2590   87.6000 C.3   503  ALA503      0.0334
     17  N         36.9030   75.4940   88.1600 N.am  504  TYR504     -0.1974
     18  CA        36.4360   76.8700   87.8790 C.3   504  TYR504      0.1639
     19  C         36.5060   77.2580   86.3920 C.2   504  TYR504      0.2290
     20  O         35.5530   77.9610   85.9760 O.2   504  TYR504     -0.2864
     21  CB        37.3020   77.9120   88.5770 C.3   504  TYR504      0.0560
     22  CG        37.5940   77.7690   90.0370 C.ar  504  TYR504     -0.0198
     23  CD1       36.6760   77.2320   90.9360 C.ar  504  TYR504     -0.0009
     24  CD2       38.7760   78.2960   90.5360 C.ar  504  TYR504     -0.0009
     25  CE1       36.9300   77.2640   92.3010 C.ar  504  TYR504      0.0417
     26  CE2       39.0310   78.3350   91.8720 C.ar  504  TYR504      0.0417
     27  CZ        38.1220   77.8270   92.7440 C.ar  504  TYR504      0.1957
     28  OH        38.4180   77.9780   94.0680 O.3   504  TYR504     -0.2866
@<TRIPOS>BOND
     1    20    19    2
     2    19    18    1
     3    16    13    1
     4    18    17    1
     5    18    21    1
     6    17    14   am
     7    21    22    1
     8    14    15    2
     9    14    13    1
    10    13    12    1
    11     6     5    1
    12     6     7    1
    13    12    10   am
    14    22    24   ar
    15    22    23   ar
    16     5     2    1
    17     7     1    1
    18    24    26   ar
    19     2     1    1
    20     2     3    1
    21    23    25   ar
    22    10    11    2
    23    10     9    1
    24     8     3   am
    25     8     9    1
    26     3     4    2
    27    26    27   ar
    28    25    27   ar
    29    27    28    1
