@<TRIPOS>MOLECULE
1gmd_III_B_1.pdb
 34 35 0 0 0
SMALL
GASTEIGER

@<TRIPOS>ATOM
      1  N         37.0510   69.6690   96.0790 N.3   501  PRO501     -0.2102
      2  CA        37.4560   70.7860   95.1900 C.3   501  PRO501      0.1504
      3  C         36.2330   71.1010   94.3450 C.2   501  PRO501      0.2576
      4  O         35.1060   70.8280   94.7650 O.2   501  PRO501     -0.2718
      5  CB        38.5540   70.2580   94.2840 C.3   501  PRO501      0.0282
      6  CG        37.9720   68.9490   93.9210 C.3   501  PRO501      0.0208
      7  CD        37.4750   68.4890   95.2950 C.3   501  PRO501      0.0893
      8  N         36.4890   71.5860   93.1350 N.am  502  GLY502     -0.1943
      9  CA        35.4600   71.9140   92.1670 C.3   502  GLY502      0.2014
     10  C         36.1580   72.5200   90.9560 C.2   502  GLY502      0.2639
     11  O         37.1400   73.2770   91.1000 O.2   502  GLY502     -0.2714
     12  N         35.7300   72.1300   89.7600 N.am  503  ALA503     -0.1963
     13  CA        36.3100   72.6650   88.5200 C.3   503  ALA503      0.1728
     14  C         35.9180   74.1440   88.3690 C.2   503  ALA503      0.2613
     15  O         34.8070   74.5300   88.7380 O.2   503  ALA503     -0.2715
     16  CB        35.8070   71.8630   87.3210 C.3   503  ALA503      0.0334
     17  N         36.8300   74.9750   87.8590 N.am  504  TYR504     -0.2013
     18  CA        36.5390   76.4080   87.6670 C.3   504  TYR504      0.1469
     19  C         36.2540   76.8430   86.2330 C.3   504  TYR504      0.2459
     20  O         35.6630   78.1450   86.2770 O.3   504  TYR504     -0.2017
     21  CB        37.6960   77.3070   88.1150 C.3   504  TYR504      0.0521
     22  CG        37.8250   77.5110   89.6050 C.ar  504  TYR504     -0.0201
     23  CD1       36.8290   77.0840   90.4900 C.ar  504  TYR504     -0.0009
     24  CD2       38.9490   78.1370   90.1370 C.ar  504  TYR504     -0.0009
     25  CE1       36.9540   77.2690   91.8440 C.ar  504  TYR504      0.0417
     26  CE2       39.0790   78.3270   91.4980 C.ar  504  TYR504      0.0417
     27  CZ        38.0770   77.8980   92.3430 C.ar  504  TYR504      0.1957
     28  OH        38.2030   78.1410   93.6930 O.3   504  TYR504     -0.2866
     29  N         34.8870   76.3160   86.2540 N.3   505  ASP505     -0.1872
     30  CA        34.5590   75.1840   85.3940 C.3   505  ASP505      0.1032
     31  CB        34.4520   75.5830   83.8900 C.3   505  ASP505      0.1329
     32  CG        33.5760   76.8260   83.7780 C.2   505  ASP505      0.3663
     33  OD1       32.4350   76.6800   84.2560 O.co2 505  ASP505     -0.2456
     34  OD2       34.1940   77.9150   83.9160 O.co2 505  ASP505     -0.2456
@<TRIPOS>BOND
     1    32    31    1
     2    32    34   ar
     3    32    33   ar
     4    31    30    1
     5    30    29    1
     6    19    29    1
     7    19    20    1
     8    19    18    1
     9    16    13    1
    10    18    17    1
    11    18    21    1
    12    17    14   am
    13    21    22    1
    14    14    13    1
    15    14    15    2
    16    13    12    1
    17    22    24   ar
    18    22    23   ar
    19    12    10   am
    20    24    26   ar
    21    23    25   ar
    22    10    11    2
    23    10     9    1
    24    26    27   ar
    25    25    27   ar
    26     9     8    1
    27    27    28    1
    28     8     3   am
    29     6     5    1
    30     6     7    1
    31     5     2    1
    32     3     4    2
    33     3     2    1
    34     2     1    1
    35     7     1    1
