@<TRIPOS>MOLECULE
1gmn_IDS_A_1.pdb
 16 16 0 0 0
SMALL
GASTEIGER

@<TRIPOS>ATOM
      1  C1       135.4770   10.1770   78.5090 C.3   1210  IDS1210     0.1774
      2  C2       133.9770    9.7940   78.4020 C.3   1210  IDS1210     0.2054
      3  C3       133.0840   10.7960   77.6190 C.3   1210  IDS1210     0.2169
      4  C4       133.7980   11.4660   76.4100 C.3   1210  IDS1210     0.2227
      5  C5       135.2120   11.9240   76.8430 C.3   1210  IDS1210     0.2512
      6  C6       136.0220   12.6250   75.7530 C.2   1210  IDS1210     0.3940
      7  O2       133.8890    8.5220   77.7790 O.3   1210  IDS1210    -0.2384
      8  O3       132.6650   11.8170   78.5080 O.3   1210  IDS1210    -0.2175
      9  O4       133.8840   10.4110   75.4400 O.3   1210  IDS1210    -0.2171
     10  O5       135.9440   10.7820   77.3090 O.3   1210  IDS1210    -0.3403
     11  O61      135.7260   13.7390   75.3710 O.co2 1210  IDS1210    -0.2429
     12  O62      136.9830   12.0870   75.2440 O.co2 1210  IDS1210    -0.2429
     13  S        133.6530    7.1210   78.4520 S.3   1210  IDS1210    -0.0001
     14  O1S      134.9200    6.4410   78.4390 O.2   1210  IDS1210    -0.3452
     15  O2S      132.6790    6.4670   77.6130 O.2   1210  IDS1210    -0.3452
     16  O3S      133.1690    7.3750   79.7850 O.3   1210  IDS1210    -0.2682
@<TRIPOS>BOND
     1    12     6   ar
     2    11     6   ar
     3     9     4    1
     4     6     5    1
     5     4     5    1
     6     4     3    1
     7     5    10    1
     8    10     1    1
     9    15    13    2
    10     3     2    1
    11     3     8    1
    12     7     2    1
    13     7    13    1
    14     2     1    1
    15    14    13    2
    16    13    16    1
