@<TRIPOS>MOLECULE
1gmn_SGN_A_1.pdb
 19 19 0 0 0
SMALL
GASTEIGER

@<TRIPOS>ATOM
      1  C1       138.8890   12.1150   82.1200 C.3   1209  SGN1209     0.1640
      2  C2       138.3530   13.0580   81.0130 C.3   1209  SGN1209     0.1563
      3  C3       136.9460   12.6450   80.6000 C.3   1209  SGN1209     0.2047
      4  C4       136.9770   11.1850   80.1000 C.3   1209  SGN1209     0.2131
      5  C5       137.4900   10.2960   81.2790 C.3   1209  SGN1209     0.1800
      6  C6       137.5920    8.7960   80.9500 C.3   1209  SGN1209     0.2045
      7  N        138.3750   14.4470   81.5040 N.3   1209  SGN1209    -0.1156
      8  O3       136.5010   13.5080   79.5670 O.3   1209  SGN1209    -0.2187
      9  O4       135.6490   11.0100   79.6160 O.3   1209  SGN1209    -0.2176
     10  O5       138.8060   10.7460   81.7070 O.3   1209  SGN1209    -0.3493
     11  O6       138.5710    8.5460   79.9690 O.3   1209  SGN1209    -0.2384
     12  S1       139.6060   15.4600   81.1550 S.3   1209  SGN1209    -0.1289
     13  O1S      139.2470   16.6830   81.8080 O.3   1209  SGN1209    -0.2919
     14  O2S      140.8100   14.9100   81.6970 O.3   1209  SGN1209    -0.2919
     15  O3S      139.6280   15.5730   79.7250 O.3   1209  SGN1209    -0.2919
     16  S2       139.3120    7.1880   79.7460 S.3   1209  SGN1209    -0.0001
     17  O4S      138.3050    6.1680   79.6500 O.2   1209  SGN1209    -0.3452
     18  O5S      140.0320    7.3520   78.5210 O.2   1209  SGN1209    -0.3452
     19  O6S      140.1700    7.0310   80.8840 O.3   1209  SGN1209    -0.2682
@<TRIPOS>BOND
     1    18    16    2
     2     8     3    1
     3     9     4    1
     4    17    16    2
     5    15    12    1
     6    16    11    1
     7    16    19    1
     8    11     6    1
     9     4     3    1
    10     4     5    1
    11     3     2    1
    12     6     5    1
    13     2     7    1
    14     2     1    1
    15    12     7    1
    16    12    14    1
    17    12    13    1
    18     5    10    1
    19    10     1    1
