@<TRIPOS>MOLECULE
1gmo_SGN_B_1.pdb
 19 19 0 0 0
SMALL
GASTEIGER

@<TRIPOS>ATOM
      1  C1        11.3590   49.5890    4.8320 C.3   1210  SGN1210     0.1640
      2  C2         9.9740   50.0540    5.3520 C.3   1210  SGN1210     0.1563
      3  C3        10.1460   51.3130    6.2240 C.3   1210  SGN1210     0.2047
      4  C4        11.0560   50.9540    7.4250 C.3   1210  SGN1210     0.2131
      5  C5        12.4350   50.4830    6.8550 C.3   1210  SGN1210     0.1800
      6  C6        13.4460   50.0440    7.9350 C.3   1210  SGN1210     0.2045
      7  N          9.1050   50.2990    4.1890 N.3   1210  SGN1210    -0.1156
      8  O3         8.8850   51.7290    6.7070 O.3   1210  SGN1210    -0.2187
      9  O4        11.2370   52.2690    7.9830 O.3   1210  SGN1210    -0.2176
     10  O5        12.2510   49.3700    5.9360 O.3   1210  SGN1210    -0.3493
     11  O6        14.3590   49.0870    7.4100 O.3   1210  SGN1210    -0.2384
     12  S1         7.5350   49.8190    4.2230 S.3   1210  SGN1210    -0.1289
     13  O1S        7.3120   49.0240    5.3990 O.3   1210  SGN1210    -0.2919
     14  O2S        6.7620   51.0260    4.2060 O.3   1210  SGN1210    -0.2919
     15  O3S        7.3650   49.0530    3.0230 O.3   1210  SGN1210    -0.2919
     16  S2        14.8530   47.7670    8.1060 S.3   1210  SGN1210    -0.0001
     17  O4S       13.7940   46.8030    7.9910 O.2   1210  SGN1210    -0.3452
     18  O5S       16.0360   47.3900    7.3790 O.2   1210  SGN1210    -0.3452
     19  O6S       15.1480   48.1140    9.4680 O.3   1210  SGN1210    -0.2682
@<TRIPOS>BOND
     1    15    12    1
     2     7    12    1
     3     7     2    1
     4    14    12    1
     5    12    13    1
     6     1     2    1
     7     1    10    1
     8     2     3    1
     9    10     5    1
    10     3     8    1
    11     3     4    1
    12     5     4    1
    13     5     6    1
    14    18    16    2
    15    11     6    1
    16    11    16    1
    17     4     9    1
    18    17    16    2
    19    16    19    1
