@<TRIPOS>MOLECULE
1gmo_IDS_A_1.pdb
 17 17 0 0 0
SMALL
GASTEIGER

@<TRIPOS>ATOM
      1  C1         0.9800   15.2050   20.9650 C.3   1209  IDS1209     0.3019
      2  C2        -0.3800   15.5310   21.6280 C.3   1209  IDS1209     0.2348
      3  C3        -1.1670   14.2920   22.1470 C.3   1209  IDS1209     0.2196
      4  C4        -0.2590   13.2670   22.8610 C.3   1209  IDS1209     0.2229
      5  C5         0.9960   12.9980   21.9990 C.3   1209  IDS1209     0.2530
      6  C6         1.9740   11.9880   22.6090 C.2   1209  IDS1209     0.3941
      7  O1         0.7660   14.7750   19.6460 O.3   1209  IDS1209    -0.1870
      8  O2        -0.1210   16.4060   22.7210 O.3   1209  IDS1209    -0.2356
      9  O3        -1.7910   13.6370   21.0570 O.3   1209  IDS1209    -0.2174
     10  O4         0.0170   13.7770   24.1660 O.3   1209  IDS1209    -0.2171
     11  O5         1.6810   14.2440   21.7530 O.3   1209  IDS1209    -0.3149
     12  O61        2.9940   12.3450   23.1790 O.co2 1209  IDS1209    -0.2429
     13  O62        1.7510   10.7960   22.5390 O.co2 1209  IDS1209    -0.2429
     14  S         -0.5460   17.9140   22.8730 S.3   1209  IDS1209     0.0000
     15  O1S       -1.9730   17.9110   23.0310 O.2   1209  IDS1209    -0.3452
     16  O2S        0.1370   18.4070   24.0380 O.3   1209  IDS1209    -0.2682
     17  O3S       -0.1200   18.5820   21.6810 O.2   1209  IDS1209    -0.3452
@<TRIPOS>BOND
     1     7     1    1
     2     1     2    1
     3     1    11    1
     4     9     3    1
     5     2     3    1
     6     2     8    1
     7    17    14    2
     8    11     5    1
     9     5     6    1
    10     5     4    1
    11     3     4    1
    12    13     6   ar
    13     6    12   ar
    14     8    14    1
    15     4    10    1
    16    14    15    2
    17    14    16    1
