@<TRIPOS>MOLECULE
1gmp_2GP_A_1.pdb
 24 26 0 0 0
SMALL
GASTEIGER

@<TRIPOS>ATOM
      1  P         58.7230    9.7710   20.4700 P.3    97  2GP97       0.5327
      2  O1P       59.6140    8.8170   21.1890 O.3    97  2GP97      -0.1145
      3  O2P       59.3090   10.9580   19.8680 O.3    97  2GP97      -0.1145
      4  O3P       57.9290    9.0180   19.3490 O.2    97  2GP97      -0.2224
      5  O5'       53.5980   11.4900   24.3140 O.3    97  2GP97      -0.2176
      6  C5'       54.9090   11.1260   24.7780 C.3    97  2GP97       0.2142
      7  C4'       55.6840   10.5730   23.5670 C.3    97  2GP97       0.1827
      8  O4'       55.0840    9.3670   23.0600 O.3    97  2GP97      -0.3326
      9  C3'       55.7920   11.4070   22.2990 C.3    97  2GP97       0.2132
     10  O3'       56.6920   12.4730   22.5520 O.3    97  2GP97      -0.2176
     11  C2'       56.3640   10.3850   21.3060 C.3    97  2GP97       0.2054
     12  O2'       57.7060   10.1590   21.6900 O.3    97  2GP97      -0.2657
     13  C1'       55.5950    9.0850   21.7190 C.3    97  2GP97       0.2266
     14  N9        54.3700    8.7470   21.0150 N.pl3  97  2GP97      -0.2354
     15  C8        53.8890    7.4440   20.9000 C.3    97  2GP97       0.2246
     16  N7        52.7310    7.4000   20.2990 N.2    97  2GP97      -0.2322
     17  C5        52.4460    8.7070   19.9840 C.2    97  2GP97       0.2182
     18  C6        51.2930    9.2450   19.3410 C.1    97  2GP97       0.2372
     19  O6        50.3480    8.5950   18.9230 O.2    97  2GP97      -0.2069
     20  N1        51.3450   10.6360   19.2380 N.2    97  2GP97      -0.2485
     21  C2        52.3990   11.4160   19.6840 C.1    97  2GP97       0.2531
     22  N2        52.2360   12.7020   19.4190 N.pl3  97  2GP97      -0.0226
     23  N3        53.4390   10.8950   20.3010 N.2    97  2GP97      -0.3074
     24  C4        53.4440    9.5550   20.4300 C.2    97  2GP97       0.2300
@<TRIPOS>BOND
     1    19    18    2
     2    20    18    2
     3    20    21    2
     4    18    17    1
     5     4     1    2
     6    22    21    1
     7    21    23    2
     8     3     1    1
     9    17    16    2
    10    17    24    1
    11    16    15    1
    12    23    24    2
    13    24    14    1
    14     1     2    1
    15     1    12    1
    16    15    14    1
    17    14    13    1
    18    11    12    1
    19    11    13    1
    20    11     9    1
    21    13     8    1
    22     9    10    1
    23     9     7    1
    24     8     7    1
    25     7     6    1
    26     5     6    1
