@<TRIPOS>MOLECULE
1gmr_2GP_A_1.pdb
 24 26 0 0 0
SMALL
GASTEIGER

@<TRIPOS>ATOM
      1  P         58.8320    9.8050   20.6020 P.3    97  2GP97       0.5327
      2  O1P       59.7510    8.8870   21.3470 O.3    97  2GP97      -0.1145
      3  O2P       59.4150   11.0600   20.1050 O.3    97  2GP97      -0.1145
      4  O3P       58.0170    8.9850   19.5360 O.2    97  2GP97      -0.2224
      5  O5'       53.7710   11.3890   24.6960 O.3    97  2GP97      -0.2176
      6  C5'       55.1730   11.1750   24.8720 C.3    97  2GP97       0.2142
      7  C4'       55.7630   10.6330   23.5620 C.3    97  2GP97       0.1827
      8  O4'       55.1770    9.4150   23.0790 O.3    97  2GP97      -0.3326
      9  C3'       55.8000   11.4560   22.2610 C.3    97  2GP97       0.2132
     10  O3'       56.6250   12.5770   22.4920 O.3    97  2GP97      -0.2176
     11  C2'       56.4250   10.4380   21.3200 C.3    97  2GP97       0.2054
     12  O2'       57.7490   10.2060   21.7810 O.3    97  2GP97      -0.2657
     13  C1'       55.6200    9.1550   21.6960 C.3    97  2GP97       0.2266
     14  N9        54.3770    8.8240   21.0080 N.pl3  97  2GP97      -0.2354
     15  C8        53.8890    7.5230   20.9110 C.3    97  2GP97       0.2246
     16  N7        52.7170    7.4830   20.3090 N.2    97  2GP97      -0.2322
     17  C5        52.4400    8.8200   20.0040 C.2    97  2GP97       0.2182
     18  C6        51.2570    9.3600   19.3930 C.1    97  2GP97       0.2372
     19  O6        50.3530    8.6370   18.9940 O.2    97  2GP97      -0.2069
     20  N1        51.3460   10.7270   19.3070 N.2    97  2GP97      -0.2485
     21  C2        52.4220   11.5010   19.7270 C.1    97  2GP97       0.2531
     22  N2        52.3080   12.7950   19.4820 N.pl3  97  2GP97      -0.0226
     23  N3        53.4730   10.9880   20.3540 N.2    97  2GP97      -0.3074
     24  C4        53.4520    9.6550   20.4430 C.2    97  2GP97       0.2300
@<TRIPOS>BOND
     1    19    18    2
     2    20    18    2
     3    20    21    2
     4    18    17    1
     5    22    21    1
     6     4     1    2
     7    21    23    2
     8    17    16    2
     9    17    24    1
    10     3     1    1
    11    16    15    1
    12    23    24    2
    13    24    14    1
    14     1     2    1
    15     1    12    1
    16    15    14    1
    17    14    13    1
    18    11    13    1
    19    11    12    1
    20    11     9    1
    21    13     8    1
    22     9    10    1
    23     9     7    1
    24     8     7    1
    25     7     6    1
    26     5     6    1
