@<TRIPOS>MOLECULE
1gmy_APD_A_1.pdb
 12 12 0 0 0
SMALL
GASTEIGER

@<TRIPOS>ATOM
      1  C         31.2650   35.3840   35.8260 C.2   501  APD501      0.2264
      2  O         30.8810   34.4300   36.5000 O.2   501  APD501     -0.2867
      3  CA        31.3700   35.2480   34.3240 C.3   501  APD501      0.1605
      4  N         31.8470   33.9240   33.9790 N.3   501  APD501     -0.1241
      5  CB        30.0190   35.5060   33.6610 C.3   501  APD501      0.0533
      6  CG        30.1340   35.4850   32.1510 C.ar  501  APD501     -0.0206
      7  CD1       30.4720   36.6430   31.4380 C.ar  501  APD501     -0.0042
      8  CD2       29.9640   34.2960   31.4480 C.ar  501  APD501     -0.0085
      9  CE1       30.6450   36.6060   30.0490 C.ar  501  APD501     -0.0006
     10  CE2       30.1300   34.2340   30.0620 C.ar  501  APD501     -0.0222
     11  CZ        30.4740   35.3990   29.3720 C.ar  501  APD501     -0.0043
     12  C5        29.9450   32.9360   29.3360 C.3   501  APD501      0.0310
@<TRIPOS>BOND
     1    12    10    1
     2    11     9   ar
     3    11    10   ar
     4     9     7   ar
     5    10     8   ar
     6     7     6   ar
     7     8     6   ar
     8     6     5    1
     9     5     3    1
    10     4     3    1
    11     3     1    1
    12     1     2    2
