@<TRIPOS>MOLECULE
1gmy_DFA_A_1.pdb
 15 16 0 0 0
SMALL
GASTEIGER

@<TRIPOS>ATOM
      1  C8        33.0720   33.7910   33.4960 C.2   502  DFA502      0.2157
      2  O11       33.8510   34.7480   33.4290 O.2   502  DFA502     -0.2876
      3  C5        34.7790   29.5490   35.2340 C.ar  502  DFA502     -0.0003
      4  C4        34.0890   30.2630   34.2400 C.ar  502  DFA502     -0.0035
      5  C3        34.2340   31.6390   34.1080 C.ar  502  DFA502     -0.0110
      6  C2        35.0810   32.2930   34.9970 C.ar  502  DFA502     -0.0035
      7  C1        35.7690   31.5940   35.9900 C.ar  502  DFA502     -0.0003
      8  C6        35.6180   30.2190   36.1050 C.ar  502  DFA502     -0.0000
      9  C10       34.3380   32.7510   31.7940 C.ar  502  DFA502     -0.0110
     10  C16       35.6780   33.1430   31.9390 C.ar  502  DFA502     -0.0035
     11  C15       36.4170   33.6220   30.8520 C.ar  502  DFA502     -0.0003
     12  C14       35.8210   33.7100   29.5910 C.ar  502  DFA502     -0.0000
     13  C13       34.4920   33.3120   29.4270 C.ar  502  DFA502     -0.0003
     14  C12       33.7620   32.8350   30.5210 C.ar  502  DFA502     -0.0035
     15  C11       33.4850   32.4120   33.0050 C.3   502  DFA502      0.1093
@<TRIPOS>BOND
     1    13    12   ar
     2    13    14   ar
     3    12    11   ar
     4    14     9   ar
     5    11    10   ar
     6     9    10   ar
     7     9    15    1
     8    15     1    1
     9    15     5    1
    10     2     1    2
    11     5     4   ar
    12     5     6   ar
    13     4     3   ar
    14     6     7   ar
    15     3     8   ar
    16     7     8   ar
