@<TRIPOS>MOLECULE
1gn8_ATP_A_1.pdb
 31 33 0 0 0
SMALL
GASTEIGER

@<TRIPOS>ATOM
      1  PG        21.3110   20.8810   35.0800 P.3   700  ATP700      0.5373
      2  O1G       22.4090   19.7980   35.4970 O.3   700  ATP700     -0.1143
      3  O2G       21.9450   22.1840   34.7900 O.3   700  ATP700     -0.1143
      4  O3G       20.4770   20.3880   33.8070 O.2   700  ATP700     -0.2221
      5  PB        20.3010   21.6660   37.7170 P.3   700  ATP700      0.2277
      6  O1B       20.8930   23.1670   37.6670 O.2   700  ATP700     -0.5168
      7  O2B       21.2040   20.8120   38.5110 O.3   700  ATP700     -0.4368
      8  O3B       20.2040   21.0520   36.2310 O.3   700  ATP700     -0.2258
      9  PA        18.0510   22.7710   37.9360 P.3   700  ATP700      0.2189
     10  O1A       18.3080   23.1360   36.5250 O.2   700  ATP700     -0.5170
     11  O2A       16.6710   22.3790   38.3020 O.3   700  ATP700     -0.4371
     12  O3A       18.9430   21.6360   38.3410 O.3   700  ATP700     -0.2700
     13  O5'       18.4410   24.0510   38.8410 O.3   700  ATP700     -0.3112
     14  C5'       17.4410   24.8630   39.4800 C.3   700  ATP700      0.1813
     15  C4'       18.0330   25.8470   40.5040 C.3   700  ATP700      0.1821
     16  O4'       18.7150   25.1760   41.5970 O.3   700  ATP700     -0.3135
     17  C3'       19.0510   26.7720   39.8730 C.3   700  ATP700      0.2184
     18  O3'       18.9600   28.0750   40.4630 O.3   700  ATP700     -0.2174
     19  C2'       20.3720   26.1110   40.1860 C.3   700  ATP700      0.2570
     20  O2'       21.4610   27.0290   40.2010 O.3   700  ATP700     -0.2130
     21  C1'       20.1310   25.4860   41.5450 C.3   700  ATP700      0.3186
     22  N9        20.9590   24.2830   41.7560 N.pl3 700  ATP700     -0.1439
     23  C8        21.0090   23.1120   41.0580 C.3   700  ATP700      0.3377
     24  N7        21.8350   22.2050   41.4680 N.2   700  ATP700     -0.2095
     25  C5        22.4190   22.8300   42.5650 C.2   700  ATP700      0.2526
     26  C6        23.4090   22.4290   43.4970 C.2   700  ATP700      0.4393
     27  N6        24.0080   21.2370   43.4520 N.pl3 700  ATP700      0.2180
     28  N1        23.7580   23.3130   44.4820 N.2   700  ATP700      0.0021
     29  C2        23.1680   24.5270   44.5540 C.3   700  ATP700      0.5254
     30  N3        22.2230   25.0050   43.7240 N.2   700  ATP700     -0.0055
     31  C4        21.8890   24.1010   42.7510 C.2   700  ATP700      0.3518
@<TRIPOS>BOND
     1     4     1    2
     2     3     1    1
     3     1     2    1
     4     1     8    1
     5     8     5    1
     6    10     9    2
     7     6     5    2
     8     5    12    1
     9     5     7    1
    10     9    11    1
    11     9    12    1
    12     9    13    1
    13    13    14    1
    14    14    15    1
    15    17    19    1
    16    17    18    1
    17    17    15    1
    18    19    20    1
    19    19    21    1
    20    15    16    1
    21    23    24    1
    22    23    22    1
    23    24    25    2
    24    21    16    1
    25    21    22    1
    26    22    31    1
    27    25    31    1
    28    25    26    1
    29    31    30    2
    30    27    26    1
    31    26    28    2
    32    30    29    1
    33    28    29    1
