@<TRIPOS>MOLECULE
1gne_GSH_A_1.pdb
 20 19 0 0 0
SMALL
GASTEIGER

@<TRIPOS>ATOM
      1  N1       -13.7270   19.7420   19.2430 N.3   233  GSH233     -0.1208
      2  CA1      -13.3590   19.7640   20.7130 C.3   233  GSH233      0.1948
      3  C1       -12.4390   18.6080   21.0760 C.2   233  GSH233      0.3819
      4  O11      -12.1410   17.7390   20.2720 O.co2 233  GSH233     -0.2441
      5  O12      -12.1240   18.4820   22.3380 O.co2 233  GSH233     -0.2441
      6  CB1      -12.5550   21.0800   20.9650 C.3   233  GSH233      0.0402
      7  CG1      -13.0440   21.6780   22.1720 C.3   233  GSH233      0.0889
      8  CD1      -13.9870   22.7670   22.3490 C.2   233  GSH233      0.2418
      9  OE1      -14.4240   23.3240   21.2970 O.2   233  GSH233     -0.2733
     10  N2       -13.9170   23.2530   23.5760 N.am  233  GSH233     -0.1968
     11  CA2      -14.8650   23.3710   24.6550 C.3   233  GSH233      0.1843
     12  C2       -14.3950   24.5140   25.6460 C.2   233  GSH233      0.2627
     13  O2       -15.3090   24.8770   26.4290 O.2   233  GSH233     -0.2714
     14  CB2      -15.3450   22.1000   25.3330 C.3   233  GSH233      0.0997
     15  SG2      -16.8440   22.2900   26.2600 S.3   233  GSH233     -0.0797
     16  N3       -13.5230   25.3650   25.1820 N.am  233  GSH233     -0.1917
     17  CA3      -13.0260   26.5540   25.8590 C.3   233  GSH233      0.2285
     18  C3       -11.8240   27.1370   25.2510 C.2   233  GSH233      0.3865
     19  O31      -11.7570   27.6170   24.1010 O.co2 233  GSH233     -0.2437
     20  O32      -10.7510   27.4040   25.9930 O.co2 233  GSH233     -0.2437
@<TRIPOS>BOND
     1     1     2    1
     2     4     3   ar
     3     2     6    1
     4     2     3    1
     5     6     7    1
     6     3     5   ar
     7     9     8    2
     8     7     8    1
     9     8    10   am
    10    10    11    1
    11    19    18   ar
    12    11    14    1
    13    11    12    1
    14    16    12   am
    15    16    17    1
    16    18    17    1
    17    18    20   ar
    18    14    15    1
    19    12    13    2
