@<TRIPOS>MOLECULE
1gni_OLA_A_1.pdb
 20 19 0 0 0
SMALL
GASTEIGER

@<TRIPOS>ATOM
      1  C1        29.8480   12.4910   35.5290 C.2   1001  OLA1001     0.3649
      2  O1        29.0440   13.4120   35.8070 O.co2 1001  OLA1001    -0.2457
      3  O2        29.4660   11.3690   35.1310 O.co2 1001  OLA1001    -0.2457
      4  C2        31.3590   12.7330   35.6690 C.3   1001  OLA1001     0.1141
      5  C3        31.6740   13.6900   36.8330 C.3   1001  OLA1001     0.0118
      6  C4        33.1970   13.8230   36.8300 C.3   1001  OLA1001     0.0006
      7  C5        33.6470   15.2850   36.8820 C.3   1001  OLA1001     0.0000
      8  C6        35.1420   15.4200   36.5820 C.3   1001  OLA1001     0.0003
      9  C7        35.4050   15.8770   35.1430 C.3   1001  OLA1001     0.0047
     10  C8        36.6180   15.1890   34.5120 C.3   1001  OLA1001     0.0257
     11  C9        37.1540   15.9590   33.2960 C.2   1001  OLA1001    -0.0307
     12  C10       37.1270   15.5550   31.9990 C.2   1001  OLA1001    -0.0307
     13  C11       36.5580   14.2480   31.4630 C.3   1001  OLA1001     0.0257
     14  C12       35.6750   14.4660   30.2420 C.3   1001  OLA1001     0.0047
     15  C13       34.4940   13.4960   30.2550 C.3   1001  OLA1001     0.0003
     16  C14       33.6810   13.5500   28.9680 C.3   1001  OLA1001     0.0000
     17  C15       32.5900   12.4970   28.9760 C.3   1001  OLA1001     0.0000
     18  C16       32.5080   11.8090   27.6250 C.3   1001  OLA1001     0.0000
     19  C17       33.1240   10.4130   27.6620 C.3   1001  OLA1001     0.0000
     20  C18       32.0470    9.3460   27.6640 C.3   1001  OLA1001     0.0000
@<TRIPOS>BOND
     1    18    19    1
     2    18    17    1
     3    19    20    1
     4    16    17    1
     5    16    15    1
     6    14    15    1
     7    14    13    1
     8    13    12    1
     9    12    11    2
    10    11    10    1
    11    10     9    1
    12     3     1   ar
    13     9     8    1
    14     1     4    1
    15     1     2   ar
    16     4     5    1
    17     8     7    1
    18     6     5    1
    19     6     7    1
