@<TRIPOS>MOLECULE
1gnj_ACD_A_1.pdb
 22 21 0 0 0
SMALL
GASTEIGER

@<TRIPOS>ATOM
      1  C1        29.3850   13.4330   35.8230 C.2   1001  ACD1001     0.3649
      2  C2        30.7830   12.9360   35.6010 C.3   1001  ACD1001     0.1144
      3  C3        31.7120   13.2650   36.7510 C.3   1001  ACD1001     0.0165
      4  C4        32.8490   14.1460   36.2710 C.3   1001  ACD1001     0.0263
      5  C5        33.2250   15.1840   37.2250 C.2   1001  ACD1001    -0.0304
      6  C6        34.1980   16.1520   36.9210 C.2   1001  ACD1001    -0.0260
      7  C7        34.8990   16.1940   35.6370 C.3   1001  ACD1001     0.0513
      8  C8        36.3390   16.3840   35.7660 C.2   1001  ACD1001    -0.0257
      9  C9        37.2150   16.3730   34.6630 C.2   1001  ACD1001    -0.0257
     10  C10       36.7660   16.1710   33.2860 C.3   1001  ACD1001     0.0513
     11  C11       37.4660   15.0930   32.6080 C.2   1001  ACD1001    -0.0257
     12  C12       36.8890   14.3170   31.5850 C.2   1001  ACD1001    -0.0257
     13  C13       35.5300   14.4960   31.0840 C.3   1001  ACD1001     0.0513
     14  C14       35.4450   14.2630   29.6390 C.2   1001  ACD1001    -0.0260
     15  C15       34.3720   13.5950   29.0040 C.2   1001  ACD1001    -0.0304
     16  C16       33.2210   13.0630   29.7210 C.3   1001  ACD1001     0.0257
     17  C17       32.1920   12.4210   28.8000 C.3   1001  ACD1001     0.0047
     18  C18       31.7380   11.0670   29.3220 C.3   1001  ACD1001     0.0003
     19  C19       30.5460   11.1960   30.2630 C.3   1001  ACD1001     0.0000
     20  C20       30.5450   10.0790   31.2750 C.3   1001  ACD1001     0.0000
     21  O1        28.5270   12.6670   36.3370 O.co2 1001  ACD1001    -0.2457
     22  O2        29.1260   14.6170   35.4840 O.co2 1001  ACD1001    -0.2457
@<TRIPOS>BOND
     1    17    18    1
     2    17    16    1
     3    15    14    2
     4    15    16    1
     5    18    19    1
     6    14    13    1
     7    19    20    1
     8    13    12    1
     9    12    11    2
    10    11    10    1
    11    10     9    1
    12     9     8    2
    13    22     1   ar
    14     2     1    1
    15     2     3    1
    16     7     8    1
    17     7     6    1
    18     1    21   ar
    19     4     3    1
    20     4     5    1
    21     6     5    2
