@<TRIPOS>MOLECULE
1gnl_FSO_A_1.pdb
 10 13 0 0 0
SMALL
GASTEIGER

@<TRIPOS>ATOM
      1 FE5        -3.2710    1.7910   -5.8160 Fe    1545  FSO1545     0.0000
      2 FE6        -1.1150    3.5030   -5.5760 Fe    1545  FSO1545     0.0000
      3 FE7        -3.8740    1.0060   -2.3250 Fe    1545  FSO1545     0.0000
      4 FE8        -0.6640    1.0860   -3.8300 Fe    1545  FSO1545     0.0000
      5  S5        -3.2820    4.0960   -5.6730 S.3   1545  FSO1545     0.0000
      6  S6        -1.0370    1.3250   -6.2090 S.3   1545  FSO1545     0.0000
      7  S7        -0.1150   -1.3760   -4.1100 S.3   1545  FSO1545     0.0000
      8  O8        -0.7800    3.2660   -3.6430 O.3   1545  FSO1545     0.0000
      9  O9        -1.7460    1.0090   -2.2380 O.3   1545  FSO1545     0.0000
     10  O10       -3.8990    0.6000   -4.3460 O.3   1545  FSO1545     0.0000
@<TRIPOS>BOND
     1     6     1    1
     2     6     2    1
     3     6     4    1
     4     1     5    1
     5     1     2    1
     6     1    10    1
     7     5     2    1
     8     2     8    1
     9    10     3    1
    10     7     4    1
    11     4     8    1
    12     4     9    1
    13     3     9    1
