@<TRIPOS>MOLECULE
1gnm_U0E_A_1.pdb
 42 42 0 0 0
SMALL
GASTEIGER

@<TRIPOS>ATOM
      1  C1       -10.0700   15.6730   32.1470 C.3   100  U0E100      0.0964
      2  C2        -9.9670   15.3250   30.6620 C.2   100  U0E100      0.2419
      3  C3       -10.7660   16.0590   28.4260 C.3   100  U0E100      0.1255
      4  C4       -12.2860   16.0110   28.1150 C.3   100  U0E100      0.0243
      5  C5       -12.9240   14.7800   28.7960 C.3   100  U0E100      0.0018
      6  C6       -14.4240   15.0320   28.9640 C.3   100  U0E100      0.0001
      7  C7       -15.0720   13.8480   29.6800 C.3   100  U0E100      0.0000
      8  C8       -14.8530   12.5510   28.8960 C.3   100  U0E100      0.0000
      9  C9       -13.3570   12.2850   28.6920 C.3   100  U0E100      0.0000
     10  C10      -12.6840   13.4800   28.0030 C.3   100  U0E100      0.0001
     11  C11      -10.1840   17.2570   27.6460 C.3   100  U0E100      0.1722
     12  C12       -8.7240   17.6300   27.9550 C.3   100  U0E100      0.0438
     13  C13       -7.8420   18.3080   26.8940 C.3   100  U0E100      0.0808
     14  C14       -6.4850   18.7290   27.4670 C.3   100  U0E100      0.0087
     15  C15       -5.4680   17.5850   27.4920 C.3   100  U0E100      0.0005
     16  C16       -5.8160   19.8490   26.6590 C.3   100  U0E100      0.0005
     17  C17       -7.5900   17.3310   25.7570 C.2   100  U0E100      0.2414
     18  C18       -7.6320   17.0130   23.3490 C.3   100  U0E100      0.1732
     19  C19       -8.9800   16.7580   22.6770 C.3   100  U0E100      0.0408
     20  C20       -8.8790   15.8070   21.4870 C.3   100  U0E100      0.0908
     21  C21       -8.6980   16.5470   20.1650 C.2   100  U0E100      0.2608
     22  C22       -6.6900   17.7470   22.3960 C.2   100  U0E100      0.2616
     23  C23       -4.5510   17.5570   21.2020 C.3   100  U0E100      0.1745
     24  C24       -4.4890   16.7130   19.9260 C.2   100  U0E100      0.2806
     25  C25       -3.1980   17.4750   21.9150 C.3   100  U0E100      0.0349
     26  C26       -2.2580   18.6290   21.5570 C.3   100  U0E100      0.0492
     27  C27       -1.7630   19.4020   22.7840 C.3   100  U0E100      0.2205
     28  C28        0.4810   19.9670   23.6900 C.cat 100  U0E100      0.5346
     29  N1       -10.6020   16.1960   29.8880 N.am  100  U0E100     -0.2046
     30  N2        -7.8240   17.8130   24.5600 N.am  100  U0E100     -0.1978
     31  N3        -8.0500   15.9730   19.1690 N.am  100  U0E100     -0.0878
     32  N4        -5.6100   17.0540   22.0870 N.am  100  U0E100     -0.1963
     33  N5        -4.1140   17.2520   18.7580 N.am  100  U0E100     -0.0863
     34  N6        -0.3720   19.0880   23.1420 N.pl3 100  U0E100     -0.0865
     35  N7         0.0750   21.1950   24.0400 N.pl3 100  U0E100      0.1354
     36  N8         1.7740   19.7090   23.9290 N.pl3 100  U0E100      0.1354
     37  O1        -9.3090   14.3330   30.3010 O.2   100  U0E100     -0.2733
     38  O2       -10.9450   18.4190   27.8970 O.3   100  U0E100     -0.2213
     39  O3        -7.2050   16.1780   25.9830 O.2   100  U0E100     -0.2733
     40  O4        -9.1560   17.6810   20.0310 O.2   100  U0E100     -0.2717
     41  O5        -6.9600   18.8860   21.9850 O.2   100  U0E100     -0.2715
     42  O6        -4.7830   15.5080   19.9420 O.2   100  U0E100     -0.2698
@<TRIPOS>BOND
     1    33    24   am
     2    31    21   am
     3    24    42    2
     4    24    23    1
     5    40    21    2
     6    21    20    1
     7    23    25    1
     8    23    32    1
     9    20    19    1
    10    26    25    1
    11    26    27    1
    12    41    22    2
    13    32    22   am
    14    22    18    1
    15    19    18    1
    16    27    34    1
    17    34    28    2
    18    18    30    1
    19    28    36    1
    20    28    35    1
    21    30    17   am
    22    17    39    2
    23    17    13    1
    24    16    14    1
    25    13    14    1
    26    13    12    1
    27    14    15    1
    28    11    38    1
    29    11    12    1
    30    11     3    1
    31    10     9    1
    32    10     5    1
    33     4     3    1
    34     4     5    1
    35     3    29    1
    36     9     8    1
    37     5     6    1
    38     8     7    1
    39     6     7    1
    40    29     2   am
    41    37     2    2
    42     2     1    1
