@<TRIPOS>MOLECULE
1gnn_U0E_A_1.pdb
 42 42 0 0 0
SMALL
GASTEIGER

@<TRIPOS>ATOM
      1  C1        -9.7870   15.5500   31.9810 C.3   100  U0E100      0.0964
      2  C2        -9.8910   15.3150   30.4740 C.2   100  U0E100      0.2419
      3  C3       -10.8230   16.2040   28.3790 C.3   100  U0E100      0.1255
      4  C4       -12.3130   16.0210   28.0540 C.3   100  U0E100      0.0243
      5  C5       -12.7500   14.6950   28.6840 C.3   100  U0E100      0.0018
      6  C6       -14.2430   14.7380   29.0180 C.3   100  U0E100      0.0001
      7  C7       -14.6920   13.3870   29.5710 C.3   100  U0E100      0.0000
      8  C8       -14.4220   12.2690   28.5580 C.3   100  U0E100      0.0000
      9  C9       -12.9350   12.2180   28.1880 C.3   100  U0E100      0.0000
     10  C10      -12.4610   13.5790   27.6630 C.3   100  U0E100      0.0001
     11  C11      -10.3670   17.5300   27.7370 C.3   100  U0E100      0.1722
     12  C12       -8.8930   17.8210   27.9520 C.3   100  U0E100      0.0438
     13  C13       -7.9830   18.3160   26.8370 C.3   100  U0E100      0.0808
     14  C14       -6.5880   18.5940   27.3800 C.3   100  U0E100      0.0087
     15  C15       -5.8750   17.3260   27.8570 C.3   100  U0E100      0.0005
     16  C16       -5.6610   19.2260   26.3410 C.3   100  U0E100      0.0005
     17  C17       -7.8460   17.2620   25.7430 C.2   100  U0E100      0.2414
     18  C18       -7.6690   16.9410   23.3400 C.3   100  U0E100      0.1732
     19  C19       -9.0130   16.7130   22.6530 C.3   100  U0E100      0.0408
     20  C20       -8.9090   15.7900   21.4390 C.3   100  U0E100      0.0908
     21  C21       -8.7030   16.5570   20.1350 C.2   100  U0E100      0.2608
     22  C22       -6.7030   17.6570   22.4020 C.2   100  U0E100      0.2616
     23  C23       -4.5390   17.4790   21.2780 C.3   100  U0E100      0.1745
     24  C24       -4.5400   16.7320   19.9440 C.2   100  U0E100      0.2806
     25  C25       -3.1860   17.2780   21.9600 C.3   100  U0E100      0.0349
     26  C26       -2.1630   18.3500   21.5840 C.3   100  U0E100      0.0492
     27  C27       -1.0180   18.4580   22.5920 C.3   100  U0E100      0.2205
     28  C28        0.0430   20.3510   23.7960 C.cat 100  U0E100      0.5346
     29  N1       -10.6160   16.2220   29.8360 N.am  100  U0E100     -0.2046
     30  N2        -7.8420   17.7610   24.5340 N.am  100  U0E100     -0.1978
     31  N3        -7.9470   16.0480   19.1810 N.am  100  U0E100     -0.0878
     32  N4        -5.6110   16.9720   22.1400 N.am  100  U0E100     -0.1963
     33  N5        -5.2640   17.1750   18.9090 N.am  100  U0E100     -0.0863
     34  N6        -1.0510   19.7070   23.3660 N.pl3 100  U0E100     -0.0865
     35  N7         1.2260   19.7230   23.8750 N.pl3 100  U0E100      0.1354
     36  N8         0.0580   21.6360   24.1740 N.pl3 100  U0E100      0.1354
     37  O1        -9.3170   14.3540   29.9400 O.2   100  U0E100     -0.2733
     38  O2       -11.1130   18.6060   28.2800 O.3   100  U0E100     -0.2213
     39  O3        -7.7470   16.0580   26.0180 O.2   100  U0E100     -0.2733
     40  O4        -9.2440   17.6510   19.9770 O.2   100  U0E100     -0.2717
     41  O5        -6.9620   18.7880   21.9640 O.2   100  U0E100     -0.2715
     42  O6        -3.8700   15.7010   19.7910 O.2   100  U0E100     -0.2698
@<TRIPOS>BOND
     1    33    24   am
     2    31    21   am
     3    42    24    2
     4    24    23    1
     5    40    21    2
     6    21    20    1
     7    23    25    1
     8    23    32    1
     9    20    19    1
    10    26    25    1
    11    26    27    1
    12    41    22    2
    13    32    22   am
    14    22    18    1
    15    27    34    1
    16    19    18    1
    17    18    30    1
    18    34    28    2
    19    28    35    1
    20    28    36    1
    21    30    17   am
    22    17    39    2
    23    17    13    1
    24    16    14    1
    25    13    14    1
    26    13    12    1
    27    14    15    1
    28    10     9    1
    29    10     5    1
    30    11    12    1
    31    11    38    1
    32    11     3    1
    33     4     3    1
    34     4     5    1
    35     9     8    1
    36     3    29    1
    37     8     7    1
    38     5     6    1
    39     6     7    1
    40    29     2   am
    41    37     2    2
    42     2     1    1
