@<TRIPOS>MOLECULE
1gno_U0E_B_1.pdb
 42 42 0 0 0
SMALL
GASTEIGER

@<TRIPOS>ATOM
      1  C1       -10.6580   15.8380   32.1840 C.3   100  U0E100      0.0964
      2  C2       -10.2920   15.5260   30.7320 C.2   100  U0E100      0.2419
      3  C3       -10.8580   15.9720   28.3960 C.3   100  U0E100      0.1255
      4  C4       -12.1480   15.7030   27.6380 C.3   100  U0E100      0.0243
      5  C5       -13.0410   14.5040   28.0270 C.3   100  U0E100      0.0018
      6  C6       -12.1770   13.2660   28.2840 C.3   100  U0E100      0.0001
      7  C7       -13.0650   12.0760   28.6400 C.3   100  U0E100      0.0000
      8  C8       -13.9120   12.3800   29.8790 C.3   100  U0E100      0.0000
      9  C9       -14.7710   13.6310   29.6580 C.3   100  U0E100      0.0000
     10  C10      -13.8950   14.8270   29.2670 C.3   100  U0E100      0.0001
     11  C11      -10.4060   17.2960   27.7610 C.3   100  U0E100      0.1722
     12  C12       -8.9050   17.5510   27.8090 C.3   100  U0E100      0.0438
     13  C13       -8.1610   18.2170   26.6510 C.3   100  U0E100      0.0808
     14  C14       -6.8790   18.8810   27.1530 C.3   100  U0E100      0.0087
     15  C15       -5.6790   17.9340   27.1520 C.3   100  U0E100      0.0005
     16  C16       -6.4590   20.0850   26.3060 C.3   100  U0E100      0.0005
     17  C17       -7.7980   17.1670   25.6040 C.2   100  U0E100      0.2414
     18  C18       -7.5590   16.7590   23.1990 C.3   100  U0E100      0.1732
     19  C19       -8.8370   16.3650   22.4540 C.3   100  U0E100      0.0408
     20  C20       -9.2150   17.3510   21.3470 C.3   100  U0E100      0.0908
     21  C21       -8.7320   16.9150   19.9610 C.2   100  U0E100      0.2608
     22  C22       -6.6430   17.5360   22.2540 C.2   100  U0E100      0.2616
     23  C23       -4.6500   17.3860   20.8390 C.3   100  U0E100      0.1745
     24  C24       -4.5800   16.5400   19.5670 C.2   100  U0E100      0.2806
     25  C25       -3.2730   17.4010   21.5050 C.3   100  U0E100      0.0349
     26  C26       -3.0540   18.6220   22.4000 C.3   100  U0E100      0.0492
     27  C27       -1.5900   18.8180   22.7970 C.3   100  U0E100      0.2205
     28  C28        0.3210   20.2910   22.2100 C.cat 100  U0E100      0.5346
     29  N1       -11.0620   16.1200   29.8420 N.am  100  U0E100     -0.2046
     30  N2        -7.8840   17.5980   24.3610 N.am  100  U0E100     -0.1978
     31  N3        -8.2410   15.7020   19.7840 N.am  100  U0E100     -0.0878
     32  N4        -5.6480   16.8260   21.7620 N.am  100  U0E100     -0.1963
     33  N5        -3.9870   17.0080   18.4600 N.am  100  U0E100     -0.0863
     34  N6        -0.9940   20.0310   22.2160 N.pl3 100  U0E100     -0.0865
     35  N7         1.1270   19.7980   23.1610 N.pl3 100  U0E100      0.1354
     36  N8         0.9310   21.0430   21.2850 N.pl3 100  U0E100      0.1354
     37  O1        -9.3530   14.7650   30.4570 O.2   100  U0E100     -0.2733
     38  O2       -11.0340   18.3910   28.4100 O.3   100  U0E100     -0.2213
     39  O3        -7.4630   16.0230   25.9400 O.2   100  U0E100     -0.2733
     40  O4        -8.8020   17.6930   19.0110 O.2   100  U0E100     -0.2717
     41  O5        -6.8540   18.7320   22.0030 O.2   100  U0E100     -0.2715
     42  O6        -5.0700   15.4020   19.5300 O.2   100  U0E100     -0.2698
@<TRIPOS>BOND
     1    33    24   am
     2    40    21    2
     3    42    24    2
     4    24    23    1
     5    31    21   am
     6    21    20    1
     7    23    25    1
     8    23    32    1
     9    36    28    1
    10    20    19    1
    11    25    26    1
    12    32    22   am
    13    41    22    2
    14    28    34    2
    15    28    35    1
    16    34    27    1
    17    22    18    1
    18    26    27    1
    19    19    18    1
    20    18    30    1
    21    30    17   am
    22    17    39    2
    23    17    13    1
    24    16    14    1
    25    13    14    1
    26    13    12    1
    27    15    14    1
    28     4     5    1
    29     4     3    1
    30    11    12    1
    31    11     3    1
    32    11    38    1
    33     5     6    1
    34     5    10    1
    35     6     7    1
    36     3    29    1
    37     7     8    1
    38    10     9    1
    39     9     8    1
    40    29     2   am
    41    37     2    2
    42     2     1    1
