@<TRIPOS>MOLECULE
1gnp_AGN_A_1.pdb
 41 44 0 0 0
SMALL
GASTEIGER

@<TRIPOS>ATOM
      1  PG         5.0120   31.7480   21.6680 P.3   167  AGN167      0.4884
      2  O1G        4.3680   32.7180   20.7720 O.2   167  AGN167     -0.2331
      3  O2G        4.3130   30.4790   21.7640 O.3   167  AGN167     -0.1240
      4  O3G        4.7880   32.3700   23.1080 O.3   167  AGN167     -0.1240
      5  N3B        6.6430   31.6350   21.5030 N.3   167  AGN167     -0.0163
      6  PB         7.1770   31.8190   19.9720 P.3   167  AGN167      0.4669
      7  O1B        7.5260   30.5150   19.3630 O.3   167  AGN167     -0.1253
      8  O2B        6.3620   32.6470   19.0520 O.2   167  AGN167     -0.2351
      9  O3A        8.6280   32.4980   20.1310 O.3   167  AGN167     -0.2360
     10  PA         8.9790   34.0030   19.5880 P.3   167  AGN167      0.2220
     11  O1A        9.1660   34.0470   18.1230 O.2   167  AGN167     -0.5170
     12  O2A        8.4090   35.1440   20.3390 O.3   167  AGN167     -0.4370
     13  O5'       10.4760   33.9300   20.1340 O.3   167  AGN167     -0.3111
     14  C5B       10.7890   33.4480   21.4340 C.3   167  AGN167      0.1823
     15  C4B       12.2270   33.7170   21.6640 C.3   167  AGN167      0.1868
     16  O4'       12.9740   33.0850   20.6130 O.3   167  AGN167     -0.3336
     17  C3B       12.5780   35.2290   21.6600 C.3   167  AGN167      0.2028
     18  O3'       13.3470   35.4060   22.8590 O.3   167  AGN167     -0.4464
     19  C2B       13.3340   35.3520   20.3330 C.3   167  AGN167      0.0972
     20  C1B       13.9810   34.0030   20.2040 C.3   167  AGN167      0.1992
     21  C'        13.0800   36.6360   23.5450 C.2   167  AGN167      0.3424
     22  O1'       12.6520   37.5700   22.8800 O.2   167  AGN167     -0.2448
     23  C1'       13.3290   36.7960   24.9340 C.ar  167  AGN167      0.0904
     24  C2'       14.1730   37.7470   25.4010 C.ar  167  AGN167      0.0716
     25  N2'       14.9100   38.5460   24.5270 N.pl3 167  AGN167     -0.2355
     26  CM'       15.3420   39.9170   24.7830 C.3   167  AGN167      0.1355
     27  C3'       14.2040   37.9950   26.7350 C.ar  167  AGN167      0.0163
     28  C4'       13.4350   37.3460   27.6260 C.ar  167  AGN167      0.0013
     29  C5'       12.6050   36.4270   27.1630 C.ar  167  AGN167      0.0003
     30  C6'       12.5340   36.1780   25.8250 C.ar  167  AGN167      0.0077
     31  N9        14.2800   33.6400   18.8090 N.pl3 167  AGN167     -0.2374
     32  C8        13.3700   33.2340   17.8980 C.3   167  AGN167      0.2245
     33  N7        13.8170   32.5540   16.8890 N.2   167  AGN167     -0.2322
     34  C5        15.1940   32.5350   17.1580 C.2   167  AGN167      0.2182
     35  C6        16.2380   31.9580   16.4230 C.1   167  AGN167      0.2372
     36  O6        16.2030   31.4120   15.3220 O.2   167  AGN167     -0.2069
     37  N1        17.4140   32.1620   17.0460 N.2   167  AGN167     -0.2485
     38  C2        17.6320   32.8590   18.1970 C.1   167  AGN167      0.2531
     39  N2        18.9000   33.0480   18.5500 N.pl3 167  AGN167     -0.0226
     40  N3        16.6590   33.3880   18.9130 N.2   167  AGN167     -0.3074
     41  C4        15.4690   33.1970   18.3280 C.2   167  AGN167      0.2299
@<TRIPOS>BOND
     1    36    35    2
     2    35    37    2
     3    35    34    1
     4    33    34    2
     5    33    32    1
     6    37    38    2
     7    34    41    1
     8    32    31    1
     9    11    10    2
    10    38    39    1
    11    38    40    2
    12    41    31    1
    13    41    40    2
    14    31    20    1
    15     8     6    2
    16     7     6    1
    17    10     9    1
    18    10    13    1
    19    10    12    1
    20     6     9    1
    21     6     5    1
    22    13    14    1
    23    20    19    1
    24    20    16    1
    25    19    17    1
    26    16    15    1
    27     2     1    2
    28    14    15    1
    29     5     1    1
    30    17    15    1
    31    17    18    1
    32     1     3    1
    33     1     4    1
    34    18    21    1
    35    22    21    2
    36    21    23    1
    37    25    26    1
    38    25    24    1
    39    23    24   ar
    40    23    30   ar
    41    24    27   ar
    42    30    29   ar
    43    27    28   ar
    44    29    28   ar
