@<TRIPOS>MOLECULE
1gnq_CAG_A_1.pdb
 43 46 0 0 0
SMALL
GASTEIGER

@<TRIPOS>ATOM
      1  PG         5.4550   32.3870   22.1190 P.3   167  CAG167      0.2191
      2  O1G        4.7510   33.1500   21.0550 O.2   167  CAG167     -0.5170
      3  O2G        4.6890   31.3410   22.8330 O.3   167  CAG167     -0.4371
      4  O3G        6.1240   33.4900   23.1320 O.3   167  CAG167     -0.3118
      5  PB         7.5130   32.3300   20.2760 P.3   167  CAG167      0.2237
      6  O1B        8.1800   31.2080   19.5720 O.3   167  CAG167     -0.4369
      7  O2B        6.5500   33.1830   19.5300 O.2   167  CAG167     -0.5168
      8  O3B        6.7700   31.6380   21.5410 O.3   167  CAG167     -0.2701
      9  PA         9.3200   34.3070   19.7680 P.3   167  CAG167      0.2189
     10  O1A        9.6260   33.5590   18.5340 O.2   167  CAG167     -0.5170
     11  O2A        8.6170   35.6030   19.6890 O.3   167  CAG167     -0.4371
     12  O3A        8.6530   33.3080   20.8440 O.3   167  CAG167     -0.2701
     13  O5'       10.6810   34.5340   20.5620 O.3   167  CAG167     -0.3112
     14  C5B       11.7750   33.6710   20.2950 C.3   167  CAG167      0.1813
     15  C4B       12.8360   33.9200   21.3430 C.3   167  CAG167      0.1799
     16  O4'       14.1200   33.4860   20.8850 O.3   167  CAG167     -0.3326
     17  C3B       12.9650   35.4130   21.5200 C.3   167  CAG167      0.2158
     18  O3'       13.5970   35.6560   22.7800 O.3   167  CAG167     -0.2175
     19  C2B       13.8530   35.7880   20.3430 C.3   167  CAG167      0.2310
     20  O2'       14.6380   36.9470   20.6140 O.3   167  CAG167     -0.2158
     21  C1B       14.7200   34.5530   20.1330 C.3   167  CAG167      0.2293
     22  N9        14.7370   34.1310   18.7220 N.pl3 167  CAG167     -0.2354
     23  C8        13.7100   33.5540   18.0160 C.3   167  CAG167      0.2246
     24  N7        14.1010   32.6050   17.2060 N.2   167  CAG167     -0.2322
     25  C5        15.4930   32.7070   17.2230 C.2   167  CAG167      0.2182
     26  C6        16.4830   32.0380   16.4290 C.1   167  CAG167      0.2372
     27  O6        16.3670   31.4490   15.3450 O.2   167  CAG167     -0.2069
     28  N1        17.7600   32.3740   16.8540 N.2   167  CAG167     -0.2485
     29  C2        18.0560   33.3510   17.7800 C.1   167  CAG167      0.2531
     30  N2        19.3530   33.5550   18.0430 N.pl3 167  CAG167     -0.0226
     31  N3        17.1230   34.0770   18.4120 N.2   167  CAG167     -0.3074
     32  C4        15.8740   33.6850   18.1020 C.2   167  CAG167      0.2300
     33  C'         6.7530   33.3270   24.4300 C.3   167  CAG167      0.1457
     34  CM'        6.6870   31.8610   24.8240 C.3   167  CAG167      0.0375
     35  C1'        8.2000   33.7780   24.5610 C.ar  167  CAG167      0.0274
     36  C2'        8.7420   34.8420   23.8950 C.ar  167  CAG167      0.1412
     37  N2'        8.0360   35.7290   23.0820 N.pl3 167  CAG167      0.0574
     38  O'L        6.6280   35.8350   23.1160 O.2   167  CAG167     -0.1261
     39  O'M        8.7940   36.5910   22.2650 O.2   167  CAG167     -0.1261
     40  C3'       10.0490   35.1530   24.0420 C.ar  167  CAG167      0.0238
     41  C4'       10.8240   34.5020   24.9350 C.ar  167  CAG167      0.0017
     42  C5'       10.2820   33.5230   25.6830 C.ar  167  CAG167     -0.0001
     43  C6'        8.9900   33.1760   25.4940 C.ar  167  CAG167     -0.0003
@<TRIPOS>BOND
     1    27    26    2
     2    26    28    2
     3    26    25    1
     4    28    29    2
     5    24    25    2
     6    24    23    1
     7    25    32    1
     8    29    30    1
     9    29    31    2
    10    23    22    1
    11    32    31    2
    12    32    22    1
    13    10     9    2
    14    22    21    1
    15     7     5    2
    16     6     5    1
    17    11     9    1
    18     9    13    1
    19     9    12    1
    20    21    19    1
    21    21    16    1
    22     5    12    1
    23     5     8    1
    24    14    13    1
    25    14    15    1
    26    19    20    1
    27    19    17    1
    28    16    15    1
    29     2     1    2
    30    15    17    1
    31    17    18    1
    32     8     1    1
    33     1     3    1
    34     1     4    1
    35    39    37    2
    36    37    38    2
    37    37    36    1
    38     4    33    1
    39    36    40   ar
    40    36    35   ar
    41    40    41   ar
    42    33    35    1
    43    33    34    1
    44    35    43   ar
    45    41    42   ar
    46    43    42   ar
