@<TRIPOS>MOLECULE
1gnt_FSO_A_1.pdb
 10 13 0 0 0
SMALL
GASTEIGER

@<TRIPOS>ATOM
      1 FE5        53.7310   29.9810   12.5750 Fe    1555  FSO1555     0.0000
      2 FE6        53.2290   27.2770   12.4620 Fe    1555  FSO1555     0.0000
      3 FE7        53.3520   30.8950   16.0770 Fe    1555  FSO1555     0.0000
      4 FE8        51.2720   29.0010   14.2230 Fe    1555  FSO1555     0.0000
      5  S5        55.1850   28.2000   12.8240 S.3   1555  FSO1555     0.0000
      6  S6        51.8150   28.9210   11.8680 S.3   1555  FSO1555     0.0000
      7  S7        49.2560   30.5050   13.7520 S.3   1555  FSO1555     0.0000
      8  O8        52.6510   27.2500   14.4860 O.3   1555  FSO1555     0.0000
      9  O9        51.7120   29.4710   16.0010 O.3   1555  FSO1555     0.0000
     10  O10       53.1650   30.1460   14.3800 O.3   1555  FSO1555     0.0000
@<TRIPOS>BOND
     1     6     2    1
     2     6     1    1
     3     6     4    1
     4     2     1    1
     5     2     5    1
     6     2     8    1
     7     1     5    1
     8     1    10    1
     9     7     4    1
    10     4     8    1
    11     4     9    1
    12    10     3    1
    13     9     3    1
