@<TRIPOS>MOLECULE
1gnw_GTX_A_1.pdb
 31 30 0 0 0
SMALL
GASTEIGER

@<TRIPOS>ATOM
      1  N1        26.8720   63.4880   50.0010 N.4   212  GTX212      0.3888
      2  CA1       27.2340   62.0510   49.9590 C.3   212  GTX212      0.0408
      3  C1        28.5580   61.8550   49.2460 C.2   212  GTX212      0.3448
      4  O11       29.3170   60.9640   49.6680 O.co2 212  GTX212     -0.2480
      5  O12       28.7980   62.5540   48.2460 O.co2 212  GTX212     -0.2480
      6  CB1       26.1710   61.2500   49.2050 C.3   212  GTX212     -0.0013
      7  CG1       26.2890   59.7410   49.4170 C.3   212  GTX212      0.0835
      8  CD1       24.9760   59.0070   49.2110 C.2   212  GTX212      0.2227
      9  OE1       23.9430   59.6100   48.9570 O.2   212  GTX212     -0.2751
     10  N2        25.0230   57.6880   49.2890 N.am  212  GTX212     -0.2977
     11  CA2       23.8260   56.8950   49.1310 C.3   212  GTX212      0.1594
     12  C2        23.4380   56.3310   50.4930 C.2   212  GTX212      0.2416
     13  O2        24.2740   55.7670   51.2050 O.2   212  GTX212     -0.2733
     14  CB2       24.0930   55.7710   48.1480 C.3   212  GTX212      0.0865
     15  SG2       22.5840   54.8820   47.6940 S.3   212  GTX212     -0.1380
     16  C1S       22.5520   54.2380   45.9930 C.3   212  GTX212      0.0576
     17  C2S       22.2420   52.7600   46.0150 C.3   212  GTX212      0.0116
     18  C3S       21.9120   52.2170   44.6590 C.3   212  GTX212      0.0009
     19  C4S       21.6640   50.7170   44.7450 C.3   212  GTX212      0.0000
     20  C5S       21.2550   50.1320   43.3860 C.3   212  GTX212      0.0000
     21  C6S       21.1070   48.6260   43.2490 C.3   212  GTX212      0.0000
     22  N3        22.1850   56.4960   50.8720 N.am  212  GTX212     -0.2935
     23  CA3       21.7490   55.9800   52.1530 C.3   212  GTX212      0.2051
     24  C3        21.0450   57.0410   52.9600 C.2   212  GTX212      0.3845
     25  O31       20.9860   58.1810   52.4780 O.co2 212  GTX212     -0.2437
     26  O32       20.5580   56.7550   54.0770 O.co2 212  GTX212     -0.2437
     27 HN11       25.9250   63.5330   50.4260 H     212  GTX212     -0.0885
     28 HN12       26.8450   63.7420   48.9850 H     212  GTX212     -0.0885
     29 HN13       27.5710   63.9840   50.5450 H     212  GTX212     -0.0885
     30  HN2       25.8980   57.2840   49.4530 H     212  GTX212      0.1498
     31  HN3       21.5570   56.9940   50.3170 H     212  GTX212      0.1500
@<TRIPOS>BOND
     1    21    20    1
     2    20    19    1
     3    18    19    1
     4    18    17    1
     5    16    17    1
     6    16    15    1
     7    15    14    1
     8    14    11    1
     9     5     3   ar
    10     9     8    2
    11    28     1    1
    12    11    10    1
    13    11    12    1
    14     6     7    1
    15     6     2    1
    16     8    10   am
    17     8     7    1
    18     3     4   ar
    19     3     2    1
    20    10    30    1
    21     2     1    1
    22     1    27    1
    23     1    29    1
    24    31    22    1
    25    12    22   am
    26    12    13    2
    27    22    23    1
    28    23    24    1
    29    25    24   ar
    30    24    26   ar
