@<TRIPOS>MOLECULE
1goj_ADP_A_1.pdb
 27 29 0 0 0
SMALL
GASTEIGER

@<TRIPOS>ATOM
      1  PB        32.8860   28.2860   48.4420 P.3   400  ADP400      0.5373
      2  O1B       32.0620   27.4720   49.3620 O.3   400  ADP400     -0.1143
      3  O2B       33.0370   29.7410   48.7020 O.3   400  ADP400     -0.1143
      4  O3B       34.2080   27.6120   48.2220 O.2   400  ADP400     -0.2221
      5  PA        31.9840   27.2630   45.8060 P.3   400  ADP400      0.2231
      6  O1A       32.8710   27.9740   44.8680 O.2   400  ADP400     -0.5169
      7  O2A       32.2270   25.8490   46.2220 O.3   400  ADP400     -0.4370
      8  O3A       32.3160   28.3090   46.9570 O.3   400  ADP400     -0.2261
      9  O5'       30.4730   27.4910   45.3250 O.3   400  ADP400     -0.3111
     10  C5'       29.3460   26.5580   45.5780 C.3   400  ADP400      0.1813
     11  C4'       28.5510   26.5160   44.2400 C.3   400  ADP400      0.1821
     12  O4'       28.8520   27.7820   43.5830 O.3   400  ADP400     -0.3135
     13  C3'       29.1700   25.5060   43.3440 C.3   400  ADP400      0.2184
     14  O3'       28.3250   24.4160   42.9450 O.3   400  ADP400     -0.2174
     15  C2'       29.7600   26.5070   42.3230 C.3   400  ADP400      0.2570
     16  O2'       30.0520   25.9150   41.0890 O.3   400  ADP400     -0.2130
     17  C1'       28.7850   27.6160   42.2300 C.3   400  ADP400      0.3186
     18  N9        29.1960   28.9410   41.7500 N.pl3 400  ADP400     -0.1439
     19  C8        29.9610   29.8420   42.3840 C.3   400  ADP400      0.3377
     20  N7        30.1530   30.9480   41.6670 N.2   400  ADP400     -0.2095
     21  C5        29.4960   30.7090   40.5930 C.2   400  ADP400      0.2526
     22  C6        29.4310   31.6160   39.5550 C.2   400  ADP400      0.4393
     23  N6        30.0420   32.7910   39.5970 N.pl3 400  ADP400      0.2180
     24  N1        28.6850   31.1840   38.4910 N.2   400  ADP400      0.0021
     25  C2        28.0550   29.9770   38.4360 C.3   400  ADP400      0.5254
     26  N3        28.1420   29.1120   39.4700 N.2   400  ADP400     -0.0055
     27  C4        28.8780   29.4780   40.5820 C.2   400  ADP400      0.3518
@<TRIPOS>BOND
     1    25    24    1
     2    25    26    1
     3    24    22    2
     4    26    27    2
     5    22    23    1
     6    22    21    1
     7    27    21    1
     8    27    18    1
     9    21    20    2
    10    16    15    1
    11    20    19    1
    12    18    17    1
    13    18    19    1
    14    17    15    1
    15    17    12    1
    16    15    13    1
    17    14    13    1
    18    13    11    1
    19    12    11    1
    20    11    10    1
    21     6     5    2
    22     9    10    1
    23     9     5    1
    24     5     7    1
    25     5     8    1
    26     8     1    1
    27     4     1    2
    28     1     3    1
    29     1     2    1
