@<TRIPOS>MOLECULE
1gol_ATP_A_1.pdb
 31 32 0 0 0
SMALL
GASTEIGER

@<TRIPOS>ATOM
      1  PG        -8.1100   17.6720   43.3890 P.3   581  ATP581      0.5373
      2  O1G       -8.4270   16.4600   42.6360 O.3   581  ATP581     -0.1143
      3  O2G       -7.6220   18.8110   42.5440 O.2   581  ATP581     -0.2221
      4  O3G       -7.3050   17.3660   44.6350 O.3   581  ATP581     -0.1143
      5  PB       -10.9670   17.5780   43.6720 P.3   581  ATP581      0.2277
      6  O1B      -11.2400   16.3730   44.4890 O.3   581  ATP581     -0.4368
      7  O2B      -11.8350   18.7660   43.7700 O.2   581  ATP581     -0.5168
      8  O3B       -9.5650   18.1290   43.9980 O.3   581  ATP581     -0.2258
      9  PA       -11.2520   15.9620   41.1050 P.3   581  ATP581      0.2189
     10  O1A      -10.3840   15.7840   39.8390 O.2   581  ATP581     -0.5170
     11  O2A      -11.4590   14.7080   41.9800 O.3   581  ATP581     -0.4371
     12  O3A      -10.6810   17.2070   42.0710 O.3   581  ATP581     -0.2700
     13  O5'      -12.8480   16.7690   40.5540 O.3   581  ATP581     -0.3112
     14  C5'      -13.5080   17.9030   41.4110 C.3   581  ATP581      0.1813
     15  C4'      -14.5480   17.6350   42.6840 C.3   581  ATP581      0.1821
     16  O4'      -15.8540   16.7670   42.3120 O.3   581  ATP581     -0.3136
     17  C3'      -14.2090   17.2190   44.2240 C.3   581  ATP581      0.2184
     18  O3'      -15.1620   17.9420   44.9440 O.3   581  ATP581     -0.2174
     19  C2'      -14.5810   15.8170   44.3340 C.3   581  ATP581      0.2569
     20  O2'      -14.7070   15.2400   45.5900 O.3   581  ATP581     -0.2130
     21  C1'      -15.9170   15.6430   43.5240 C.3   581  ATP581      0.3169
     22  N9       -15.9130   14.2940   42.9190 N.pl3 581  ATP581     -0.1655
     23  C8       -14.6670   13.8970   42.0050 C.3   581  ATP581      0.2552
     24  N7       -15.5380   13.0210   40.5150 N.3   581  ATP581     -0.1070
     25  C5       -16.8030   12.8900   41.1820 C.3   581  ATP581      0.3092
     26  C6       -17.5400   11.6980   41.3680 C.2   581  ATP581      0.4203
     27  N6       -17.3770   10.4790   40.8100 N.pl3 581  ATP581      0.2130
     28  N1       -18.6220   12.0860   42.2890 N.2   581  ATP581     -0.0017
     29  C2       -18.9960   13.4440   42.6330 C.3   581  ATP581      0.5248
     30  N3       -18.2740   14.5030   42.2900 N.2   581  ATP581     -0.0098
     31  C4       -17.0540   13.9780   42.0570 C.2   581  ATP581      0.3313
@<TRIPOS>BOND
     1    10     9    2
     2    24    25    1
     3    13     9    1
     4    13    14    1
     5    27    26    1
     6     9    11    1
     7     9    12    1
     8    25    26    1
     9    25    31    1
    10    26    28    2
    11    14    15    1
    12    23    22    1
    13    31    30    2
    14    31    22    1
    15    12     5    1
    16    28    29    1
    17    30    29    1
    18    16    15    1
    19    16    21    1
    20     3     1    2
    21     2     1    1
    22    15    17    1
    23    22    21    1
    24     1     8    1
    25     1     4    1
    26    21    19    1
    27     5     7    2
    28     5     8    1
    29     5     6    1
    30    17    19    1
    31    17    18    1
    32    19    20    1
