@<TRIPOS>MOLECULE
1goq_XYP_A_2.pdb
 10 10 0 0 0
SMALL
GASTEIGER

@<TRIPOS>ATOM
      1  O4A       -5.8280    6.1280    5.5910 O.3   402  XYP402     -0.1869
      2  C1B       -4.6300    6.3310    6.2900 C.3   402  XYP402      0.3024
      3  C2B       -3.5010    5.7870    5.4390 C.3   402  XYP402      0.2434
      4  C3B       -2.1690    6.1160    6.0660 C.3   402  XYP402      0.2199
      5  C4B       -2.0780    7.6090    6.3080 C.3   402  XYP402      0.2143
      6  C5B       -3.2410    8.0120    7.1950 C.3   402  XYP402      0.1804
      7  O2B       -3.6580    4.3710    5.3920 O.3   402  XYP402     -0.2148
      8  O3B       -1.1210    5.7020    5.1840 O.3   402  XYP402     -0.2174
      9  O4B       -0.8500    7.9100    6.9620 O.3   402  XYP402     -0.2176
     10  O5B       -4.4860    7.7140    6.5290 O.3   402  XYP402     -0.3237
@<TRIPOS>BOND
     1     8     4    1
     2     7     3    1
     3     3     4    1
     4     3     2    1
     5     1     2    1
     6     4     5    1
     7     2    10    1
     8     5     9    1
     9     5     6    1
    10    10     6    1
