@<TRIPOS>MOLECULE
1gor_XYS_A_1.pdb
 10 10 0 0 0
SMALL
GASTEIGER

@<TRIPOS>ATOM
      1  C1        -4.8030    6.5560    5.6690 C.3   402  XYS402      0.3024
      2  C2        -3.6060    5.7630    5.1280 C.3   402  XYS402      0.2434
      3  C3        -2.3620    6.0860    5.9370 C.3   402  XYS402      0.2199
      4  C4        -2.1500    7.5820    5.9620 C.3   402  XYS402      0.2143
      5  C5        -3.3870    8.2680    6.4830 C.3   402  XYS402      0.1804
      6  O1        -5.1110    6.1130    6.9550 O.3   402  XYS402     -0.1869
      7  O2        -3.9140    4.3570    5.1900 O.3   402  XYS402     -0.2148
      8  O3        -1.2180    5.4700    5.3390 O.3   402  XYS402     -0.2174
      9  O4        -1.0530    7.8940    6.8160 O.3   402  XYS402     -0.2176
     10  O5        -4.5170    7.9440    5.6610 O.3   402  XYS402     -0.3237
@<TRIPOS>BOND
     1     2     7    1
     2     2     1    1
     3     2     3    1
     4     8     3    1
     5    10     1    1
     6    10     5    1
     7     1     6    1
     8     3     4    1
     9     4     5    1
    10     4     9    1
