@<TRIPOS>MOLECULE
1gos_NYP_A_1.pdb
 12 12 0 0 0
SMALL
GASTEIGER

@<TRIPOS>ATOM
      1  C8N       56.1030  153.0880   26.3630 C.3   601  NYP601      0.0902
      2  N8        55.0770  153.5800   25.4560 N.3   601  NYP601     -0.2639
      3  C9        54.9490  152.9950   24.2790 C.3   601  NYP601      0.0992
      4  C10       55.8290  151.8020   24.0310 C.2   601  NYP601     -0.0088
      5  C11       56.1350  151.5350   22.7670 C.2   601  NYP601     -0.0035
      6  C7        54.3010  154.7970   25.6690 C.3   601  NYP601      0.0994
      7  C1        53.8570  155.0930   27.0710 C.ar  601  NYP601     -0.0061
      8  C2        53.7090  156.4170   27.4580 C.ar  601  NYP601     -0.0029
      9  C3        53.2320  156.7120   28.7380 C.ar  601  NYP601     -0.0003
     10  C4        52.9020  155.6780   29.6250 C.ar  601  NYP601     -0.0000
     11  C5        53.0560  154.3540   29.2210 C.ar  601  NYP601     -0.0003
     12  C6        53.5210  154.0650   27.9320 C.ar  601  NYP601     -0.0029
@<TRIPOS>BOND
     1     5     4    2
     2     4     3    1
     3     3     2    1
     4     2     6    1
     5     2     1    1
     6     6     7    1
     7     7     8   ar
     8     7    12   ar
     9     8     9   ar
    10    12    11   ar
    11     9    10   ar
    12    11    10   ar
