@<TRIPOS>MOLECULE
1got_GDP_G_1.pdb
 28 30 0 0 0
SMALL
GASTEIGER

@<TRIPOS>ATOM
      1  PB        14.5720   34.3110   22.0380 P.3   355  GDP355      0.5373
      2  O1B       15.1110   34.7940   23.3290 O.3   355  GDP355     -0.1143
      3  O2B       14.9340   34.9630   20.7900 O.2   355  GDP355     -0.2221
      4  O3B       14.6890   32.7860   21.9520 O.3   355  GDP355     -0.1143
      5  O3A       12.9780   34.3740   22.2650 O.3   355  GDP355     -0.2261
      6  PA        11.8980   34.9800   21.2030 P.3   355  GDP355      0.2231
      7  O1A       12.0800   36.4180   21.1070 O.3   355  GDP355     -0.4370
      8  O2A       11.9690   34.1350   20.0040 O.2   355  GDP355     -0.5169
      9  O5'       10.6270   34.6320   22.1480 O.3   355  GDP355     -0.3111
     10  C5'       10.0820   33.2930   22.2140 C.3   355  GDP355      0.1813
     11  C4'        8.5260   33.2860   22.0150 C.3   355  GDP355      0.1799
     12  O4'        7.8260   33.9680   23.0360 O.3   355  GDP355     -0.3326
     13  C3'        8.0570   33.9500   20.7090 C.3   355  GDP355      0.2158
     14  O3'        6.9780   33.2240   20.1220 O.3   355  GDP355     -0.2175
     15  C2'        7.6830   35.3330   21.1290 C.3   355  GDP355      0.2310
     16  O2'        6.8170   35.9370   20.1970 O.3   355  GDP355     -0.2158
     17  C1'        7.1100   35.0830   22.4670 C.3   355  GDP355      0.2293
     18  N9         7.2500   36.2470   23.3470 N.pl3 355  GDP355     -0.2354
     19  C8         8.3310   37.0060   23.6650 C.3   355  GDP355      0.2246
     20  N7         8.1420   37.8950   24.5840 N.2   355  GDP355     -0.2322
     21  C5         6.8090   37.7020   24.9240 C.2   355  GDP355      0.2182
     22  C6         5.9840   38.3710   25.8800 C.1   355  GDP355      0.2372
     23  O6         6.2650   39.2840   26.6560 O.2   355  GDP355     -0.2069
     24  N1         4.6840   37.8540   25.8940 N.2   355  GDP355     -0.2485
     25  C2         4.2220   36.8360   25.0830 C.1   355  GDP355      0.2531
     26  N2         2.9480   36.4830   25.2350 N.pl3 355  GDP355     -0.0226
     27  N3         4.9880   36.2070   24.1830 N.2   355  GDP355     -0.3074
     28  C4         6.2660   36.6890   24.1650 C.2   355  GDP355      0.2300
@<TRIPOS>BOND
     1     8     6    2
     2    14    13    1
     3    16    15    1
     4    13    15    1
     5    13    11    1
     6     3     1    2
     7     7     6    1
     8    15    17    1
     9     6     9    1
    10     6     5    1
    11     4     1    1
    12    11    10    1
    13    11    12    1
    14     1     5    1
    15     1     2    1
    16     9    10    1
    17    17    12    1
    18    17    18    1
    19    18    19    1
    20    18    28    1
    21    19    20    1
    22    28    27    2
    23    28    21    1
    24    27    25    2
    25    20    21    2
    26    21    22    1
    27    25    26    1
    28    25    24    2
    29    22    24    2
    30    22    23    2
