@<TRIPOS>MOLECULE
1gox_FMN_A_1.pdb
 31 33 0 0 0
SMALL
GASTEIGER

@<TRIPOS>ATOM
      1  N1        50.9590   53.0850   23.5610 N.2   370  FMN370     -0.2887
      2  C2        49.8070   52.8170   24.2390 C.1   370  FMN370      0.3669
      3  O2        49.8380   52.7450   25.4640 O.2   370  FMN370     -0.1744
      4  N3        48.6390   52.6400   23.5450 N.2   370  FMN370     -0.2300
      5  C4        48.5660   52.7520   22.1820 C.1   370  FMN370      0.2513
      6  O4        47.5080   52.5460   21.5820 O.2   370  FMN370     -0.2057
      7  C4A       49.8320   53.0410   21.4720 C.2   370  FMN370      0.2703
      8  N5        49.8110   53.1200   20.1700 N.2   370  FMN370     -0.3882
      9  C5A       50.9690   53.3720   19.5380 C.2   370  FMN370      0.1277
     10  C6        50.9790   53.4870   18.1050 C.3   370  FMN370      0.0820
     11  C7        52.1790   53.7610   17.4350 C.2   370  FMN370     -0.0408
     12  C7M       52.1860   53.8660   15.9310 C.3   370  FMN370      0.0265
     13  C8        53.3820   53.9290   18.1460 C.2   370  FMN370     -0.0280
     14  C8M       54.6660   54.2540   17.4360 C.3   370  FMN370      0.0304
     15  C9        53.3570   53.8290   19.5290 C.2   370  FMN370      0.0123
     16  C9A       52.2040   53.5840   20.2180 C.2   370  FMN370      0.0793
     17  N10       52.2370   53.4960   21.6090 N.pl3 370  FMN370     -0.2545
     18  C10       51.0160   53.2040   22.1990 C.2   370  FMN370      0.2449
     19  C1'       53.5200   53.7040   22.4080 C.3   370  FMN370      0.1336
     20  C2'       54.3000   52.3800   22.5470 C.3   370  FMN370      0.2048
     21  O2'       53.5470   51.4040   23.1850 O.3   370  FMN370     -0.2185
     22  C3'       55.5700   52.7580   23.3560 C.3   370  FMN370      0.2165
     23  O3'       55.1880   53.4960   24.5140 O.3   370  FMN370     -0.2175
     24  C4'       56.4840   53.7200   22.5290 C.3   370  FMN370      0.2147
     25  O4'       56.3000   53.4360   21.1620 O.3   370  FMN370     -0.2176
     26  C5'       57.9660   53.3480   22.9510 C.3   370  FMN370      0.1892
     27  O5'       58.8440   54.3550   22.4270 O.3   370  FMN370     -0.2674
     28  P         59.8110   54.0880   21.2070 P.3   370  FMN370      0.5327
     29  O1P       60.4900   52.6770   21.4060 O.3   370  FMN370     -0.1145
     30  O2P       60.8920   55.2870   21.1240 O.3   370  FMN370     -0.1145
     31  O3P       59.0950   53.9130   19.8280 O.2   370  FMN370     -0.2224
@<TRIPOS>BOND
     1    12    11    1
     2    11    10    1
     3    11    13    2
     4    14    13    1
     5    10     9    1
     6    13    15    1
     7    15    16    2
     8     9     8    2
     9     9    16    1
    10    31    28    2
    11     8     7    2
    12    16    17    1
    13    30    28    1
    14    25    24    1
    15    28    29    1
    16    28    27    1
    17     7     5    1
    18     7    18    1
    19     6     5    2
    20    17    18    1
    21    17    19    1
    22     5     4    2
    23    18     1    2
    24    19    20    1
    25    27    26    1
    26    24    26    1
    27    24    22    1
    28    20    21    1
    29    20    22    1
    30    22    23    1
    31     4     2    2
    32     1     2    2
    33     2     3    2
