@<TRIPOS>MOLECULE
1gp2_GDP_A_1.pdb
 28 30 0 0 0
SMALL
GASTEIGER

@<TRIPOS>ATOM
      1  PB         0.2060   53.2980  -31.0610 P.3   355  GDP355      0.5373
      2  O1B        0.4720   54.1080  -32.2360 O.2   355  GDP355     -0.2221
      3  O2B        0.7960   51.9540  -30.9510 O.3   355  GDP355     -0.1143
      4  O3B       -1.2310   53.3400  -30.7650 O.3   355  GDP355     -0.1143
      5  O3A        1.0590   54.2850  -30.0230 O.3   355  GDP355     -0.2261
      6  PA         2.5120   53.9780  -29.3660 P.3   355  GDP355      0.2231
      7  O1A        3.6350   53.8790  -30.3080 O.2   355  GDP355     -0.5169
      8  O2A        2.3470   52.9280  -28.3450 O.3   355  GDP355     -0.4370
      9  O5'        2.7520   55.3360  -28.6130 O.3   355  GDP355     -0.3111
     10  C5'        2.9070   56.5160  -29.3410 C.3   355  GDP355      0.1813
     11  C4'        3.9410   57.4220  -28.7540 C.3   355  GDP355      0.1799
     12  O4'        3.6170   58.0120  -27.4960 O.3   355  GDP355     -0.3326
     13  C3'        5.1780   56.6100  -28.5030 C.3   355  GDP355      0.2158
     14  O3'        6.2240   57.5780  -28.4990 O.3   355  GDP355     -0.2175
     15  C2'        5.0140   56.0290  -27.1010 C.3   355  GDP355      0.2310
     16  O2'        6.2100   55.6660  -26.3300 O.3   355  GDP355     -0.2158
     17  C1'        4.3820   57.2250  -26.4450 C.3   355  GDP355      0.2293
     18  N9         3.7800   56.7530  -25.1150 N.pl3 355  GDP355     -0.2354
     19  C8         2.8070   55.8140  -24.9070 C.3   355  GDP355      0.2246
     20  N7         2.0740   55.9490  -23.8620 N.2   355  GDP355     -0.2322
     21  C5         2.6630   57.0700  -23.2560 C.2   355  GDP355      0.2182
     22  C6         2.3180   57.7430  -22.0340 C.1   355  GDP355      0.2372
     23  O6         1.3940   57.4160  -21.2810 O.2   355  GDP355     -0.2069
     24  N1         3.1710   58.8620  -21.7910 N.2   355  GDP355     -0.2485
     25  C2         4.2210   59.2720  -22.5820 C.1   355  GDP355      0.2531
     26  N2         4.9580   60.3300  -22.2460 N.pl3 355  GDP355     -0.0226
     27  N3         4.5400   58.6300  -23.7090 N.2   355  GDP355     -0.3074
     28  C4         3.7260   57.5450  -23.9930 C.2   355  GDP355      0.2300
@<TRIPOS>BOND
     1     2     1    2
     2     1     3    1
     3     1     4    1
     4     1     5    1
     5     7     6    2
     6     5     6    1
     7     6     9    1
     8     6     8    1
     9    10    11    1
    10    10     9    1
    11    11    13    1
    12    11    12    1
    13    13    14    1
    14    13    15    1
    15    12    17    1
    16    15    17    1
    17    15    16    1
    18    17    18    1
    19    18    19    1
    20    18    28    1
    21    19    20    1
    22    28    27    2
    23    28    21    1
    24    20    21    2
    25    27    25    2
    26    21    22    1
    27    25    26    1
    28    25    24    2
    29    22    24    2
    30    22    23    2
