@<TRIPOS>MOLECULE
1gp4_AKG_A_1.pdb
 10 9 0 0 0
SMALL
GASTEIGER

@<TRIPOS>ATOM
      1  C1        18.6670   26.7170    7.1430 C.2   370  AKG370      0.4219
      2  O1        17.6550   27.1990    7.7480 O.co2 370  AKG370     -0.2373
      3  O2        18.9930   26.6580    5.9310 O.co2 370  AKG370     -0.2373
      4  C2        19.7550   26.0490    8.0740 C.2   370  AKG370      0.2526
      5  O5        20.7270   25.5870    7.4740 O.2   370  AKG370     -0.2843
      6  C3        19.5050   26.0440    9.5440 C.3   370  AKG370      0.0881
      7  C4        20.5080   26.8760   10.2830 C.3   370  AKG370      0.1224
      8  C5        20.8240   26.5790   11.7120 C.2   370  AKG370      0.3653
      9  O3        21.7940   27.0940   12.2580 O.co2 370  AKG370     -0.2456
     10  O4        20.0220   25.7510   12.3430 O.co2 370  AKG370     -0.2456
@<TRIPOS>BOND
     1     3     1   ar
     2     1     2   ar
     3     1     4    1
     4     5     4    2
     5     4     6    1
     6     6     7    1
     7     7     8    1
     8     8     9   ar
     9     8    10   ar
