@<TRIPOS>MOLECULE
1gp5_AKG_A_1.pdb
 10 9 0 0 0
SMALL
GASTEIGER

@<TRIPOS>ATOM
      1  C1        19.4960   27.0200    7.3200 C.2   370  AKG370      0.4219
      2  O1        18.3860   27.1690    7.9240 O.co2 370  AKG370     -0.2373
      3  O2        19.8410   27.1690    6.1070 O.co2 370  AKG370     -0.2373
      4  C2        20.7040   26.5600    8.2490 C.2   370  AKG370      0.2526
      5  O5        21.7730   26.4170    7.6620 O.2   370  AKG370     -0.2843
      6  C3        20.4380   26.3550    9.7140 C.3   370  AKG370      0.0881
      7  C4        21.2520   27.2940   10.5700 C.3   370  AKG370      0.1224
      8  C5        21.3900   27.0680   12.0490 C.2   370  AKG370      0.3653
      9  O3        22.3930   27.4350   12.6490 O.co2 370  AKG370     -0.2456
     10  O4        20.3970   26.4680   12.6620 O.co2 370  AKG370     -0.2456
@<TRIPOS>BOND
     1     3     1   ar
     2     1     2   ar
     3     1     4    1
     4     5     4    2
     5     4     6    1
     6     6     7    1
     7     7     8    1
     8     8     9   ar
     9     8    10   ar
