@<TRIPOS>MOLECULE
1gp5_DH2_A_1.pdb
 22 24 0 0 0
SMALL
GASTEIGER

@<TRIPOS>ATOM
      1  C1        11.2540   28.7690   -0.7750 C.ar  385  DH2385      0.0843
      2  C2        11.4680   27.4130   -0.4840 C.ar  385  DH2385      0.2046
      3  C3        12.7960   26.8260   -0.5390 C.ar  385  DH2385      0.1103
      4  C4        13.8930   27.7080   -0.9470 C.ar  385  DH2385      0.1481
      5  C5        13.6610   29.0620   -1.2390 C.ar  385  DH2385      0.0792
      6  C6        12.3570   29.5770   -1.1440 C.ar  385  DH2385      0.2020
      7  C9        13.0790   25.4290   -0.2210 C.2   385  DH2385      0.2132
      8  C10       14.5310   24.9590   -0.2840 C.3   385  DH2385      0.2568
      9  C11       15.3910   25.7840   -1.2350 C.3   385  DH2385      0.2259
     10  C14       16.8660   25.4240   -1.2930 C.ar  385  DH2385      0.0236
     11  C15       17.3260   24.3720   -2.1160 C.ar  385  DH2385      0.0028
     12  C16       18.6920   24.0040   -2.1730 C.ar  385  DH2385      0.0452
     13  C17       19.6180   24.7110   -1.3890 C.ar  385  DH2385      0.2342
     14  C18       19.1720   25.7790   -0.5570 C.ar  385  DH2385      0.2341
     15  C19       17.8110   26.1250   -0.5120 C.ar  385  DH2385      0.0447
     16  O12       15.2040   27.2480   -1.0640 O.3   385  DH2385     -0.4713
     17  O13       12.1770   24.6160    0.1250 O.2   385  DH2385     -0.2883
     18  O23       20.0840   26.4840    0.2190 O.3   385  DH2385     -0.2832
     19  O24       20.9630   24.4080   -1.3860 O.3   385  DH2385     -0.2831
     20  O27       14.6200   23.5670   -0.5120 O.3   385  DH2385     -0.2104
     21  O29       12.1070   30.8930   -1.4090 O.3   385  DH2385     -0.2864
     22  O30       10.3970   26.6670   -0.1320 O.3   385  DH2385     -0.2863
@<TRIPOS>BOND
     1    12    11   ar
     2    12    13   ar
     3    11    10   ar
     4    21     6    1
     5    13    19    1
     6    13    14   ar
     7    10     9    1
     8    10    15   ar
     9     5     6   ar
    10     5     4   ar
    11     9    16    1
    12     9     8    1
    13     6     1   ar
    14    16     4    1
    15     4     3   ar
    16     1     2   ar
    17    14    15   ar
    18    14    18    1
    19     3     2   ar
    20     3     7    1
    21    20     8    1
    22     2    22    1
    23     8     7    1
    24     7    17    2
