@<TRIPOS>MOLECULE
1gp5_DQH_A_1.pdb
 22 24 0 0 0
SMALL
GASTEIGER

@<TRIPOS>ATOM
      1  C1        18.0760   30.4740    0.9130 C.ar  380  DQH380      0.0843
      2  C2        18.3130   29.3510    1.7230 C.ar  380  DQH380      0.2046
      3  C3        17.2220   28.6250    2.3520 C.ar  380  DQH380      0.1103
      4  C4        15.8710   29.1070    2.0810 C.ar  380  DQH380      0.1481
      5  C5        15.6480   30.2280    1.2730 C.ar  380  DQH380      0.0792
      6  C6        16.7370   30.8970    0.7030 C.ar  380  DQH380      0.2020
      7  C9        17.4040   27.4550    3.2180 C.2   380  DQH380      0.2132
      8  C10       16.1520   26.8130    3.8280 C.3   380  DQH380      0.2568
      9  C11       14.9330   27.0360    2.9310 C.3   380  DQH380      0.2259
     10  C14       13.5930   26.3470    3.2140 C.ar  380  DQH380      0.0236
     11  C15       12.3660   27.0600    3.1470 C.ar  380  DQH380      0.0028
     12  C16       11.1120   26.4210    3.3500 C.ar  380  DQH380      0.0452
     13  C17       11.0870   25.0450    3.6310 C.ar  380  DQH380      0.2342
     14  C18       12.3010   24.3190    3.7100 C.ar  380  DQH380      0.2341
     15  C19       13.5340   24.9580    3.5010 C.ar  380  DQH380      0.0447
     16  O12       14.7560   28.4670    2.6150 O.3   380  DQH380     -0.4713
     17  O13       18.5460   26.9830    3.4790 O.2   380  DQH380     -0.2883
     18  O23       12.2670   22.9670    3.9910 O.3   380  DQH380     -0.2832
     19  O24        9.9160   24.3450    3.8350 O.3   380  DQH380     -0.2831
     20  O27       16.3810   25.4520    4.1320 O.3   380  DQH380     -0.2104
     21  O29       16.5400   31.9900   -0.0820 O.3   380  DQH380     -0.2864
     22  O30       19.5920   28.9650    1.9160 O.3   380  DQH380     -0.2863
@<TRIPOS>BOND
     1    21     6    1
     2     6     1   ar
     3     6     5   ar
     4     1     2   ar
     5     5     4   ar
     6     2    22    1
     7     2     3   ar
     8     4     3   ar
     9     4    16    1
    10     3     7    1
    11    16     9    1
    12     9    10    1
    13     9     8    1
    14    11    10   ar
    15    11    12   ar
    16    10    15   ar
    17     7    17    2
    18     7     8    1
    19    12    13   ar
    20    15    14   ar
    21    13    14   ar
    22    13    19    1
    23    14    18    1
    24     8    20    1
