@<TRIPOS>MOLECULE
1gp6_DH2_A_1.pdb
 22 24 0 0 0
SMALL
GASTEIGER

@<TRIPOS>ATOM
      1  C1        10.8640   28.1160   -0.6030 C.ar  385  DH2385      0.0843
      2  C2        11.1300   26.7660   -0.3640 C.ar  385  DH2385      0.2046
      3  C3        12.4430   26.2340   -0.4360 C.ar  385  DH2385      0.1103
      4  C4        13.5090   27.1260   -0.8660 C.ar  385  DH2385      0.1481
      5  C5        13.2510   28.4960   -1.1180 C.ar  385  DH2385      0.0792
      6  C6        11.9390   28.9790   -0.9670 C.ar  385  DH2385      0.2020
      7  C9        12.7360   24.8360   -0.1300 C.2   385  DH2385      0.2132
      8  C10       14.1830   24.3980   -0.1840 C.3   385  DH2385      0.2568
      9  C11       14.9700   25.2000   -1.1820 C.3   385  DH2385      0.2259
     10  C14       16.4220   24.8260   -1.2460 C.ar  385  DH2385      0.0236
     11  C15       16.8670   23.7510   -2.0350 C.ar  385  DH2385      0.0028
     12  C16       18.2230   23.3740   -2.0590 C.ar  385  DH2385      0.0452
     13  C17       19.1470   24.0940   -1.2850 C.ar  385  DH2385      0.2342
     14  C18       18.7010   25.1780   -0.5000 C.ar  385  DH2385      0.2341
     15  C19       17.3590   25.5350   -0.4810 C.ar  385  DH2385      0.0447
     16  O12       14.8060   26.6590   -1.0380 O.3   385  DH2385     -0.4713
     17  O13       11.8380   24.0110    0.2250 O.2   385  DH2385     -0.2883
     18  O23       19.5840   25.8890    0.2520 O.3   385  DH2385     -0.2832
     19  O24       20.4800   23.7710   -1.2510 O.3   385  DH2385     -0.2831
     20  O27       14.3650   22.9800   -0.2230 O.3   385  DH2385     -0.2104
     21  O29       11.6390   30.2950   -1.1770 O.3   385  DH2385     -0.2864
     22  O30       10.1100   25.9440   -0.0250 O.3   385  DH2385     -0.2863
@<TRIPOS>BOND
     1    12    11   ar
     2    12    13   ar
     3    11    10   ar
     4    13    19    1
     5    13    14   ar
     6    10     9    1
     7    10    15   ar
     8     9    16    1
     9     9     8    1
    10    21     6    1
    11     5     6   ar
    12     5     4   ar
    13    16     4    1
    14     6     1   ar
    15     4     3   ar
    16     1     2   ar
    17    14    15   ar
    18    14    18    1
    19     3     2   ar
    20     3     7    1
    21     2    22    1
    22    20     8    1
    23     8     7    1
    24     7    17    2
