@<TRIPOS>MOLECULE
1gp6_QUE_A_1.pdb
 22 24 0 0 0
SMALL
GASTEIGER

@<TRIPOS>ATOM
      1  C1        17.7340   29.8790    1.1300 C.ar  380  QUE380      0.0843
      2  C2        17.9560   28.7430    1.8490 C.ar  380  QUE380      0.2050
      3  C3        16.8520   27.9120    2.3160 C.ar  380  QUE380      0.1158
      4  C4        15.5500   28.3260    1.9880 C.ar  380  QUE380      0.1549
      5  C5        15.2800   29.4960    1.2550 C.ar  380  QUE380      0.0798
      6  C6        16.3980   30.2710    0.8290 C.ar  380  QUE380      0.2020
      7  C9        17.0680   26.7120    3.0760 C.ar  380  QUE380      0.2433
      8  C10       15.8960   25.9390    3.4600 C.ar  380  QUE380      0.2685
      9  C11       14.6270   26.3560    3.1230 C.ar  380  QUE380      0.1872
     10  C14       13.3410   25.6590    3.3380 C.ar  380  QUE380      0.0413
     11  C15       12.0980   26.3160    3.0830 C.ar  380  QUE380      0.0066
     12  C16       10.8710   25.6050    3.1840 C.ar  380  QUE380      0.0455
     13  C17       10.8980   24.2490    3.5030 C.ar  380  QUE380      0.2343
     14  C18       12.0890   23.5940    3.7240 C.ar  380  QUE380      0.2344
     15  C19       13.3090   24.2610    3.6590 C.ar  380  QUE380      0.0485
     16  O12       14.4610   27.5360    2.3910 O.2   380  QUE380     -0.4498
     17  O13       18.2240   26.3180    3.4070 O.2   380  QUE380     -0.2828
     18  O23       11.9600   22.2500    3.9480 O.3   380  QUE380     -0.2831
     19  O24        9.7560   23.5590    3.5900 O.3   380  QUE380     -0.2831
     20  O27       16.0880   24.8550    4.2690 O.3   380  QUE380     -0.2798
     21  O29       16.1490   31.3980    0.1200 O.3   380  QUE380     -0.2864
     22  O30       19.2070   28.3560    2.1470 O.3   380  QUE380     -0.2862
@<TRIPOS>BOND
     1    21     6    1
     2     6     1   ar
     3     6     5   ar
     4     1     2   ar
     5     5     4   ar
     6     2    22    1
     7     2     3   ar
     8     4     3   ar
     9     4    16   ar
    10     3     7   ar
    11    16     9   ar
    12     7    17    2
    13     7     8   ar
    14    11    12   ar
    15    11    10   ar
    16     9    10    1
    17     9     8   ar
    18    12    13   ar
    19    10    15   ar
    20     8    20    1
    21    13    19    1
    22    13    14   ar
    23    15    14   ar
    24    14    18    1
