@<TRIPOS>MOLECULE
1gpa_PLP_A_1.pdb
 15 15 0 0 0
SMALL
GASTEIGER

@<TRIPOS>ATOM
      1  N1        41.5560    3.2230   29.8260 N.2   999  PLP999     -0.2711
      2  C2        40.8780    2.4290   30.6300 C.2   999  PLP999      0.0922
      3  C2A       40.6770    2.8610   31.9960 C.3   999  PLP999      0.0550
      4  C3        40.3710    1.2370   30.1880 C.2   999  PLP999      0.2009
      5  O3        39.5380    0.5070   31.0600 O.2   999  PLP999     -0.2860
      6  C4        40.5700    0.8570   28.8540 C.2   999  PLP999      0.0003
      7  C4A       40.1290   -0.4180   28.2940 C.3   999  PLP999      0.0299
      8  C5        41.2000    1.6940   28.0190 C.3   999  PLP999      0.0760
      9  C6        41.7280    2.8490   28.5210 C.3   999  PLP999      0.1318
     10  C5A       40.8510    1.6470   26.5780 C.3   999  PLP999      0.1598
     11  O4P       40.2030    2.8660   26.0790 O.3   999  PLP999     -0.2698
     12  P         39.7770    2.9680   24.5160 P.3   999  PLP999      0.5326
     13  O1P       40.6460    3.8850   23.7860 O.2   999  PLP999     -0.2224
     14  O2P       39.8250    1.6410   23.8660 O.3   999  PLP999     -0.1145
     15  O3P       38.3700    3.4650   24.3410 O.3   999  PLP999     -0.1145
@<TRIPOS>BOND
     1    13    12    2
     2    14    12    1
     3    15    12    1
     4    12    11    1
     5    11    10    1
     6    10     8    1
     7     8     9    1
     8     8     6    1
     9     7     6    1
    10     9     1    1
    11     6     4    2
    12     1     2    2
    13     4     2    1
    14     4     5    1
    15     2     3    1
