@<TRIPOS>MOLECULE
1gpb_PLP_A_1.pdb
 15 15 0 0 0
SMALL
GASTEIGER

@<TRIPOS>ATOM
      1  N1        24.7150   25.5160   30.2310 N.ar  999  PLP999     -0.2452
      2  C2        23.6000   24.8480   30.5140 C.ar  999  PLP999      0.0978
      3  C2A       22.5650   25.2390   31.5730 C.3   999  PLP999      0.0555
      4  C3        23.4050   23.6880   29.7790 C.ar  999  PLP999      0.2049
      5  O3        22.2490   22.9590   29.9960 O.3   999  PLP999     -0.2857
      6  C4        24.3360   23.3030   28.7670 C.ar  999  PLP999      0.0182
      7  C4A       24.1360   22.1230   27.9830 C.3   999  PLP999      0.0342
      8  C5        25.4490   24.0990   28.5670 C.ar  999  PLP999      0.0261
      9  C6        25.6600   25.2480   29.3170 C.ar  999  PLP999      0.0965
     10  C5A       26.5370   23.7440   27.4580 C.3   999  PLP999      0.1815
     11  O4P       25.9740   24.5060   26.3280 O.3   999  PLP999     -0.2653
     12  P         27.0560   24.7310   25.0320 P.3   999  PLP999      0.5329
     13  O1P       27.7000   23.4220   24.6930 O.3   999  PLP999     -0.1145
     14  O2P       26.1180   25.3830   24.1290 O.2   999  PLP999     -0.2224
     15  O3P       28.0850   25.6450   25.5460 O.3   999  PLP999     -0.1145
@<TRIPOS>BOND
     1    14    12    2
     2    13    12    1
     3    12    15    1
     4    12    11    1
     5    11    10    1
     6    10     8    1
     7     7     6    1
     8     8     6   ar
     9     8     9   ar
    10     6     4   ar
    11     9     1   ar
    12     4     5    1
    13     4     2   ar
    14     1     2   ar
    15     2     3    1
