@<TRIPOS>MOLECULE
1gpd_NAD_G_1.pdb
 44 48 0 0 0
SMALL
GASTEIGER

@<TRIPOS>ATOM
      1  PA        -4.7790   10.1340   18.7720 P.3   335  NAD335      0.2189
      2  O1A       -4.8400    8.7010   19.1350 O.3   335  NAD335     -0.4371
      3  O2A       -3.8130   10.3910   17.6800 O.2   335  NAD335     -0.5170
      4  O5B       -4.6000   10.8680   20.1830 O.3   335  NAD335     -0.3112
      5  C5B       -4.1110   10.1120   21.3060 C.3   335  NAD335      0.1813
      6  C4B       -2.8490   10.7510   21.8510 C.3   335  NAD335      0.1821
      7  O4B       -3.2150   11.9140   22.6480 O.3   335  NAD335     -0.3135
      8  C3B       -2.0290    9.8900   22.8130 C.3   335  NAD335      0.2184
      9  O3B       -1.1690    8.9950   22.1210 O.3   335  NAD335     -0.2174
     10  C2B       -1.2780   10.9440   23.6260 C.3   335  NAD335      0.2570
     11  O2B       -0.2040   11.4850   22.8770 O.3   335  NAD335     -0.2130
     12  C1B       -2.3290   12.0420   23.7500 C.3   335  NAD335      0.3186
     13  N9A       -3.1370   11.9590   24.9990 N.pl3 335  NAD335     -0.1439
     14  C8A       -3.8090   12.9610   25.6650 C.3   335  NAD335      0.3377
     15  N7A       -4.4240   12.5610   26.7350 N.2   335  NAD335     -0.2095
     16  C5A       -4.1470   11.2020   26.7930 C.2   335  NAD335      0.2526
     17  C6A       -4.5160   10.1980   27.7020 C.2   335  NAD335      0.4393
     18  N6A       -5.2810   10.4220   28.7810 N.pl3 335  NAD335      0.2180
     19  N1A       -4.0700    8.9510   27.4640 N.2   335  NAD335      0.0021
     20  C2A       -3.3100    8.7360   26.3910 C.3   335  NAD335      0.5254
     21  N3A       -2.9030    9.5880   25.4760 N.2   335  NAD335     -0.0055
     22  C4A       -3.3640   10.8280   25.7390 C.2   335  NAD335      0.3518
     23  O3        -6.2320   10.6400   18.3340 O.3   335  NAD335     -0.2703
     24  PN        -6.9640   10.9040   16.9360 P.3   335  NAD335      0.2189
     25  O1N       -7.1460   12.2830   16.4300 O.3   335  NAD335     -0.4371
     26  O2N       -6.2610   10.1670   15.8630 O.2   335  NAD335     -0.5170
     27  O5D       -8.3940   10.2360   17.1980 O.3   335  NAD335     -0.3112
     28  C5D       -8.8030    9.9690   18.5520 C.3   335  NAD335      0.1813
     29  C4D      -10.1870   10.5370   18.7980 C.3   335  NAD335      0.1799
     30  O4D      -10.5450   11.3060   17.6540 O.3   335  NAD335     -0.3327
     31  C3D      -11.3070    9.5110   18.9700 C.3   335  NAD335      0.2158
     32  O3D      -12.2550   10.0170   19.9000 O.3   335  NAD335     -0.2175
     33  C2D      -11.9390    9.4630   17.5800 C.3   335  NAD335      0.2309
     34  O2D      -13.2800    9.0060   17.5580 O.3   335  NAD335     -0.2158
     35  C1D      -11.8120   10.9190   17.1440 C.3   335  NAD335      0.2263
     36  N1N      -11.7890   11.1020   15.6650 N.pl3 335  NAD335     -0.2787
     37  C2N      -10.7060   10.6550   15.0120 C.3   335  NAD335      0.1244
     38  C3N      -10.6230   10.7950   13.6340 C.2   335  NAD335      0.0544
     39  C7N       -9.3700   10.2610   13.0050 C.2   335  NAD335      0.2818
     40  O7N       -9.2170   10.3450   11.7940 O.2   335  NAD335     -0.2670
     41  N7N       -8.4520    9.7030   13.8200 N.am  335  NAD335     -0.0839
     42  C4N      -11.6620   11.3940   12.9610 C.2   335  NAD335      0.0033
     43  C5N      -12.7550   11.8390   13.6660 C.2   335  NAD335      0.0157
     44  C6N      -12.8170   11.6920   15.0240 C.2   335  NAD335      0.0633
@<TRIPOS>BOND
     1    40    39    2
     2    42    38    2
     3    42    43    1
     4    39    38    1
     5    39    41   am
     6    38    37    1
     7    43    44    2
     8    37    36    1
     9    44    36    1
    10    36    35    1
    11    26    24    2
    12    25    24    1
    13    24    27    1
    14    24    23    1
    15    35    33    1
    16    35    30    1
    17    27    28    1
    18    34    33    1
    19    33    31    1
    20    30    29    1
    21     3     1    2
    22    23     1    1
    23    28    29    1
    24     1     2    1
    25     1     4    1
    26    29    31    1
    27    31    32    1
    28     4     5    1
    29     5     6    1
    30     6     7    1
    31     6     8    1
    32     9     8    1
    33     7    12    1
    34     8    10    1
    35    11    10    1
    36    10    12    1
    37    12    13    1
    38    13    14    1
    39    13    22    1
    40    21    22    2
    41    21    20    1
    42    14    15    1
    43    22    16    1
    44    20    19    1
    45    15    16    2
    46    16    17    1
    47    19    17    2
    48    17    18    1
