@<TRIPOS>MOLECULE
1gpe_NAG_A_1.pdb
 14 14 0 0 0
SMALL
GASTEIGER

@<TRIPOS>ATOM
      1  C1       -11.1440  -12.2570   -9.1540 C.3   601  NAG601      0.1665
      2  C2       -10.8150  -13.7310   -9.0500 C.3   601  NAG601      0.1576
      3  C3       -12.0580  -14.5350   -9.3500 C.3   601  NAG601      0.2069
      4  C4       -13.1810  -14.0080   -8.4300 C.3   601  NAG601      0.2134
      5  C5       -13.3780  -12.4800   -8.5280 C.3   601  NAG601      0.1809
      6  C6       -14.3890  -11.9750   -7.5160 C.3   601  NAG601      0.2141
      7  C7        -8.5050  -14.4120   -9.6460 C.2   601  NAG601      0.2420
      8  C8        -7.5910  -14.6830  -10.7860 C.3   601  NAG601      0.0964
      9  N2        -9.7610  -14.0790  -10.0310 N.am  601  NAG601     -0.2019
     10  O3       -11.7840  -15.9060   -9.0950 O.3   601  NAG601     -0.2184
     11  O4       -14.4020  -14.6090   -8.8610 O.3   601  NAG601     -0.2176
     12  O5       -12.1410  -11.8970   -8.1690 O.3   601  NAG601     -0.3489
     13  O6       -14.0230  -12.3060   -6.2250 O.3   601  NAG601     -0.2176
     14  O7        -8.2010  -14.4590   -8.5440 O.2   601  NAG601     -0.2733
@<TRIPOS>BOND
     1     8     7    1
     2     9     7   am
     3     9     2    1
     4     7    14    2
     5     3    10    1
     6     3     2    1
     7     3     4    1
     8     1     2    1
     9     1    12    1
    10    11     4    1
    11     5     4    1
    12     5    12    1
    13     5     6    1
    14     6    13    1
