@<TRIPOS>MOLECULE
1gpe_BMA_A_1.pdb
 11 11 0 0 0
SMALL
GASTEIGER

@<TRIPOS>ATOM
      1  C1       -17.7430  -19.2630   -5.9200 C.3   606  BMA606      0.1777
      2  C2       -17.7570  -20.0130   -4.5550 C.3   606  BMA606      0.2141
      3  C3       -18.6270  -21.2420   -4.7400 C.3   606  BMA606      0.2173
      4  C4       -19.9860  -20.9860   -5.3400 C.3   606  BMA606      0.2142
      5  C5       -19.8630  -20.0920   -6.5910 C.3   606  BMA606      0.1810
      6  C6       -21.2040  -19.5860   -7.0870 C.3   606  BMA606      0.2141
      7  O2       -18.2380  -19.1780   -3.5220 O.3   606  BMA606     -0.2176
      8  O3       -18.7880  -21.8000   -3.4400 O.3   606  BMA606     -0.2175
      9  O4       -20.6100  -22.2170   -5.6470 O.3   606  BMA606     -0.2176
     10  O5       -19.0740  -18.9390   -6.2780 O.3   606  BMA606     -0.3481
     11  O6       -21.1050  -19.3180   -8.4620 O.3   606  BMA606     -0.2176
@<TRIPOS>BOND
     1    11     6    1
     2     6     5    1
     3     5    10    1
     4     5     4    1
     5    10     1    1
     6     1     2    1
     7     9     4    1
     8     4     3    1
     9     3     2    1
    10     3     8    1
    11     2     7    1
