@<TRIPOS>MOLECULE
1gpe_MAN_A_1.pdb
 11 11 0 0 0
SMALL
GASTEIGER

@<TRIPOS>ATOM
      1  C1       -18.0630  -22.9800   -3.2120 C.3   607  MAN607      0.1777
      2  C2       -18.6500  -23.6380   -1.9180 C.3   607  MAN607      0.2141
      3  C3       -18.3530  -22.7270   -0.7340 C.3   607  MAN607      0.2173
      4  C4       -16.8820  -22.4170   -0.5980 C.3   607  MAN607      0.2142
      5  C5       -16.4020  -21.7750   -1.9220 C.3   607  MAN607      0.1810
      6  C6       -14.9280  -21.4370   -1.9880 C.3   607  MAN607      0.2141
      7  O2       -18.1340  -24.9330   -1.7380 O.3   607  MAN607     -0.2176
      8  O3       -18.9200  -23.3280    0.4280 O.3   607  MAN607     -0.2175
      9  O4       -16.6250  -21.5230    0.4620 O.3   607  MAN607     -0.2176
     10  O5       -16.7130  -22.6290   -3.0200 O.3   607  MAN607     -0.3481
     11  O6       -14.2060  -22.6410   -1.9590 O.3   607  MAN607     -0.2176
@<TRIPOS>BOND
     1     1    10    1
     2     1     2    1
     3    10     5    1
     4     6    11    1
     5     6     5    1
     6     5     4    1
     7     2     7    1
     8     2     3    1
     9     3     4    1
    10     3     8    1
    11     4     9    1
