@<TRIPOS>MOLECULE
1gph_AMP_1_1.pdb
 23 25 0 0 0
SMALL
GASTEIGER

@<TRIPOS>ATOM
      1  P        143.4440   47.5900    9.7800 P.3   467  AMP467      0.5327
      2  O1P      144.6270   48.4070    9.4330 O.3   467  AMP467     -0.1145
      3  O2P      142.6370   48.1770   10.8630 O.3   467  AMP467     -0.1145
      4  O3P      142.6670   47.1680    8.6080 O.2   467  AMP467     -0.2224
      5  O5'      144.0900   46.2040   10.3130 O.3   467  AMP467     -0.2675
      6  C5'      145.3650   45.5520    9.9620 C.3   467  AMP467      0.1860
      7  C4'      145.4120   44.1550   10.6140 C.3   467  AMP467      0.1823
      8  O4'      144.2830   43.4940   10.0560 O.3   467  AMP467     -0.3135
      9  C3'      146.6320   43.1790   10.6830 C.3   467  AMP467      0.2184
     10  O3'      147.2660   42.9710   12.0060 O.3   467  AMP467     -0.2174
     11  C2'      145.9140   41.8610   10.4560 C.3   467  AMP467      0.2570
     12  O2'      145.6240   41.1470   11.6640 O.3   467  AMP467     -0.2130
     13  C1'      144.5370   42.1190    9.8920 C.3   467  AMP467      0.3186
     14  N9       144.4190   41.6860    8.5060 N.pl3 467  AMP467     -0.1439
     15  C8       145.3570   41.8090    7.5160 C.3   467  AMP467      0.3377
     16  N7       144.8980   41.6340    6.3240 N.2   467  AMP467     -0.2095
     17  C5       143.5430   41.4240    6.5350 C.2   467  AMP467      0.2526
     18  C6       142.4740   41.2660    5.6430 C.2   467  AMP467      0.4393
     19  N6       142.6670   41.0960    4.3230 N.pl3 467  AMP467      0.2180
     20  N1       141.2450   41.2200    6.1800 N.2   467  AMP467      0.0021
     21  C2       141.1360   41.0880    7.4890 C.3   467  AMP467      0.5254
     22  N3       142.0720   41.1580    8.4330 N.2   467  AMP467     -0.0055
     23  C4       143.2590   41.4020    7.8670 C.2   467  AMP467      0.3518
@<TRIPOS>BOND
     1    19    18    1
     2    18    20    2
     3    18    17    1
     4    20    21    1
     5    16    17    2
     6    16    15    1
     7    17    23    1
     8    21    22    1
     9    15    14    1
    10    23    22    2
    11    23    14    1
    12    14    13    1
    13     4     1    2
    14     2     1    1
    15     1     5    1
    16     1     3    1
    17    13     8    1
    18    13    11    1
    19     6     5    1
    20     6     7    1
    21     8     7    1
    22    11     9    1
    23    11    12    1
    24     7     9    1
    25     9    10    1
