@<TRIPOS>MOLECULE
1gpj_GMC_A_1.pdb
 21 23 0 0 0
SMALL
GASTEIGER

@<TRIPOS>ATOM
      1  C10       82.6950   53.3790   51.7620 C.3   1405  GMC1405     0.2537
      2  N6        81.5750   54.1640   52.2690 N.pl3 1405  GMC1405    -0.1816
      3  C9        80.4330   53.4750   52.8640 C.3   1405  GMC1405     0.2537
      4  C6        81.6520   55.5580   52.1600 C.2   1405  GMC1405     0.3485
      5  C5        80.5910   56.4820   52.6240 C.2   1405  GMC1405     0.2442
      6  C4        80.8180   57.9170   52.4360 C.2   1405  GMC1405     0.3515
      7  N3        81.9720   58.3060   51.8500 N.2   1405  GMC1405    -0.0055
      8  C2        82.8980   57.4210   51.4440 C.3   1405  GMC1405     0.5252
      9  N1        82.7490   56.0970   51.6000 N.2   1405  GMC1405    -0.0056
     10  N7        79.3880   56.3580   53.2100 N.2   1405  GMC1405    -0.2098
     11  C8        78.8960   57.6040   53.3870 C.3   1405  GMC1405     0.3377
     12  N9        79.7410   58.5340   52.9170 N.pl3 1405  GMC1405    -0.1439
     13  C1'       79.4080   59.9660   53.0020 C.3   1405  GMC1405     0.3174
     14  O4'       79.0510   59.9990   54.4170 O.3   1405  GMC1405    -0.3146
     15  C4'       77.8440   60.7330   54.5960 C.3   1405  GMC1405     0.1723
     16  C5'       77.0250   60.3240   55.8140 C.3   1405  GMC1405     0.2131
     17  O5'       76.7130   58.9420   55.8550 O.3   1405  GMC1405    -0.2176
     18  C2'       78.3780   60.8360   52.3080 C.3   1405  GMC1405     0.2443
     19  O2'       78.6840   62.2190   52.1430 O.3   1405  GMC1405    -0.2142
     20  C3'       77.1980   60.5480   53.2420 C.3   1405  GMC1405     0.1586
     21  N3'       76.0450   61.4040   53.0570 N.3   1405  GMC1405    -0.1273
@<TRIPOS>BOND
     1     8     9    1
     2     8     7    1
     3     9     4    2
     4     1     2    1
     5     7     6    2
     6    19    18    1
     7     4     2    1
     8     4     5    1
     9     2     3    1
    10    18    13    1
    11    18    20    1
    12     6     5    1
    13     6    12    1
    14     5    10    2
    15    12    13    1
    16    12    11    1
    17    13    14    1
    18    21    20    1
    19    10    11    1
    20    20    15    1
    21    14    15    1
    22    15    16    1
    23    16    17    1
