@<TRIPOS>MOLECULE
1gpk_HUP_A_1.pdb
 18 20 0 0 0
SMALL
GASTEIGER

@<TRIPOS>ATOM
      1  C1         0.7260   68.8480   60.5950 C.1   1540  HUP1540     0.2045
      2  O1         0.2650   69.3310   59.5260 O.2   1540  HUP1540    -0.2093
      3  N1         2.0070   68.2910   60.6140 N.2   1540  HUP1540    -0.3413
      4  C2         0.0030   68.8250   61.8590 C.2   1540  HUP1540     0.1025
      5  C3         0.5760   68.2720   62.9860 C.2   1540  HUP1540    -0.0046
      6  C4         1.9080   67.6940   62.9880 C.3   1540  HUP1540     0.0918
      7  C5         2.6240   67.7230   61.7490 C.2   1540  HUP1540     0.1056
      8  C6         4.0170   67.1690   61.5600 C.3   1540  HUP1540     0.0642
      9  C7         4.6570   66.5980   62.9020 C.3   1540  HUP1540     0.0473
     10  C8         5.3760   67.6940   63.7160 C.2   1540  HUP1540    -0.0304
     11  C9         4.3520   63.5530   63.7420 C.3   1540  HUP1540     0.0301
     12  C10        3.4630   64.6910   64.1430 C.2   1540  HUP1540    -0.0326
     13  C11        3.5630   65.9670   63.7940 C.2   1540  HUP1540    -0.0278
     14  C12        2.5690   67.0470   64.2830 C.3   1540  HUP1540     0.1054
     15  N2         1.5080   66.4560   65.1460 N.3   1540  HUP1540    -0.1291
     16  C13        3.3210   68.1300   65.1110 C.3   1540  HUP1540     0.0439
     17  C14        4.7650   68.3870   64.7180 C.2   1540  HUP1540    -0.0461
     18  C15        5.4530   69.4590   65.5360 C.3   1540  HUP1540     0.0261
@<TRIPOS>BOND
     1     2     1    2
     2     1     3    2
     3     1     4    1
     4     3     7    2
     5     8     7    1
     6     8     9    1
     7     7     6    1
     8     4     5    2
     9     9    10    1
    10     9    13    1
    11     5     6    1
    12     6    14    1
    13    10    17    2
    14    11    12    1
    15    13    12    2
    16    13    14    1
    17    14    16    1
    18    14    15    1
    19    17    16    1
    20    17    18    1
