@<TRIPOS>MOLECULE
1gpm_AMP_A_1.pdb
 23 25 0 0 0
SMALL
GASTEIGER

@<TRIPOS>ATOM
      1  P        139.4470   68.4410   75.2930 P.3   527  AMP527      0.5327
      2  O1P      138.8950   69.6120   74.5540 O.3   527  AMP527     -0.1145
      3  O2P      138.4770   67.7630   76.1860 O.3   527  AMP527     -0.1145
      4  O3P      140.3210   67.5170   74.5440 O.2   527  AMP527     -0.2224
      5  O5'      140.4080   69.2030   76.3340 O.3   527  AMP527     -0.2675
      6  C5'      141.3150   68.6060   77.2380 C.3   527  AMP527      0.1860
      7  C4'      142.7390   69.1880   77.1100 C.3   527  AMP527      0.1823
      8  O4'      143.6470   68.4040   77.9440 O.3   527  AMP527     -0.3135
      9  C3'      143.2590   69.0420   75.6720 C.3   527  AMP527      0.2184
     10  O3'      143.0320   70.2350   74.9400 O.3   527  AMP527     -0.2174
     11  C2'      144.7240   68.7780   75.8220 C.3   527  AMP527      0.2570
     12  O2'      145.5040   69.9410   76.1680 O.3   527  AMP527     -0.2130
     13  C1'      144.6880   67.8890   77.0520 C.3   527  AMP527      0.3186
     14  N9       144.4180   66.4900   76.6570 N.pl3 527  AMP527     -0.1439
     15  C8       143.2140   65.8620   76.4400 C.3   527  AMP527      0.3377
     16  N7       143.3080   64.6280   76.1140 N.2   527  AMP527     -0.2095
     17  C5       144.6940   64.3900   76.1050 C.2   527  AMP527      0.2526
     18  C6       145.4510   63.2310   75.8310 C.2   527  AMP527      0.4393
     19  N6       144.8860   62.0770   75.4410 N.pl3 527  AMP527      0.2180
     20  N1       146.7870   63.3530   75.9500 N.2   527  AMP527      0.0021
     21  C2       147.3120   64.5210   76.3050 C.3   527  AMP527      0.5254
     22  N3       146.7150   65.6840   76.5750 N.2   527  AMP527     -0.0055
     23  C4       145.3760   65.5330   76.4470 C.2   527  AMP527      0.3518
@<TRIPOS>BOND
     1     4     1    2
     2     2     1    1
     3    10     9    1
     4     1     3    1
     5     1     5    1
     6    19    18    1
     7     9    11    1
     8     9     7    1
     9    11    12    1
    10    11    13    1
    11    18    20    2
    12    18    17    1
    13    20    21    1
    14    17    16    2
    15    17    23    1
    16    16    15    1
    17    21    22    1
    18     5     6    1
    19    15    14    1
    20    23    22    2
    21    23    14    1
    22    14    13    1
    23    13     8    1
    24     7     6    1
    25     7     8    1
