@<TRIPOS>MOLECULE
1gpn_HUB_A_1.pdb
 19 22 0 0 0
SMALL
GASTEIGER

@<TRIPOS>ATOM
      1  C1         1.0680   68.7710   61.1630 C.1   1538  HUB1538     0.2045
      2  O1         0.4400   69.2080   60.1960 O.2   1538  HUB1538    -0.2093
      3  N1         2.3530   68.2650   60.9830 N.2   1538  HUB1538    -0.3414
      4  C2         0.5440   68.7450   62.5170 C.2   1538  HUB1538     0.1024
      5  C3         1.3020   68.2450   63.5450 C.2   1538  HUB1538    -0.0050
      6  C4         2.6350   67.7280   63.3560 C.3   1538  HUB1538     0.0868
      7  C5         3.1490   67.7340   62.0130 C.2   1538  HUB1538     0.1049
      8  C6         4.5200   67.2110   61.6300 C.3   1538  HUB1538     0.0601
      9  C7         5.3120   66.5280   62.8520 C.3   1538  HUB1538     0.0294
     10  C8         4.8890   65.0460   63.0240 C.2   1538  HUB1538    -0.0344
     11  C9         5.1250   69.4560   65.4310 C.3   1538  HUB1538     0.0189
     12  C10        5.4320   68.7380   64.1060 C.3   1538  HUB1538     0.0032
     13  C11        5.0240   67.2560   64.1870 C.3   1538  HUB1538     0.0202
     14  C12        3.5160   67.1410   64.5690 C.3   1538  HUB1538     0.0730
     15  N2         3.2390   67.8790   65.8580 N.3   1538  HUB1538    -0.2197
     16  C13        3.1120   65.6420   64.7490 C.3   1538  HUB1538     0.0385
     17  C14        3.8870   64.6480   63.8920 C.2   1538  HUB1538    -0.0468
     18  C15        3.4650   63.2140   64.0870 C.3   1538  HUB1538     0.0261
     19  C90        3.6510   69.3860   65.8010 C.3   1538  HUB1538     0.0886
@<TRIPOS>BOND
     1     2     1    2
     2     3     1    2
     3     3     7    2
     4     1     4    1
     5     8     7    1
     6     8     9    1
     7     7     6    1
     8     4     5    2
     9     9    10    1
    10     9    13    1
    11    10    17    2
    12     6     5    1
    13     6    14    1
    14    17    18    1
    15    17    16    1
    16    12    13    1
    17    12    11    1
    18    13    14    1
    19    14    16    1
    20    14    15    1
    21    11    19    1
    22    19    15    1
