@<TRIPOS>MOLECULE
1gpu_THD_A_1.pdb
 30 31 0 0 0
SMALL
GASTEIGER

@<TRIPOS>ATOM
      1  N1'       -3.0410   61.4540   19.8480 N.2   1682  THD1682    -0.1861
      2  C2'       -2.1840   60.4700   20.1880 C.1   1682  THD1682     0.0663
      3  CM2       -0.8730   60.8380   20.6820 C.3   1682  THD1682     0.1291
      4  N3'       -2.5320   59.1960   20.0710 N.2   1682  THD1682    -0.3368
      5  C4'       -3.8030   58.8400   19.5980 C.2   1682  THD1682     0.2292
      6  N4'       -4.0190   57.5280   19.5350 N.pl3 1682  THD1682    -0.0925
      7  C5'       -4.7750   59.8640   19.2190 C.2   1682  THD1682     0.0654
      8  C6'       -4.3140   61.1470   19.3730 C.2   1682  THD1682     0.1115
      9  C7'       -6.1950   59.5940   18.6890 C.3   1682  THD1682     0.1240
     10  N3        -6.1120   58.6800   17.4270 N.pl3 1682  THD1682    -0.2932
     11  C2        -6.2280   57.2850   17.3580 C.3   1682  THD1682     0.1863
     12  S1        -5.9730   56.7220   15.7560 S.3   1682  THD1682    -0.0903
     13  C5        -5.7520   58.2990   15.1890 C.2   1682  THD1682     0.0167
     14  C4        -5.8560   59.2110   16.2080 C.2   1682  THD1682     0.0281
     15  CM4       -5.7080   60.6840   16.0200 C.3   1682  THD1682     0.0473
     16  C6        -5.4680   58.5950   13.7300 C.3   1682  THD1682     0.0661
     17  C7        -5.6210   57.4640   12.8010 C.3   1682  THD1682     0.1544
     18  O7        -4.7980   57.7780   11.6770 O.3   1682  THD1682    -0.3134
     19  PA        -3.6990   56.7630   11.3030 P.3   1682  THD1682     0.2230
     20  O1A       -2.5380   56.6170   12.2500 O.3   1682  THD1682    -0.4370
     21  O2A       -3.4330   57.2890    9.9960 O.2   1682  THD1682    -0.5169
     22  O3A       -4.4020   55.3930   10.8200 O.3   1682  THD1682    -0.2261
     23  PB        -5.6390   54.7350   10.0250 P.3   1682  THD1682     0.5373
     24  O1B       -4.9780   54.7120    8.7300 O.2   1682  THD1682    -0.2221
     25  O2B       -5.7980   53.3950   10.5730 O.3   1682  THD1682    -0.1143
     26  O3B       -6.8490   55.5750   10.2090 O.3   1682  THD1682    -0.1143
     27  C8        -6.6210   56.7020   18.4190 C.2   1682  THD1682     0.2123
     28  O9        -6.9470   57.1260   19.5530 O.2   1682  THD1682    -0.2906
     29  C9        -6.6590   55.2760   18.1520 C.3   1682  THD1682     0.2485
     30  O10       -5.6790   54.6120   18.9270 O.3   1682  THD1682    -0.2118
@<TRIPOS>BOND
     1    24    23    2
     2    21    19    2
     3    23    26    1
     4    23    25    1
     5    23    22    1
     6    22    19    1
     7    19    18    1
     8    19    20    1
     9    18    17    1
    10    17    16    1
    11    16    13    1
    12    13    12    1
    13    13    14    2
    14    12    11    1
    15    15    14    1
    16    14    10    1
    17    11    10    1
    18    11    27    1
    19    10     9    1
    20    29    27    1
    21    29    30    1
    22    27    28    2
    23     9     7    1
    24     7     8    2
    25     7     5    1
    26     8     1    1
    27     6     5    1
    28     5     4    2
    29     1     2    2
    30     4     2    2
    31     2     3    1
