@<TRIPOS>MOLECULE
1gpy_PLP_A_1.pdb
 15 15 0 0 0
SMALL
GASTEIGER

@<TRIPOS>ATOM
      1  N1        25.0030   25.6430   30.1870 N.ar  999  PLP999     -0.2452
      2  C2        23.8290   24.9920   30.4360 C.ar  999  PLP999      0.0978
      3  C2A       22.9670   25.4130   31.6240 C.3   999  PLP999      0.0555
      4  C3        23.5200   23.8700   29.7450 C.ar  999  PLP999      0.2049
      5  O3        22.4360   23.1440   30.1370 O.3   999  PLP999     -0.2857
      6  C4        24.3930   23.3740   28.7890 C.ar  999  PLP999      0.0182
      7  C4A       24.1870   21.9630   28.1640 C.3   999  PLP999      0.0342
      8  C5        25.5600   24.0350   28.5360 C.ar  999  PLP999      0.0261
      9  C6        25.8610   25.1810   29.2390 C.ar  999  PLP999      0.0965
     10  C5A       26.5230   23.5290   27.4350 C.3   999  PLP999      0.1815
     11  O4P       26.2380   24.4390   26.3590 O.3   999  PLP999     -0.2653
     12  P         26.9900   24.7410   25.0810 P.3   999  PLP999      0.5329
     13  O1P       27.4240   23.4350   24.5690 O.3   999  PLP999     -0.1145
     14  O2P       26.1150   25.5550   24.2790 O.2   999  PLP999     -0.2224
     15  O3P       28.1960   25.6330   25.5630 O.3   999  PLP999     -0.1145
@<TRIPOS>BOND
     1    14    12    2
     2    13    12    1
     3    12    15    1
     4    12    11    1
     5    11    10    1
     6    10     8    1
     7     7     6    1
     8     8     6   ar
     9     8     9   ar
    10     6     4   ar
    11     9     1   ar
    12     4     5    1
    13     4     2   ar
    14     1     2   ar
    15     2     3    1
