@<TRIPOS>MOLECULE
1gpy_G6P_A_1.pdb
 16 16 0 0 0
SMALL
GASTEIGER

@<TRIPOS>ATOM
      1  C1        23.9590    2.9920   52.6800 C.3   998  G6P998      0.3024
      2  C2        23.6900    4.4090   52.4070 C.3   998  G6P998      0.2434
      3  C3        24.4470    5.0010   51.3220 C.3   998  G6P998      0.2199
      4  C4        25.8700    4.7550   51.3470 C.3   998  G6P998      0.2143
      5  C5        26.1080    3.2840   51.4500 C.3   998  G6P998      0.1808
      6  C6        27.6010    2.8340   51.3790 C.3   998  G6P998      0.1859
      7  O1        23.1030    2.4170   51.6870 O.3   998  G6P998     -0.1869
      8  O2        22.3410    4.6640   51.9990 O.3   998  G6P998     -0.2148
      9  O3        24.3120    6.3730   51.4670 O.3   998  G6P998     -0.2174
     10  O4        26.2180    5.2660   50.0600 O.3   998  G6P998     -0.2176
     11  O5        25.4260    2.8050   52.6870 O.3   998  G6P998     -0.3237
     12  O6        28.6930    3.8090   51.5970 O.3   998  G6P998     -0.2675
     13  P         30.2150    3.4000   51.0830 P.3   998  G6P998      0.5327
     14  O1P       30.1700    2.8320   49.6950 O.2   998  G6P998     -0.2224
     15  O2P       30.8550    2.4670   52.0610 O.3   998  G6P998     -0.1145
     16  O3P       30.9670    4.6770   51.0300 O.3   998  G6P998     -0.1145
@<TRIPOS>BOND
     1    14    13    2
     2    10     4    1
     3    16    13    1
     4    13    12    1
     5    13    15    1
     6     3     4    1
     7     3     9    1
     8     3     2    1
     9     4     5    1
    10     6     5    1
    11     6    12    1
    12     5    11    1
    13     7     1    1
    14     8     2    1
    15     2     1    1
    16     1    11    1
