@<TRIPOS>MOLECULE
1gpz_FUC_A_1.pdb
 10 10 0 0 0
SMALL
GASTEIGER

@<TRIPOS>ATOM
      1  C1        26.1860    5.8860   36.2070 C.3   2003  FUC2003     0.1776
      2  C2        26.9510    5.7180   37.5070 C.3   2003  FUC2003     0.2141
      3  C3        28.4580    6.0250   37.3110 C.3   2003  FUC2003     0.2172
      4  C4        28.6830    7.3640   36.5840 C.3   2003  FUC2003     0.2116
      5  C5        27.8330    7.4130   35.3150 C.3   2003  FUC2003     0.1483
      6  C6        27.9020    8.7530   34.6180 C.3   2003  FUC2003     0.0349
      7  O2        26.7830    4.3800   37.9340 O.3   2003  FUC2003    -0.2176
      8  O3        29.1240    6.0660   38.5670 O.3   2003  FUC2003    -0.2175
      9  O4        28.3370    8.4500   37.4340 O.3   2003  FUC2003    -0.2177
     10  O5        26.4460    7.1720   35.6440 O.3   2003  FUC2003    -0.3508
@<TRIPOS>BOND
     1     6     5    1
     2     5    10    1
     3     5     4    1
     4    10     1    1
     5     1     2    1
     6     4     3    1
     7     4     9    1
     8     3     2    1
     9     3     8    1
    10     2     7    1
