@<TRIPOS>MOLECULE
1gq1_HEC_A_1.pdb
 43 50 0 0 0
SMALL
GASTEIGER

@<TRIPOS>ATOM
      1 FE         28.9460   -1.6180   50.7960 Fe    601  HEC601      0.0000
      2  CHA       29.4000   -4.0630   53.1120 C.2   601  HEC601      0.0000
      3  CHB       31.0110    0.4380   52.5310 C.2   601  HEC601      0.0000
      4  CHC       28.9720    0.5480   48.1420 C.2   601  HEC601      0.0000
      5  CHD       26.4750   -3.4530   49.3020 C.2   601  HEC601      0.0000
      6  NA        29.9810   -1.7760   52.4990 N.2   601  HEC601      0.0000
      7  C1A       30.0780   -2.8830   53.3070 C.2   601  HEC601      0.0000
      8  C2A       31.0190   -2.6180   54.3710 C.2   601  HEC601      0.0000
      9  C3A       31.4630   -1.3740   54.2140 C.2   601  HEC601      0.0000
     10  C4A       30.7970   -0.8100   53.0570 C.2   601  HEC601      0.0000
     11  CMA       32.4850   -0.5970   55.0680 C.3   601  HEC601      0.0000
     12  CAA       31.3780   -3.6420   55.4720 C.3   601  HEC601      0.0000
     13  CBA       30.5350   -3.4920   56.7350 C.3   601  HEC601      0.0000
     14  CGA       30.6800   -4.5450   57.7960 C.2   601  HEC601      0.0000
     15  O1A       31.5270   -5.4410   57.5810 O.co2 601  HEC601      0.0000
     16  O2A       29.9260   -4.4110   58.7860 O.co2 601  HEC601      0.0000
     17  NB        29.7800    0.1560   50.4350 N.ar  601  HEC601      0.0000
     18  C1B       30.6210    0.8600   51.2850 C.ar  601  HEC601      0.0000
     19  C2B       31.1060    2.0300   50.6060 C.ar  601  HEC601      0.0000
     20  C3B       30.5740    2.0240   49.3760 C.ar  601  HEC601      0.0000
     21  C4B       29.7240    0.8750   49.2560 C.ar  601  HEC601      0.0000
     22  CMB       32.0710    3.0540   51.2510 C.3   601  HEC601      0.0000
     23  CAB       30.8090    3.1230   48.2920 C.3   601  HEC601      0.0000
     24  CBB       32.1580    3.1110   47.8720 C.3   601  HEC601      0.0000
     25  NC        27.9270   -1.4960   49.0810 N.2   601  HEC601      0.0000
     26  C1C       28.0960   -0.5220   48.1260 C.2   601  HEC601      0.0000
     27  C2C       27.0870   -0.7040   47.1000 C.2   601  HEC601      0.0000
     28  C3C       26.4150   -1.8130   47.4060 C.2   601  HEC601      0.0000
     29  C4C       26.8950   -2.3170   48.6550 C.2   601  HEC601      0.0000
     30  CMC       26.9190    0.2340   45.8870 C.3   601  HEC601      0.0000
     31  CAC       25.1300   -2.3220   46.6500 C.2   601  HEC601      0.0000
     32  CBC       25.2980   -2.8940   45.4150 C.2   601  HEC601      0.0000
     33  ND        28.1150   -3.4070   51.1300 N.ar  601  HEC601      0.0000
     34  C1D       27.0960   -3.9960   50.4020 C.ar  601  HEC601      0.0000
     35  C2D       26.8930   -5.3340   50.9130 C.ar  601  HEC601      0.0000
     36  C3D       27.7170   -5.5070   51.9510 C.ar  601  HEC601      0.0000
     37  C4D       28.4740   -4.2930   52.1160 C.ar  601  HEC601      0.0000
     38  CMD       25.8820   -6.3270   50.3060 C.3   601  HEC601      0.0000
     39  CAD       27.8880   -6.7340   52.8730 C.3   601  HEC601      0.0000
     40  CBD       26.9620   -6.7390   54.0990 C.3   601  HEC601      0.0000
     41  CGD       25.5070   -6.8970   53.7380 C.2   601  HEC601      0.0000
     42  O1D       24.7650   -5.8970   53.8810 O.co2 601  HEC601      0.0000
     43  O2D       25.1280   -8.0100   53.3000 O.co2 601  HEC601      0.0000
@<TRIPOS>BOND
     1    32    31    2
     2    30    27    1
     3    31    28    1
     4    27    28    2
     5    27    26    1
     6    28    29    1
     7    24    23    1
     8    26     4    2
     9    26    25    1
    10     4    21    1
    11    23    20    1
    12    29    25    2
    13    29     5    1
    14    25     1    1
    15    21    20   ar
    16    21    17   ar
    17     5    34    2
    18    20    19   ar
    19    38    35    1
    20    34    35   ar
    21    34    33   ar
    22    17     1    1
    23    17    18   ar
    24    19    22    1
    25    19    18   ar
    26     1    33    1
    27     1     6    1
    28    35    36   ar
    29    33    37   ar
    30    18     3    1
    31    36    37   ar
    32    36    39    1
    33    37     2    2
    34     6    10    1
    35     6     7    2
    36     3    10    2
    37    39    40    1
    38    10     9    1
    39     2     7    1
    40    43    41   ar
    41     7     8    1
    42    41    42   ar
    43    41    40    1
    44     9     8    2
    45     9    11    1
    46     8    12    1
    47    12    13    1
    48    13    14    1
    49    15    14   ar
    50    14    16   ar
