@<TRIPOS>MOLECULE
1gq1_DHE_A_1.pdb
 49 56 0 0 0
SMALL
GASTEIGER

@<TRIPOS>ATOM
      1 FE         14.9690    3.5800   36.2650 Fe    602  DHE602      0.0000
      2  CHA       11.6080    2.9290   36.0010 C.2   602  DHE602      0.0000
      3  CHB       14.6590    3.9310   39.6000 C.2   602  DHE602      0.0000
      4  CHC       18.3330    3.7590   36.4860 C.2   602  DHE602      0.0000
      5  CHD       15.1980    3.5510   32.8270 C.2   602  DHE602      0.0000
      6  NA        13.4370    3.4480   37.5530 N.2   602  DHE602      0.0000
      7  C1A       12.1100    3.1880   37.2590 C.2   602  DHE602      0.0000
      8  C2A       11.3100    3.3400   38.4630 C.2   602  DHE602      0.0000
      9  C3A       12.1440    3.6280   39.4630 C.2   602  DHE602      0.0000
     10  C4A       13.4780    3.6780   38.9210 C.2   602  DHE602      0.0000
     11  CMA       11.8130    3.8720   40.9560 C.3   602  DHE602      0.0000
     12  CAA        9.7670    3.2010   38.4790 C.3   602  DHE602      0.0000
     13  CBA        9.1010    4.5060   38.0060 C.3   602  DHE602      0.0000
     14  CGA        7.6180    4.6540   38.0000 C.2   602  DHE602      0.0000
     15  O1A        6.9000    3.8040   38.5550 O.co2 602  DHE602      0.0000
     16  O2A        7.1160    5.6710   37.4270 O.co2 602  DHE602      0.0000
     17  NB        16.2850    3.7940   37.7640 N.pl3 602  DHE602      0.0000
     18  C1B       15.9560    3.9550   39.0990 C.2   602  DHE602      0.0000
     19  C2B       17.1710    4.0680   39.8600 C.2   602  DHE602      0.0000
     20  OMB       17.1660    4.2500   41.3610 O.2   602  DHE602      0.0000
     21  C3B       18.1930    3.7680   39.0360 C.2   602  DHE602      0.0000
     22  CGB       18.5370    2.2880   39.2960 C.3   602  DHE602      0.0000
     23  CAB       19.4270    4.6150   39.2330 C.3   602  DHE602      0.0000
     24  CBB       19.3000    5.9270   39.3840 C.2   602  DHE602      0.0000
     25  O1B       19.9330    6.5950   40.2590 O.co2 602  DHE602      0.0000
     26  O2B       18.5390    6.5870   38.6230 O.co2 602  DHE602      0.0000
     27  C4B       17.6640    3.8340   37.6910 C.2   602  DHE602      0.0000
     28  NC        16.4590    3.6390   34.9100 N.2   602  DHE602      0.0000
     29  C1C       17.8100    3.7060   35.2010 C.2   602  DHE602      0.0000
     30  C2C       18.5590    3.7510   33.9780 C.2   602  DHE602      0.0000
     31  OMC       20.0730    3.8500   33.9920 O.2   602  DHE602      0.0000
     32  C3C       17.7110    3.7060   32.9480 C.2   602  DHE602      0.0000
     33  CGC       17.9420    2.3570   32.2110 C.3   602  DHE602      0.0000
     34  CAC       17.8660    4.8310   31.9420 C.3   602  DHE602      0.0000
     35  CBC       17.6540    6.0800   32.3180 C.2   602  DHE602      0.0000
     36  O1C       17.0030    6.8990   31.6060 O.co2 602  DHE602      0.0000
     37  O2C       18.0870    6.5370   33.4230 O.co2 602  DHE602      0.0000
     38  C4C       16.3720    3.6410   33.5300 C.2   602  DHE602      0.0000
     39  ND        13.6750    3.3020   34.7440 N.ar  602  DHE602      0.0000
     40  C1D       13.9550    3.3350   33.3820 C.ar  602  DHE602      0.0000
     41  C2D       12.7680    3.0150   32.6220 C.ar  602  DHE602      0.0000
     42  C3D       11.7750    2.8320   33.4940 C.ar  602  DHE602      0.0000
     43  C4D       12.3200    3.0100   34.8230 C.ar  602  DHE602      0.0000
     44  CMD       12.7390    2.9370   31.0800 C.3   602  DHE602      0.0000
     45  CAD       10.3030    2.4810   33.2640 C.2   602  DHE602      0.0000
     46  CBD        9.9120    1.6160   32.1130 C.2   602  DHE602      0.0000
     47  CGD        8.4630    1.2410   32.0180 C.2   602  DHE602      0.0000
     48  O1D        8.1880    0.6710   30.9470 O.co2 602  DHE602      0.0000
     49  O2D        7.7070    1.5310   32.9910 O.co2 602  DHE602      0.0000
@<TRIPOS>BOND
     1    48    47   ar
     2    44    41    1
     3    36    35   ar
     4    34    35    1
     5    34    32    1
     6    47    46    1
     7    47    49   ar
     8    46    45    2
     9    33    32    1
    10    35    37   ar
    11    41    40   ar
    12    41    42   ar
    13     5    40    2
    14     5    38    1
    15    32    38    1
    16    32    30    2
    17    45    42    1
    18    40    39   ar
    19    42    43   ar
    20    38    28    2
    21    30    31    1
    22    30    29    1
    23    39    43   ar
    24    39     1    1
    25    43     2    2
    26    28    29    1
    27    28     1    1
    28    29     4    2
    29     2     7    1
    30     1     6    1
    31     1    17    1
    32     4    27    1
    33     7     6    2
    34     7     8    1
    35    16    14   ar
    36     6    10    1
    37    27    17    1
    38    27    21    2
    39    17    18    1
    40    14    13    1
    41    14    15   ar
    42    13    12    1
    43     8    12    1
    44     8     9    2
    45    26    24   ar
    46    10     9    1
    47    10     3    2
    48    21    23    1
    49    21    22    1
    50    21    19    1
    51    18     3    1
    52    18    19    2
    53    23    24    1
    54    24    25   ar
    55     9    11    1
    56    19    20    1
