@<TRIPOS>MOLECULE
1gq2_NAP_A_1.pdb
 48 52 0 0 0
SMALL
GASTEIGER

@<TRIPOS>ATOM
      1  PA        39.1230   55.9540  123.9210 P.3   1581  NAP1581     0.2189
      2  O1A       39.8750   54.8800  123.2170 O.2   1581  NAP1581    -0.5170
      3  O2A       39.5400   57.3640  123.7550 O.3   1581  NAP1581    -0.4371
      4  O5B       39.1040   55.6480  125.5040 O.3   1581  NAP1581    -0.3112
      5  C5B       38.9980   54.3110  126.0270 C.3   1581  NAP1581     0.1813
      6  C4B       39.4060   54.3560  127.4940 C.3   1581  NAP1581     0.1820
      7  O4B       39.1630   53.0550  128.1430 O.3   1581  NAP1581    -0.3136
      8  C3B       40.8830   54.6480  127.6210 C.3   1581  NAP1581     0.2157
      9  O3B       41.1220   55.6620  128.6150 O.3   1581  NAP1581    -0.2175
     10  C2B       41.5040   53.3660  128.0600 C.3   1581  NAP1581     0.2314
     11  O2B       42.7170   53.6000  128.8090 O.3   1581  NAP1581    -0.2630
     12  C1B       40.4030   52.7070  128.8520 C.3   1581  NAP1581     0.3158
     13  N9A       40.5480   51.2450  128.9900 N.pl3 1581  NAP1581    -0.1439
     14  C8A       40.8060   50.3230  127.9930 C.3   1581  NAP1581     0.3377
     15  N7A       40.8170   49.0820  128.5420 N.2   1581  NAP1581    -0.2095
     16  C5A       40.5730   49.2880  129.8140 C.2   1581  NAP1581     0.2526
     17  C6A       40.4900   48.2490  130.7210 C.2   1581  NAP1581     0.4393
     18  N6A       40.6890   46.9840  130.3560 N.pl3 1581  NAP1581     0.2180
     19  N1A       40.2080   48.5850  132.0220 N.2   1581  NAP1581     0.0021
     20  C2A       40.0280   49.9010  132.3740 C.3   1581  NAP1581     0.5254
     21  N3A       40.1270   50.8940  131.4340 N.2   1581  NAP1581    -0.0055
     22  C4A       40.4050   50.5710  130.1300 C.2   1581  NAP1581     0.3518
     23  O3        37.5710   55.8170  123.5300 O.3   1581  NAP1581    -0.2703
     24  PN        36.2360   56.6440  123.8200 P.3   1581  NAP1581     0.2189
     25  O1N       36.1130   57.6830  122.7740 O.2   1581  NAP1581    -0.5170
     26  O2N       36.2210   57.0580  125.2470 O.3   1581  NAP1581    -0.4371
     27  O5D       35.1050   55.5320  123.5960 O.3   1581  NAP1581    -0.3112
     28  C5D       35.1550   54.3100  124.3470 C.3   1581  NAP1581     0.1813
     29  C4D       33.7980   53.6040  124.3480 C.3   1581  NAP1581     0.1799
     30  O4D       32.7300   54.5540  124.6970 O.3   1581  NAP1581    -0.3327
     31  C3D       33.4760   53.0320  122.9750 C.3   1581  NAP1581     0.2158
     32  O3D       33.2240   51.5990  123.0580 O.3   1581  NAP1581    -0.2175
     33  C2D       32.2310   53.7720  122.5040 C.3   1581  NAP1581     0.2309
     34  O2D       31.3060   52.8850  121.8240 O.3   1581  NAP1581    -0.2158
     35  C1D       31.6290   54.3550  123.7610 C.3   1581  NAP1581     0.2263
     36  N1N       30.8780   55.6240  123.4880 N.pl3 1581  NAP1581    -0.2787
     37  C2N       29.4750   55.6170  123.6660 C.3   1581  NAP1581     0.1244
     38  C3N       28.7170   56.7630  123.3920 C.2   1581  NAP1581     0.0544
     39  C7N       27.1840   56.7310  123.6250 C.2   1581  NAP1581     0.2818
     40  O7N       26.6350   55.7160  124.0610 O.2   1581  NAP1581    -0.2670
     41  N7N       26.5300   57.8610  123.3370 N.am  1581  NAP1581    -0.0839
     42  C4N       29.3720   57.9440  122.9340 C.2   1581  NAP1581     0.0033
     43  C5N       30.7790   57.9710  122.7540 C.2   1581  NAP1581     0.0157
     44  C6N       31.5430   56.8200  123.0300 C.2   1581  NAP1581     0.0633
     45  P2B       44.1810   54.2420  128.4800 P.3   1581  NAP1581     0.5328
     46  O1X       45.0770   53.7810  129.5740 O.3   1581  NAP1581    -0.1145
     47  O2X       44.5390   53.6920  127.1440 O.2   1581  NAP1581    -0.2224
     48  O3X       43.9790   55.7110  128.4830 O.3   1581  NAP1581    -0.1145
@<TRIPOS>BOND
     1    34    33    1
     2    33    31    1
     3    33    35    1
     4    43    42    1
     5    43    44    2
     6    25    24    2
     7    42    38    2
     8    31    32    1
     9    31    29    1
    10    44    36    1
    11     2     1    2
    12    41    39   am
    13    38    39    1
    14    38    37    1
    15    36    37    1
    16    36    35    1
    17    23    24    1
    18    23     1    1
    19    27    24    1
    20    27    28    1
    21    39    40    2
    22     3     1    1
    23    35    30    1
    24    24    26    1
    25     1     4    1
    26    28    29    1
    27    29    30    1
    28     4     5    1
    29     5     6    1
    30    47    45    2
    31     6     8    1
    32     6     7    1
    33     8    10    1
    34     8     9    1
    35    14    15    1
    36    14    13    1
    37    10    11    1
    38    10    12    1
    39     7    12    1
    40    45    48    1
    41    45    11    1
    42    45    46    1
    43    15    16    2
    44    12    13    1
    45    13    22    1
    46    16    22    1
    47    16    17    1
    48    22    21    2
    49    18    17    1
    50    17    19    2
    51    21    20    1
    52    19    20    1
