@<TRIPOS>MOLECULE
1gq9_CTP_A_1.pdb
 29 30 0 0 0
SMALL
GASTEIGER

@<TRIPOS>ATOM
      1  N1        14.8320   90.5470   67.8140 N.am  1243  CTP1243    -0.1778
      2  C2        14.6420   91.8020   67.2620 C.1   1243  CTP1243     0.2756
      3  N3        14.0390   91.9240   65.9430 N.2   1243  CTP1243    -0.3024
      4  C4        13.6710   90.8970   65.2450 C.2   1243  CTP1243     0.2346
      5  C5        13.8860   89.5510   65.8570 C.2   1243  CTP1243     0.0687
      6  C6        14.4480   89.4340   67.0880 C.2   1243  CTP1243     0.0836
      7  O2        14.9450   92.8470   67.8140 O.2   1243  CTP1243    -0.1925
      8  N4        13.1350   91.0230   64.0640 N.pl3 1243  CTP1243    -0.0921
      9  C1'       15.4440   90.3950   69.1540 C.3   1243  CTP1243     0.2400
     10  C2'       14.4490   90.1150   70.2990 C.3   1243  CTP1243     0.2319
     11  O2'       13.6370   91.2470   70.6260 O.3   1243  CTP1243    -0.2157
     12  C3'       15.3650   89.6310   71.4290 C.3   1243  CTP1243     0.2158
     13  C4'       16.3900   88.7770   70.6690 C.3   1243  CTP1243     0.1799
     14  O4'       16.3860   89.2840   69.3100 O.3   1243  CTP1243    -0.3320
     15  O3'       16.0760   90.7080   72.0560 O.3   1243  CTP1243    -0.2175
     16  C5'       16.0660   87.2560   70.7740 C.3   1243  CTP1243     0.1813
     17  O5'       15.2740   86.8170   69.6570 O.3   1243  CTP1243    -0.3112
     18  PA        14.2140   85.6250   69.8020 P.3   1243  CTP1243     0.2189
     19  O1A       13.9270   85.0170   68.4680 O.2   1243  CTP1243    -0.5170
     20  O2A       14.8360   84.5770   70.6680 O.3   1243  CTP1243    -0.4371
     21  O3A       12.8780   86.2160   70.5050 O.3   1243  CTP1243    -0.2700
     22  PB        11.6430   86.5810   69.5140 P.3   1243  CTP1243     0.2277
     23  O1B       12.1710   87.3100   68.3210 O.2   1243  CTP1243    -0.5168
     24  O2B       10.7230   87.5190   70.2290 O.3   1243  CTP1243    -0.4368
     25  O3B       10.8980   85.2180   69.0090 O.3   1243  CTP1243    -0.2258
     26  PG        10.6290   84.0570   70.1120 P.3   1243  CTP1243     0.5373
     27  O1G        9.8570   82.9280   69.5140 O.2   1243  CTP1243    -0.2221
     28  O2G        9.8690   84.6120   71.2710 O.3   1243  CTP1243    -0.1143
     29  O3G       12.0370   83.4850   70.6260 O.3   1243  CTP1243    -0.1143
@<TRIPOS>BOND
     1     8     4    1
     2     4     5    1
     3     4     3    2
     4     5     6    2
     5     3     2    2
     6     6     1    1
     7     2     7    2
     8     2     1   am
     9     1     9    1
    10    23    22    2
    11    19    18    2
    12    25    22    1
    13    25    26    1
    14     9    14    1
    15     9    10    1
    16    14    13    1
    17    22    24    1
    18    22    21    1
    19    27    26    2
    20    17    18    1
    21    17    16    1
    22    18    21    1
    23    18    20    1
    24    26    29    1
    25    26    28    1
    26    10    11    1
    27    10    12    1
    28    13    16    1
    29    13    12    1
    30    12    15    1
