@<TRIPOS>MOLECULE
1gqa_HEC_A_1.pdb
 43 50 0 0 0
SMALL
GASTEIGER

@<TRIPOS>ATOM
      1  CHA       39.6760  -17.7360  -67.4960 C.2   131  HEC131      0.0000
      2  CHB       42.0860  -21.9430  -67.4290 C.2   131  HEC131      0.0000
      3  CHC       38.4590  -24.0870  -69.6710 C.2   131  HEC131      0.0000
      4  CHD       36.1300  -19.7980  -70.0380 C.2   131  HEC131      0.0000
      5  NA        40.7080  -19.9530  -67.6130 N.2   131  HEC131      0.0000
      6  C1A       40.6710  -18.7240  -67.2080 C.2   131  HEC131      0.0000
      7  C2A       41.8580  -18.4850  -66.5540 C.2   131  HEC131      0.0000
      8  C3A       42.5350  -19.7250  -66.4780 C.2   131  HEC131      0.0000
      9  C4A       41.7350  -20.6140  -67.1810 C.2   131  HEC131      0.0000
     10  CMA       43.8700  -20.0090  -65.8290 C.3   131  HEC131      0.0000
     11  CAA       42.1940  -17.1920  -65.8020 C.3   131  HEC131      0.0000
     12  CBA       41.6930  -17.1190  -64.3970 C.3   131  HEC131      0.0000
     13  CGA       42.1710  -15.8590  -63.6370 C.2   131  HEC131      0.0000
     14  O1A       42.8140  -15.9390  -62.5790 O.co2 131  HEC131      0.0000
     15  O2A       41.7970  -14.7260  -63.9780 O.co2 131  HEC131      0.0000
     16  NB        40.0010  -22.7990  -68.6070 N.ar  131  HEC131      0.0000
     17  C1B       41.3270  -22.9710  -68.0200 C.ar  131  HEC131      0.0000
     18  C2B       41.7290  -24.3070  -68.2010 C.ar  131  HEC131      0.0000
     19  C3B       40.6680  -24.9360  -68.8420 C.ar  131  HEC131      0.0000
     20  C4B       39.6780  -23.9690  -69.0290 C.ar  131  HEC131      0.0000
     21  CMB       43.0580  -24.8560  -67.7180 C.3   131  HEC131      0.0000
     22  CAB       40.5500  -26.2910  -69.1960 C.3   131  HEC131      0.0000
     23  CBB       40.9250  -27.3790  -68.3370 C.3   131  HEC131      0.0000
     24  NC        37.5560  -21.8240  -69.7010 N.2   131  HEC131      0.0000
     25  C1C       37.4660  -23.1240  -70.0080 C.2   131  HEC131      0.0000
     26  C2C       36.2180  -23.3960  -70.5570 C.2   131  HEC131      0.0000
     27  C3C       35.5770  -22.1580  -70.7250 C.2   131  HEC131      0.0000
     28  C4C       36.3790  -21.1770  -70.1540 C.2   131  HEC131      0.0000
     29  CMC       35.7320  -24.7750  -71.0860 C.3   131  HEC131      0.0000
     30  CAC       34.3080  -21.9220  -71.3020 C.3   131  HEC131      0.0000
     31  CBC       33.0990  -22.6640  -71.0850 C.3   131  HEC131      0.0000
     32  ND        37.9710  -18.8980  -68.7520 N.ar  131  HEC131      0.0000
     33  C1D       36.8460  -18.8510  -69.3440 C.ar  131  HEC131      0.0000
     34  C2D       36.4880  -17.5080  -69.1840 C.ar  131  HEC131      0.0000
     35  C3D       37.5210  -16.9090  -68.4640 C.ar  131  HEC131      0.0000
     36  C4D       38.4540  -17.9230  -68.1830 C.ar  131  HEC131      0.0000
     37  CMD       35.2370  -16.8400  -69.6990 C.3   131  HEC131      0.0000
     38  CAD       37.6090  -15.4330  -67.9910 C.3   131  HEC131      0.0000
     39  CBD       37.1460  -15.2560  -66.5290 C.3   131  HEC131      0.0000
     40  CGD       37.1250  -13.8060  -66.0270 C.2   131  HEC131      0.0000
     41  O1D       38.0380  -13.0780  -66.3650 O.co2 131  HEC131      0.0000
     42  O2D       36.0870  -13.3660  -65.5660 O.co2 131  HEC131      0.0000
     43 FE         39.2140  -20.8140  -68.9330 Fe    131  HEC131      0.0000
@<TRIPOS>BOND
     1    30    31    1
     2    30    27    1
     3    29    26    1
     4    27    26    2
     5    27    28    1
     6    26    25    1
     7    28     4    1
     8    28    24    2
     9     4    33    2
    10    25    24    1
    11    25     3    2
    12    24    43    1
    13    37    34    1
    14     3    20    1
    15    33    34   ar
    16    33    32   ar
    17    22    19    1
    18    22    23    1
    19    34    35   ar
    20    20    19   ar
    21    20    16   ar
    22    43    32    1
    23    43    16    1
    24    43     5    1
    25    19    18   ar
    26    32    36   ar
    27    16    17   ar
    28    35    36   ar
    29    35    38    1
    30    18    17   ar
    31    18    21    1
    32    36     1    2
    33    17     2    1
    34    38    39    1
    35     5     6    2
    36     5     9    1
    37     1     6    1
    38     2     9    2
    39     6     7    1
    40     9     8    1
    41     7     8    2
    42     7    11    1
    43    39    40    1
    44     8    10    1
    45    41    40   ar
    46    40    42   ar
    47    11    12    1
    48    12    13    1
    49    15    13   ar
    50    13    14   ar
