@<TRIPOS>MOLECULE
1gqc_C5P_B_1.pdb
 21 22 0 0 0
SMALL
GASTEIGER

@<TRIPOS>ATOM
      1  O3P       40.8320   47.6440   56.4430 O.3   1243  C5P1243    -0.1145
      2  P         39.9340   48.9690   56.2670 P.3   1243  C5P1243     0.5327
      3  O1P       39.4430   49.3970   57.6080 O.3   1243  C5P1243    -0.1145
      4  O2P       38.7480   48.6410   55.4290 O.2   1243  C5P1243    -0.2224
      5  O5'       40.7520   50.1980   55.5720 O.3   1243  C5P1243    -0.2675
      6  C5'       40.6440   50.8070   54.2620 C.3   1243  C5P1243     0.1859
      7  C4'       41.9370   50.7300   53.3310 C.3   1243  C5P1243     0.1801
      8  O4'       43.1160   51.1500   54.0460 O.3   1243  C5P1243    -0.3320
      9  C3'       42.2630   49.3150   52.7700 C.3   1243  C5P1243     0.2158
     10  O3'       42.6990   49.4460   51.4140 O.3   1243  C5P1243    -0.2175
     11  C2'       43.4000   48.8320   53.6600 C.3   1243  C5P1243     0.2319
     12  O2'       44.2750   47.8650   53.0610 O.3   1243  C5P1243    -0.2157
     13  C1'       44.1530   50.1240   54.0260 C.3   1243  C5P1243     0.2400
     14  N1        44.8410   49.9440   55.3230 N.am  1243  C5P1243    -0.1778
     15  C2        46.2110   49.7250   55.4030 C.1   1243  C5P1243     0.2756
     16  N3        46.8250   49.5540   56.7150 N.2   1243  C5P1243    -0.3024
     17  C4        46.1390   49.6000   57.8180 C.2   1243  C5P1243     0.2346
     18  C5        44.6790   49.8350   57.7040 C.2   1243  C5P1243     0.0687
     19  C6        44.1050   49.9930   56.4930 C.2   1243  C5P1243     0.0836
     20  O2        46.9620   49.6640   54.4360 O.2   1243  C5P1243    -0.1925
     21  N4        46.6810   49.4480   58.9870 N.pl3 1243  C5P1243    -0.0921
@<TRIPOS>BOND
     1    10     9    1
     2     9     7    1
     3     9    11    1
     4    12    11    1
     5     7     8    1
     6     7     6    1
     7    11    13    1
     8    13     8    1
     9    13    14    1
    10     6     5    1
    11    20    15    2
    12    14    15   am
    13    14    19    1
    14    15    16    2
    15     4     2    2
    16     5     2    1
    17     2     1    1
    18     2     3    1
    19    19    18    2
    20    16    17    2
    21    18    17    1
    22    17    21    1
