@<TRIPOS>MOLECULE
1gqc_CMK_A_1.pdb
 36 38 0 0 0
SMALL
GASTEIGER

@<TRIPOS>ATOM
      1  N1C       16.1330   88.2650   67.0340 N.am  1244  CMK1244    -0.1778
      2  C2C       15.8720   89.3630   66.2660 C.1   1244  CMK1244     0.2756
      3  N3C       15.1420   89.2080   65.0120 N.2   1244  CMK1244    -0.3024
      4  C4C       14.7200   88.0550   64.5860 C.2   1244  CMK1244     0.2346
      5  C5C       15.0150   86.8720   65.4420 C.2   1244  CMK1244     0.0687
      6  C6C       15.6940   87.0230   66.6010 C.2   1244  CMK1244     0.0836
      7  O2C       16.2210   90.4900   66.5680 O.2   1244  CMK1244    -0.1925
      8  N4C       14.0670   87.9150   63.4600 N.pl3 1244  CMK1244    -0.0921
      9  C1'       16.8820   88.4100   68.2980 C.3   1244  CMK1244     0.2400
     10  C2'       16.2230   87.7470   69.5300 C.3   1244  CMK1244     0.2319
     11  O2'       15.1780   88.5930   70.0440 O.3   1244  CMK1244    -0.2157
     12  C3'       17.4020   87.5390   70.4900 C.3   1244  CMK1244     0.2158
     13  C4'       18.6110   87.4280   69.5310 C.3   1244  CMK1244     0.1799
     14  O4'       18.1610   87.7970   68.2340 O.3   1244  CMK1244    -0.3320
     15  O3'       17.6080   88.6870   71.3510 O.3   1244  CMK1244    -0.2175
     16  C5'       19.2370   86.0240   69.4180 C.3   1244  CMK1244     0.1813
     17  O5'       18.2750   85.0070   69.1890 O.3   1244  CMK1244    -0.3113
     18  PA        18.0130   83.5870   69.8600 P.3   1244  CMK1244     0.2162
     19  O1A       17.5390   83.6820   71.2800 O.3   1244  CMK1244    -0.4372
     20  O2A       16.9760   82.8640   69.0610 O.2   1244  CMK1244    -0.5171
     21  O6        21.4060   81.7350   69.2910 O.3   1244  CMK1244    -0.3228
     22  C2        20.0200   81.9210   68.8820 C.3   1244  CMK1244     0.2907
     23  O2        19.3580   82.7390   69.8440 O.3   1244  CMK1244    -0.2833
     24  C3        19.9530   82.5590   67.4500 C.3   1244  CMK1244     0.1039
     25  C4        20.7540   81.6760   66.4530 C.3   1244  CMK1244     0.1901
     26  O4        20.6730   82.2650   65.1510 O.3   1244  CMK1244    -0.2201
     27  C5        22.2460   81.5720   66.9570 C.3   1244  CMK1244     0.2118
     28  C6        22.2240   80.9170   68.3890 C.3   1244  CMK1244     0.1837
     29  C7        23.6520   80.7800   68.9730 C.3   1244  CMK1244     0.2143
     30  C1        19.2300   80.5900   69.0230 C.2   1244  CMK1244     0.4155
     31  O1X       19.1950   80.0660   70.2360 O.co2 1244  CMK1244    -0.2402
     32  O1Y       18.6500   80.0410   68.1050 O.co2 1244  CMK1244    -0.2402
     33  O5        22.8570   82.8820   67.0410 O.3   1244  CMK1244    -0.2177
     34  C8        23.6360   80.6400   70.5330 C.3   1244  CMK1244     0.2174
     35  O8        22.6750   79.6450   70.9040 O.3   1244  CMK1244    -0.2175
     36  O7        24.2610   79.6140   68.3950 O.3   1244  CMK1244    -0.2176
@<TRIPOS>BOND
     1     8     4    1
     2     4     3    2
     3     4     5    1
     4     3     2    2
     5    26    25    1
     6     5     6    2
     7     2     7    2
     8     2     1   am
     9    25    27    1
    10    25    24    1
    11     6     1    1
    12    27    33    1
    13    27    28    1
    14     1     9    1
    15    24    22    1
    16    32    30   ar
    17    14     9    1
    18    14    13    1
    19     9    10    1
    20    28    29    1
    21    28    21    1
    22    36    29    1
    23    22    30    1
    24    22    21    1
    25    22    23    1
    26    29    34    1
    27    30    31   ar
    28    20    18    2
    29    17    16    1
    30    17    18    1
    31    16    13    1
    32    10    11    1
    33    10    12    1
    34    13    12    1
    35    23    18    1
    36    18    19    1
    37    12    15    1
    38    34    35    1
