@<TRIPOS>MOLECULE
1gqh_KOJ_A_1.pdb
 10 10 0 0 0
SMALL
GASTEIGER

@<TRIPOS>ATOM
      1  C1        65.2760   10.3780   74.7920 C.3   1351  KOJ1351     0.2766
      2  C2        64.8850    9.0840   75.0830 C.2   1351  KOJ1351     0.2555
      3  C3        65.6010    8.0640   74.5600 C.2   1351  KOJ1351     0.2366
      4  C4        66.7050    8.3340   73.7500 C.2   1351  KOJ1351     0.0802
      5  C5        67.0870    9.6450   73.4930 C.2   1351  KOJ1351     0.1532
      6  C6        68.2600    9.9550   72.6460 C.3   1351  KOJ1351     0.2453
      7  O2        63.8370    8.7820   75.8430 O.2   1351  KOJ1351    -0.2840
      8  O3        65.1800    6.8450   74.8440 O.2   1351  KOJ1351    -0.2833
      9  O5        66.4240   10.5950   73.9530 O.2   1351  KOJ1351    -0.4685
     10  O6        68.1090   10.8020   71.6310 O.3   1351  KOJ1351    -0.2117
@<TRIPOS>BOND
     1    10     6    1
     2     6     5    1
     3     5     4    2
     4     5     9    1
     5     4     3    1
     6     9     1    1
     7     3     8    1
     8     3     2    2
     9     1     2    1
    10     2     7    1
