@<TRIPOS>MOLECULE
1gqj_XYP_A_2.pdb
 10 10 0 0 0
SMALL
GASTEIGER

@<TRIPOS>ATOM
      1  O4A       14.0070  -16.3840   10.1210 O.3   1720  XYP1720    -0.1869
      2  C1B       13.6960  -15.5320    9.0480 C.3   1720  XYP1720     0.3024
      3  C2B       14.7660  -15.7450    8.0380 C.3   1720  XYP1720     0.2434
      4  C3B       14.5190  -14.9190    6.7830 C.3   1720  XYP1720     0.2199
      5  C4B       13.0860  -15.1360    6.2870 C.3   1720  XYP1720     0.2143
      6  C5B       12.1210  -15.0460    7.4550 C.3   1720  XYP1720     0.1804
      7  O2B       15.9790  -15.3880    8.6670 O.3   1720  XYP1720    -0.2148
      8  O3B       15.5090  -15.2690    5.8150 O.3   1720  XYP1720    -0.2174
      9  O4B       12.6550  -14.1760    5.3400 O.3   1720  XYP1720    -0.2176
     10  O5B       12.5110  -15.8970    8.5130 O.3   1720  XYP1720    -0.3237
@<TRIPOS>BOND
     1     9     5    1
     2     8     4    1
     3     5     4    1
     4     5     6    1
     5     4     3    1
     6     6    10    1
     7     3     7    1
     8     3     2    1
     9    10     2    1
    10     2     1    1
