@<TRIPOS>MOLECULE
1gqk_BDP_A_1.pdb
 13 13 0 0 0
SMALL
GASTEIGER

@<TRIPOS>ATOM
      1  C1         8.7480  -11.7250    3.3420 C.3   1713  BDP1713     0.3028
      2  C2         9.1250  -11.2060    4.7270 C.3   1713  BDP1713     0.2435
      3  C3         8.4840  -11.9960    5.8510 C.3   1713  BDP1713     0.2204
      4  C4         6.9840  -12.0520    5.5820 C.3   1713  BDP1713     0.2229
      5  C5         6.7550  -12.7090    4.2380 C.3   1713  BDP1713     0.2530
      6  C6         5.2980  -12.6920    3.7810 C.2   1713  BDP1713     0.3941
      7  O2        10.5400  -11.2320    4.7840 O.3   1713  BDP1713    -0.2148
      8  O3         8.7300  -11.2920    7.0570 O.3   1713  BDP1713    -0.2174
      9  O4         6.3220  -12.8150    6.5540 O.3   1713  BDP1713    -0.2171
     10  O5         7.3820  -11.9570    3.2350 O.3   1713  BDP1713    -0.3149
     11  O6A        4.9540  -11.8470    2.9320 O.co2 1713  BDP1713    -0.2429
     12  O1         8.9470  -10.5880    2.5080 O.3   1713  BDP1713    -0.1869
     13  O6B        4.5620  -13.5590    4.2530 O.co2 1713  BDP1713    -0.2429
@<TRIPOS>BOND
     1    12     1    1
     2    11     6   ar
     3    10     1    1
     4    10     5    1
     5     1     2    1
     6     6     5    1
     7     6    13   ar
     8     5     4    1
     9     2     7    1
    10     2     3    1
    11     4     3    1
    12     4     9    1
    13     3     8    1
