@<TRIPOS>MOLECULE
1gql_BDP_A_1.pdb
 13 13 0 0 0
SMALL
GASTEIGER

@<TRIPOS>ATOM
      1  C1         8.6950  -11.3970    3.4160 C.3   1706  BDP1706     0.3028
      2  C2         9.1070  -11.1260    4.8710 C.3   1706  BDP1706     0.2435
      3  C3         8.4410  -11.9820    5.9350 C.3   1706  BDP1706     0.2204
      4  C4         6.9460  -12.0730    5.7150 C.3   1706  BDP1706     0.2229
      5  C5         6.7430  -12.5230    4.2620 C.3   1706  BDP1706     0.2530
      6  C6         5.2690  -12.6570    3.8750 C.2   1706  BDP1706     0.3941
      7  O2        10.5140  -11.3300    4.9940 O.3   1706  BDP1706    -0.2148
      8  O3         8.7850  -11.3970    7.2020 O.3   1706  BDP1706    -0.2174
      9  O4         6.2970  -12.9650    6.6230 O.3   1706  BDP1706    -0.2171
     10  O5         7.2910  -11.5560    3.3670 O.3   1706  BDP1706    -0.3149
     11  O6A        4.8550  -11.8970    2.9720 O.co2 1706  BDP1706    -0.2429
     12  O1         8.9320  -10.2650    2.5870 O.3   1706  BDP1706    -0.1869
     13  O6B        4.5370  -13.5150    4.4140 O.co2 1706  BDP1706    -0.2429
@<TRIPOS>BOND
     1    12     1    1
     2    11     6   ar
     3    10     1    1
     4    10     5    1
     5     1     2    1
     6     6     5    1
     7     6    13   ar
     8     5     4    1
     9     2     7    1
    10     2     3    1
    11     4     3    1
    12     4     9    1
    13     3     8    1
