@<TRIPOS>MOLECULE
1gqr_SAF_A_1.pdb
 12 12 0 0 0
SMALL
GASTEIGER

@<TRIPOS>ATOM
      1  C1         5.7490   69.4840   63.9930 C.ar  1998  SAF1998    -0.0028
      2  C3         3.5290   68.4660   64.4600 C.ar  1998  SAF1998     0.0391
      3  C4         3.8110   68.5570   65.9900 C.ar  1998  SAF1998     0.1955
      4  C5         5.0210   69.0600   66.3760 C.ar  1998  SAF1998     0.0420
      5  C6         5.9460   69.5260   65.3930 C.ar  1998  SAF1998     0.0030
      6  O4         2.9760   68.1390   67.0410 O.3   1998  SAF1998    -0.2866
      7  N2         4.0090   67.4180   61.3280 N.3   1998  SAF1998    -0.2679
      8  C7         4.6300   66.2290   61.8660 C.3   1998  SAF1998     0.0899
      9  C8         4.3540   67.2880   59.9600 C.3   1998  SAF1998     0.0899
     10  C9         4.5920   68.8140   61.8320 C.3   1998  SAF1998     0.0803
     11  C10        3.9080   69.8810   61.1310 C.3   1998  SAF1998     0.0222
     12  C40        4.5810   68.9660   63.4570 C.ar  1998  SAF1998    -0.0046
@<TRIPOS>BOND
     1     9     7    1
     2    11    10    1
     3     7    10    1
     4     7     8    1
     5    10    12    1
     6    12     1   ar
     7    12     2   ar
     8     1     5   ar
     9     2     3   ar
    10     5     4   ar
    11     3     4   ar
    12     3     6    1
