@<TRIPOS>MOLECULE
1gqs_SAF_A_1.pdb
 12 12 0 0 0
SMALL
GASTEIGER

@<TRIPOS>ATOM
      1  C1         4.5940   67.3870   65.1590 C.ar  1538  SAF1538    -0.0028
      2  C3         4.4330   66.8070   62.8020 C.ar  1538  SAF1538     0.0391
      3  C4         4.9620   68.0540   62.4570 C.ar  1538  SAF1538     0.1955
      4  C5         5.3440   69.0270   63.4270 C.ar  1538  SAF1538     0.0420
      5  C6         5.1430   68.6690   64.7860 C.ar  1538  SAF1538     0.0030
      6  O4         5.0720   68.2550   61.1270 O.3   1538  SAF1538    -0.2866
      7  N2         4.4100   63.7850   63.9790 N.3   1538  SAF1538    -0.2679
      8  C7         4.0240   62.6560   64.7300 C.3   1538  SAF1538     0.0899
      9  C8         4.1670   63.2930   62.6380 C.3   1538  SAF1538     0.0899
     10  C9         3.5870   65.0270   64.4630 C.3   1538  SAF1538     0.0803
     11  C10        3.0370   64.8100   65.7840 C.3   1538  SAF1538     0.0222
     12  C40        4.2290   66.4230   64.1260 C.ar  1538  SAF1538    -0.0046
@<TRIPOS>BOND
     1     6     3    1
     2     3     2   ar
     3     3     4   ar
     4     9     7    1
     5     2    12   ar
     6     4     5   ar
     7     7    10    1
     8     7     8    1
     9    12    10    1
    10    12     1   ar
    11    10    11    1
    12     5     1   ar
