@<TRIPOS>MOLECULE
1gqt_RIB_A_1.pdb
 10 10 0 0 0
SMALL
GASTEIGER

@<TRIPOS>ATOM
      1  O5'       15.6810    2.7950   80.3880 O.3   1311  RIB1311    -0.2176
      2  C5'       15.7460    3.4240   81.6510 C.3   1311  RIB1311     0.2142
      3  C4'       14.3760    3.9640   81.9990 C.3   1311  RIB1311     0.1837
      4  O4'       13.5180    2.8800   82.2640 O.3   1311  RIB1311    -0.3236
      5  C3'       14.3440    4.9000   83.1990 C.3   1311  RIB1311     0.2169
      6  O3'       14.3770    6.2240   82.7390 O.3   1311  RIB1311    -0.2175
      7  C2'       13.0660    4.5330   83.9380 C.3   1311  RIB1311     0.2433
      8  O2'       12.0500    5.5000   83.9740 O.3   1311  RIB1311    -0.2148
      9  C1'       12.5910    3.2440   83.2460 C.3   1311  RIB1311     0.3024
     10  O1'       11.5380    3.5300   82.3720 O.3   1311  RIB1311    -0.1869
@<TRIPOS>BOND
     1     1     2    1
     2     2     3    1
     3     3     4    1
     4     3     5    1
     5     4     9    1
     6    10     9    1
     7     6     5    1
     8     5     7    1
     9     9     7    1
    10     7     8    1
