@<TRIPOS>MOLECULE
1gqt_ACP_A_1.pdb
 31 33 0 0 0
SMALL
GASTEIGER

@<TRIPOS>ATOM
      1  PG        18.8260    0.4000   78.3600 P.3   1310  ACP1310     0.1295
      2  O1G       18.9350    0.4550   79.8350 O.3   1310  ACP1310    -0.3567
      3  O2G       17.7060   -0.5630   77.9070 O.3   1310  ACP1310    -0.3567
      4  O3G       18.5010    1.8330   77.8920 O.2   1310  ACP1310    -0.4595
      5  PB        20.6540   -1.8440   78.0220 P.3   1310  ACP1310     0.3815
      6  O1B       21.3330   -1.8180   79.3400 O.3   1310  ACP1310    -0.1391
      7  O2B       19.7860   -3.1110   77.9090 O.2   1310  ACP1310    -0.2547
      8  C3B       19.7980   -0.5330   77.8850 C.3   1310  ACP1310     0.1768
      9  PA        23.2430   -2.3600   76.8710 P.3   1310  ACP1310     0.2209
     10  O1A       23.7590   -2.4920   78.2570 O.3   1310  ACP1310    -0.4371
     11  O2A       23.2580   -3.7270   76.1520 O.2   1310  ACP1310    -0.5170
     12  O3A       21.7440   -1.7340   76.8270 O.3   1310  ACP1310    -0.2483
     13  O5'       24.0730   -1.2130   76.1230 O.3   1310  ACP1310    -0.3111
     14  C5'       23.4330   -0.4180   75.1490 C.3   1310  ACP1310     0.1813
     15  C4'       24.5060    0.3340   74.3720 C.3   1310  ACP1310     0.1821
     16  O4'       25.1620    1.2710   75.2110 O.3   1310  ACP1310    -0.3135
     17  C3'       25.5840   -0.6080   73.8680 C.3   1310  ACP1310     0.2184
     18  O3'       25.2850   -0.9970   72.5460 O.3   1310  ACP1310    -0.2174
     19  C2'       26.8590    0.2250   73.9310 C.3   1310  ACP1310     0.2570
     20  O2'       27.0080    1.0470   72.7980 O.3   1310  ACP1310    -0.2130
     21  C1'       26.5640    1.2270   75.0300 C.3   1310  ACP1310     0.3186
     22  N9        27.2640    0.8330   76.2580 N.pl3 1310  ACP1310    -0.1439
     23  C8        26.7250    0.1450   77.3080 C.3   1310  ACP1310     0.3377
     24  N7        27.6790   -0.0010   78.2630 N.2   1310  ACP1310    -0.2095
     25  C5        28.8100    0.5890   77.8380 C.2   1310  ACP1310     0.2526
     26  C6        30.0550    0.7150   78.4190 C.2   1310  ACP1310     0.4393
     27  N6        30.2560    0.2200   79.6320 N.pl3 1310  ACP1310     0.2180
     28  N1        31.0530    1.3730   77.7480 N.2   1310  ACP1310     0.0021
     29  C2        30.8080    1.8990   76.5020 C.3   1310  ACP1310     0.5254
     30  N3        29.5590    1.7650   75.9420 N.2   1310  ACP1310    -0.0055
     31  C4        28.5710    1.1130   76.5830 C.2   1310  ACP1310     0.3518
@<TRIPOS>BOND
     1    18    17    1
     2    20    19    1
     3    17    19    1
     4    17    15    1
     5    19    21    1
     6    15    14    1
     7    15    16    1
     8    21    16    1
     9    21    22    1
    10    14    13    1
    11    30    29    1
    12    30    31    2
    13    13     9    1
    14    11     9    2
    15    22    31    1
    16    22    23    1
    17    29    28    1
    18    31    25    1
    19    12     9    1
    20    12     5    1
    21     9    10    1
    22    23    24    1
    23    28    26    2
    24    25    24    2
    25    25    26    1
    26     8     5    1
    27     8     1    1
    28     4     1    2
    29     3     1    1
    30     7     5    2
    31     5     6    1
    32     1     2    1
    33    26    27    1
