@<TRIPOS>MOLECULE
1gqw_AKG_A_1.pdb
 10 9 0 0 0
SMALL
GASTEIGER

@<TRIPOS>ATOM
      1  C1        23.3430   34.5140   43.9410 C.2   352  AKG352      0.4219
      2  O1        24.1250   34.0170   44.7730 O.co2 352  AKG352     -0.2373
      3  O2        22.8630   34.0940   42.8640 O.co2 352  AKG352     -0.2373
      4  C2        22.8380   35.9580   44.2910 C.2   352  AKG352      0.2526
      5  O5        23.2870   36.4020   45.3300 O.2   352  AKG352     -0.2843
      6  C3        21.8890   36.6130   43.3510 C.3   352  AKG352      0.0881
      7  C4        22.5610   37.5830   42.4400 C.3   352  AKG352      0.1224
      8  C5        21.7210   38.2810   41.4520 C.2   352  AKG352      0.3653
      9  O3        20.5140   38.0540   41.4050 O.co2 352  AKG352     -0.2456
     10  O4        22.3210   39.1160   40.6370 O.co2 352  AKG352     -0.2456
@<TRIPOS>BOND
     1    10     8   ar
     2     9     8   ar
     3     8     7    1
     4     7     6    1
     5     3     1   ar
     6     6     4    1
     7     1     4    1
     8     1     2   ar
     9     4     5    2
