@<TRIPOS>MOLECULE
1gqy_ACP_A_1.pdb
 31 33 0 0 0
SMALL
GASTEIGER

@<TRIPOS>ATOM
      1  PG        62.9720   53.7860   38.4500 P.3   1476  ACP1476     0.1295
      2  O1G       62.5110   54.3680   39.5960 O.3   1476  ACP1476    -0.3567
      3  O2G       64.4310   53.5050   38.2980 O.3   1476  ACP1476    -0.3567
      4  O3G       62.0560   52.5370   38.2740 O.2   1476  ACP1476    -0.4595
      5  PB        60.8450   55.5120   36.9620 P.3   1476  ACP1476     0.3815
      6  O1B       60.7500   56.4420   38.0220 O.3   1476  ACP1476    -0.1391
      7  O2B       59.7010   54.5100   36.8970 O.2   1476  ACP1476    -0.2547
      8  C3B       62.5350   54.7960   36.9110 C.3   1476  ACP1476     0.1768
      9  PA        61.4320   57.6340   35.1820 P.3   1476  ACP1476     0.2209
     10  O1A       60.3130   58.6150   35.0640 O.2   1476  ACP1476    -0.5170
     11  O2A       62.3970   58.1340   36.0670 O.3   1476  ACP1476    -0.4371
     12  O3A       60.7050   56.3190   35.5870 O.3   1476  ACP1476    -0.2483
     13  O5'       61.8310   57.4810   33.6820 O.3   1476  ACP1476    -0.3111
     14  C5'       63.1400   56.8090   33.5440 C.3   1476  ACP1476     0.1813
     15  C4'       63.3820   56.4740   32.0780 C.3   1476  ACP1476     0.1821
     16  O4'       62.4710   55.5080   31.5990 O.3   1476  ACP1476    -0.3135
     17  C3'       63.3230   57.7790   31.1510 C.3   1476  ACP1476     0.2184
     18  O3'       64.5820   58.5200   31.1900 O.3   1476  ACP1476    -0.2174
     19  C2'       62.9810   57.1160   29.8250 C.3   1476  ACP1476     0.2570
     20  O2'       64.2630   56.3760   29.5290 O.3   1476  ACP1476    -0.2130
     21  C1'       62.0470   56.0010   30.2150 C.3   1476  ACP1476     0.3186
     22  N9        60.6440   56.1980   30.3820 N.pl3 1476  ACP1476    -0.1439
     23  C8        59.9490   57.2600   30.9370 C.3   1476  ACP1476     0.3377
     24  N7        58.6140   57.0430   30.8990 N.2   1476  ACP1476    -0.2095
     25  C5        58.4070   55.7730   30.2780 C.2   1476  ACP1476     0.2526
     26  C6        57.2960   55.0780   29.9890 C.2   1476  ACP1476     0.4393
     27  N6        55.9720   55.3990   30.2130 N.pl3 1476  ACP1476     0.2180
     28  N1        57.4350   53.8690   29.3950 N.2   1476  ACP1476     0.0021
     29  C2        58.6600   53.4660   29.1320 C.3   1476  ACP1476     0.5254
     30  N3        59.8950   54.0460   29.3530 N.2   1476  ACP1476    -0.0055
     31  C4        59.6750   55.2580   29.9630 C.2   1476  ACP1476     0.3518
@<TRIPOS>BOND
     1    29    30    1
     2    29    28    1
     3    30    31    2
     4    28    26    2
     5    20    19    1
     6    19    21    1
     7    19    17    1
     8    31    25    1
     9    31    22    1
    10    26    27    1
    11    26    25    1
    12    21    22    1
    13    21    16    1
    14    25    24    2
    15    22    23    1
    16    24    23    1
    17    17    18    1
    18    17    15    1
    19    16    15    1
    20    15    14    1
    21    14    13    1
    22    13     9    1
    23    10     9    2
    24     9    12    1
    25     9    11    1
    26    12     5    1
    27     7     5    2
    28     8     5    1
    29     8     1    1
    30     5     6    1
    31     4     1    2
    32     3     1    1
    33     1     2    1
