@<TRIPOS>MOLECULE
1gr0_NAD_A_1.pdb
 44 48 0 0 0
SMALL
GASTEIGER

@<TRIPOS>ATOM
      1  PA        -9.5390   22.3650   16.6670 P.3   1000  NAD1000     0.2189
      2  O1A      -10.7020   22.3600   15.7430 O.2   1000  NAD1000    -0.5170
      3  O2A       -9.3650   21.1210   17.4550 O.3   1000  NAD1000    -0.4371
      4  O5B       -9.7070   23.5090   17.7720 O.3   1000  NAD1000    -0.3112
      5  C5B       -9.9500   24.8900   17.4270 C.3   1000  NAD1000     0.1813
      6  C4B      -10.4840   25.4430   18.7310 C.3   1000  NAD1000     0.1821
      7  O4B      -10.8280   26.8560   18.5830 O.3   1000  NAD1000    -0.3135
      8  C3B      -11.7710   24.7800   19.2580 C.3   1000  NAD1000     0.2184
      9  O3B      -11.5820   24.3550   20.6440 O.3   1000  NAD1000    -0.2174
     10  C2B      -12.7820   25.9080   19.0450 C.3   1000  NAD1000     0.2570
     11  O2B      -13.9190   25.7860   19.9160 O.3   1000  NAD1000    -0.2130
     12  C1B      -11.9280   27.1400   19.3460 C.3   1000  NAD1000     0.3186
     13  N9A      -12.4770   28.3700   18.8150 N.pl3 1000  NAD1000    -0.1439
     14  C8A      -13.2410   28.5280   17.6860 C.3   1000  NAD1000     0.3377
     15  N7A      -13.5900   29.7970   17.4570 N.2   1000  NAD1000    -0.2095
     16  C5A      -13.0020   30.4740   18.5170 C.2   1000  NAD1000     0.2526
     17  C6A      -12.9840   31.8590   18.8720 C.2   1000  NAD1000     0.4393
     18  N6A      -13.5830   32.8240   18.1830 N.pl3 1000  NAD1000     0.2180
     19  N1A      -12.2930   32.2190   20.0100 N.2   1000  NAD1000     0.0021
     20  C2A      -11.6630   31.2290   20.7400 C.3   1000  NAD1000     0.5254
     21  N3A      -11.6340   29.9260   20.4790 N.2   1000  NAD1000    -0.0055
     22  C4A      -12.3170   29.6070   19.3590 C.2   1000  NAD1000     0.3518
     23  O3        -8.2200   22.6470   15.7980 O.3   1000  NAD1000    -0.2703
     24  PN        -6.8040   22.0150   16.2310 P.3   1000  NAD1000     0.2189
     25  O1N       -5.8430   22.6420   17.1400 O.3   1000  NAD1000    -0.4371
     26  O2N       -6.2860   20.9170   15.3220 O.2   1000  NAD1000    -0.5170
     27  O5D       -6.4010   23.1540   15.0950 O.3   1000  NAD1000    -0.3112
     28  C5D       -5.7320   24.4560   15.4080 C.3   1000  NAD1000     0.1813
     29  C4D       -5.5130   25.2890   14.1370 C.3   1000  NAD1000     0.1799
     30  O4D       -4.1210   25.2080   13.7390 O.3   1000  NAD1000    -0.3327
     31  C3D       -6.3250   24.9090   12.8770 C.3   1000  NAD1000     0.2158
     32  O3D       -6.6800   26.1130   12.1620 O.3   1000  NAD1000    -0.2175
     33  C2D       -5.3330   24.1120   12.0640 C.3   1000  NAD1000     0.2309
     34  O2D       -5.6530   24.0860   10.6570 O.3   1000  NAD1000    -0.2158
     35  C1D       -4.0410   24.8270   12.3610 C.3   1000  NAD1000     0.2263
     36  N1N       -2.8800   23.9810   12.1350 N.pl3 1000  NAD1000    -0.2787
     37  C2N       -2.7700   22.7250   12.7880 C.3   1000  NAD1000     0.1244
     38  C3N       -1.6170   21.8540   12.5890 C.2   1000  NAD1000     0.0544
     39  C7N       -1.6280   20.5630   13.3330 C.2   1000  NAD1000     0.2818
     40  O7N       -0.6130   19.8740   13.1210 O.2   1000  NAD1000    -0.2670
     41  N7N       -2.6360   20.1550   14.1640 N.am  1000  NAD1000    -0.0839
     42  C4N       -0.5310   22.3030   11.6760 C.2   1000  NAD1000     0.0033
     43  C5N       -0.7290   23.6570   11.0150 C.2   1000  NAD1000     0.0157
     44  C6N       -1.8200   24.3860   11.2580 C.2   1000  NAD1000     0.0633
@<TRIPOS>BOND
     1    34    33    1
     2    43    44    2
     3    43    42    1
     4    44    36    1
     5    42    38    2
     6    33    35    1
     7    33    31    1
     8    36    35    1
     9    36    37    1
    10    32    31    1
    11    35    30    1
    12    38    37    1
    13    38    39    1
    14    31    29    1
    15    40    39    2
    16    39    41   am
    17    30    29    1
    18    29    28    1
    19    27    28    1
    20    27    24    1
    21    26    24    2
    22     2     1    2
    23    23    24    1
    24    23     1    1
    25    24    25    1
    26     1     3    1
    27     1     4    1
    28     5     4    1
    29     5     6    1
    30    15    14    1
    31    15    16    2
    32    14    13    1
    33    18    17    1
    34    16    17    1
    35    16    22    1
    36     7     6    1
    37     7    12    1
    38     6     8    1
    39    13    12    1
    40    13    22    1
    41    17    19    2
    42    10     8    1
    43    10    12    1
    44    10    11    1
    45     8     9    1
    46    22    21    2
    47    19    20    1
    48    21    20    1
