@<TRIPOS>MOLECULE
1gr2_KAI_A_1.pdb
 15 15 0 0 0
SMALL
GASTEIGER

@<TRIPOS>ATOM
      1  N         -8.6130    9.6310    8.4390 N.3   999  KAI999     -0.2080
      2  CD        -9.8470   10.0920    9.1870 C.3   999  KAI999      0.0933
      3  CD1      -12.4930   11.2240    9.4110 C.2   999  KAI999     -0.0091
      4  CD2      -12.2940   12.8780    7.6150 C.3   999  KAI999      0.0264
      5  CA        -8.7280   10.0830    7.0740 C.3   999  KAI999      0.1766
      6  CB       -10.1140   10.6190    6.8120 C.3   999  KAI999      0.0434
      7  CB1      -11.2630    9.5600    6.4650 C.3   999  KAI999      0.1164
      8  CG       -10.4440   11.1630    8.1690 C.3   999  KAI999      0.0382
      9  CG1      -11.1690    9.1150    4.9920 C.2   999  KAI999      0.3649
     10  CG2      -11.8150   11.7790    8.4760 C.2   999  KAI999     -0.0428
     11  C         -7.6170   11.1000    6.7160 C.2   999  KAI999      0.3803
     12  O         -6.6880   11.1950    7.5420 O.co2 999  KAI999     -0.2441
     13  OD1      -11.8700    8.1390    4.6870 O.co2 999  KAI999     -0.2457
     14  OD2      -10.4360    9.7560    4.2180 O.co2 999  KAI999     -0.2457
     15  OXT       -7.7710   11.7290    5.6440 O.co2 999  KAI999     -0.2441
@<TRIPOS>BOND
     1    14     9   ar
     2    13     9   ar
     3     9     7    1
     4    15    11   ar
     5     7     6    1
     6    11     5    1
     7    11    12   ar
     8     6     5    1
     9     6     8    1
    10     5     1    1
    11     4    10    1
    12     8    10    1
    13     8     2    1
    14     1     2    1
    15    10     3    2
