@<TRIPOS>MOLECULE
1gra_GSH_A_1.pdb
 20 19 0 0 0
SMALL
GASTEIGER

@<TRIPOS>ATOM
      1  N1        64.3670   36.2110   22.7990 N.3   481  GSH481     -0.1208
      2  CA1       64.7410   37.3880   23.5760 C.3   481  GSH481      0.1948
      3  C1        64.2890   37.3000   25.0540 C.2   481  GSH481      0.3819
      4  O11       63.5580   36.3650   25.3980 O.co2 481  GSH481     -0.2441
      5  O12       64.7100   38.2550   25.8680 O.co2 481  GSH481     -0.2441
      6  CB1       64.1860   38.6450   22.8910 C.3   481  GSH481      0.0402
      7  CG1       64.5960   38.7380   21.4030 C.3   481  GSH481      0.0889
      8  CD1       64.0420   40.0880   20.8890 C.2   481  GSH481      0.2418
      9  OE1       64.5910   41.1510   21.1830 O.2   481  GSH481     -0.2733
     10  N2        62.8830   40.0290   20.2410 N.am  481  GSH481     -0.1968
     11  CA2       62.3330   41.2780   19.7270 C.3   481  GSH481      0.1843
     12  C2        61.1230   41.6510   20.5720 C.2   481  GSH481      0.2627
     13  O2        60.3950   42.6000   20.2940 O.2   481  GSH481     -0.2714
     14  CB2       61.8190   41.0900   18.2860 C.3   481  GSH481      0.0997
     15  SG2       63.1450   41.0740   17.0430 S.3   481  GSH481     -0.0797
     16  N3        60.8420   40.8330   21.5890 N.am  481  GSH481     -0.1917
     17  CA3       59.6730   41.0480   22.4440 C.3   481  GSH481      0.2285
     18  C3        59.4580   39.7860   23.2490 C.2   481  GSH481      0.3865
     19  O31       58.3960   39.7060   23.8910 O.co2 481  GSH481     -0.2437
     20  O32       60.3530   38.9050   23.2110 O.co2 481  GSH481     -0.2437
@<TRIPOS>BOND
     1    15    14    1
     2    14    11    1
     3    11    10    1
     4    11    12    1
     5    10     8   am
     6    13    12    2
     7    12    16   am
     8     8     9    2
     9     8     7    1
    10     7     6    1
    11    16    17    1
    12    17    18    1
    13     1     2    1
    14     6     2    1
    15    20    18   ar
    16    18    19   ar
    17     2     3    1
    18     3     4   ar
    19     3     5   ar
