@<TRIPOS>MOLECULE
1gra_NDP_A_1.pdb
 27 29 0 0 0
SMALL
GASTEIGER

@<TRIPOS>ATOM
      1  PA        72.2070   59.9070   19.1180 P.3   480  NDP480      0.5327
      2  O1A       72.8670   58.8550   19.9270 O.3   480  NDP480     -0.1145
      3  O2A       71.2860   60.8860   19.6560 O.3   480  NDP480     -0.1145
      4  O5B       73.4220   60.6480   18.3740 O.3   480  NDP480     -0.2675
      5  C5B       73.2950   61.4550   17.1220 C.3   480  NDP480      0.1860
      6  C4B       74.4530   62.4570   17.2130 C.3   480  NDP480      0.1822
      7  O4B       74.3980   63.3460   16.0320 O.3   480  NDP480     -0.3136
      8  C3B       74.4650   63.3970   18.4370 C.3   480  NDP480      0.2157
      9  O3B       74.8680   62.8070   19.6590 O.3   480  NDP480     -0.2175
     10  C2B       75.3920   64.5200   17.9160 C.3   480  NDP480      0.2314
     11  O2B       76.7990   64.1230   17.9890 O.3   480  NDP480     -0.2630
     12  C1B       74.9530   64.6460   16.4580 C.3   480  NDP480      0.3158
     13  N9A       73.8600   65.6550   16.2830 N.pl3 480  NDP480     -0.1439
     14  C8A       72.8460   66.0260   17.1910 C.3   480  NDP480      0.3377
     15  N7A       72.0980   67.0230   16.7190 N.2   480  NDP480     -0.2095
     16  C5A       72.6240   67.3080   15.4760 C.2   480  NDP480      0.2526
     17  C6A       72.2380   68.2650   14.4520 C.2   480  NDP480      0.4393
     18  N6A       71.2160   69.0870   14.5600 N.pl3 480  NDP480      0.2180
     19  N1A       73.0260   68.2570   13.3380 N.2   480  NDP480      0.0021
     20  C2A       74.1020   67.4170   13.1800 C.3   480  NDP480      0.5254
     21  N3A       74.5000   66.4900   14.0420 N.2   480  NDP480     -0.0055
     22  C4A       73.7300   66.4770   15.1650 C.2   480  NDP480      0.3518
     23  O3        71.4650   59.2060   17.8530 O.2   480  NDP480     -0.2224
     24  P2B       77.9560   65.2920   18.0760 P.3   480  NDP480      0.5328
     25  O1X       77.7480   66.0230   19.3490 O.3   480  NDP480     -0.1145
     26  O2X       77.7680   66.1300   16.8590 O.2   480  NDP480     -0.2224
     27  O3X       79.3160   64.7520   17.9180 O.3   480  NDP480     -0.1145
@<TRIPOS>BOND
     1    20    19    1
     2    20    21    1
     3    19    17    2
     4    21    22    2
     5    17    18    1
     6    17    16    1
     7    22    16    1
     8    22    13    1
     9    16    15    2
    10     7    12    1
    11     7     6    1
    12    13    12    1
    13    13    14    1
    14    12    10    1
    15    15    14    1
    16    26    24    2
    17     5     6    1
    18     5     4    1
    19     6     8    1
    20    23     1    2
    21    10    11    1
    22    10     8    1
    23    27    24    1
    24    11    24    1
    25    24    25    1
    26     4     1    1
    27     8     9    1
    28     1     3    1
    29     1     2    1
