@<TRIPOS>MOLECULE
1grb_NAD_A_1.pdb
 44 48 0 0 0
SMALL
GASTEIGER

@<TRIPOS>ATOM
      1  PA        72.2530   59.3620   18.7260 P.3   480  NAD480      0.2189
      2  O1A       72.9580   58.0810   18.8810 O.2   480  NAD480     -0.5170
      3  O2A       71.7760   60.2300   19.8160 O.3   480  NAD480     -0.4371
      4  O5B       73.1230   60.2020   17.6400 O.3   480  NAD480     -0.3112
      5  C5B       72.5800   61.4440   17.1660 C.3   480  NAD480      0.1813
      6  C4B       73.8260   62.1610   16.7450 C.3   480  NAD480      0.1821
      7  O4B       73.5370   63.3220   15.8900 O.3   480  NAD480     -0.3135
      8  C3B       74.6680   62.6940   17.8620 C.3   480  NAD480      0.2184
      9  O3B       76.0120   62.6890   17.5070 O.3   480  NAD480     -0.2174
     10  C2B       74.0730   64.1020   18.0330 C.3   480  NAD480      0.2570
     11  O2B       75.1090   64.8780   18.6440 O.3   480  NAD480     -0.2130
     12  C1B       74.0590   64.5190   16.5930 C.3   480  NAD480      0.3186
     13  N9A       73.1710   65.6800   16.3150 N.pl3 480  NAD480     -0.1439
     14  C8A       72.0840   66.1380   17.0720 C.3   480  NAD480      0.3377
     15  N7A       71.5000   67.1840   16.5020 N.2   480  NAD480     -0.2095
     16  C5A       72.2310   67.4140   15.3670 C.2   480  NAD480      0.2526
     17  C6A       72.1270   68.4470   14.3490 C.2   480  NAD480      0.4393
     18  N6A       71.2260   69.3910   14.3700 N.pl3 480  NAD480      0.2180
     19  N1A       73.0430   68.3820   13.3480 N.2   480  NAD480      0.0021
     20  C2A       74.0350   67.4510   13.3360 C.3   480  NAD480      0.5254
     21  N3A       74.2150   66.5080   14.2350 N.2   480  NAD480     -0.0055
     22  C4A       73.2960   66.5320   15.2200 C.2   480  NAD480      0.3518
     23  O3        70.9250   59.0680   17.8410 O.3   480  NAD480     -0.2703
     24  PN        70.5630   58.1170   16.5720 P.3   480  NAD480      0.2189
     25  O1N       69.3430   58.7690   15.9450 O.3   480  NAD480     -0.4371
     26  O2N       71.8400   57.7800   15.9170 O.2   480  NAD480     -0.5170
     27  O5D       70.0460   56.7790   17.3370 O.3   480  NAD480     -0.3112
     28  C5D       68.9210   56.8300   18.2740 C.3   480  NAD480      0.1813
     29  C4D       69.2240   55.7970   19.3680 C.3   480  NAD480      0.1799
     30  O4D       68.7230   54.4740   18.9150 O.3   480  NAD480     -0.3327
     31  C3D       70.6720   55.4340   19.6640 C.3   480  NAD480      0.2158
     32  O3D       71.3680   56.3430   20.5070 O.3   480  NAD480     -0.2175
     33  C2D       70.6130   54.0440   20.3300 C.3   480  NAD480      0.2309
     34  O2D       70.2730   54.1880   21.7270 O.3   480  NAD480     -0.2158
     35  C1D       69.5240   53.3830   19.5140 C.3   480  NAD480      0.2263
     36  N1N       70.1330   52.6780   18.3580 N.pl3 480  NAD480     -0.2787
     37  C2N       70.8530   51.5400   18.6190 C.3   480  NAD480      0.1244
     38  C3N       71.5190   50.7930   17.6500 C.2   480  NAD480      0.0544
     39  C7N       72.3380   49.5660   18.0580 C.2   480  NAD480      0.2818
     40  O7N       72.2000   49.1780   19.2180 O.2   480  NAD480     -0.2670
     41  N7N       73.2340   49.0600   17.1870 N.am  480  NAD480     -0.0839
     42  C4N       71.4730   51.2120   16.3010 C.2   480  NAD480      0.0033
     43  C5N       70.7570   52.4130   16.0090 C.2   480  NAD480      0.0157
     44  C6N       70.0790   53.0910   17.0530 C.2   480  NAD480      0.0633
@<TRIPOS>BOND
     1    20    19    1
     2    20    21    1
     3    19    17    2
     4    21    22    2
     5    17    18    1
     6    17    16    1
     7    22    16    1
     8    22    13    1
     9    16    15    2
    10     7    12    1
    11     7     6    1
    12    26    24    2
    13    25    24    1
    14    43    42    1
    15    43    44    2
    16    42    38    2
    17    13    12    1
    18    13    14    1
    19    15    14    1
    20    24    27    1
    21    24    23    1
    22    12    10    1
    23     6     5    1
    24     6     8    1
    25    44    36    1
    26     5     4    1
    27    41    39   am
    28    27    28    1
    29     9     8    1
    30     4     1    1
    31    38    39    1
    32    38    37    1
    33    23     1    1
    34     8    10    1
    35    10    11    1
    36    39    40    2
    37    28    29    1
    38    36    37    1
    39    36    35    1
    40     1     2    2
    41     1     3    1
    42    30    29    1
    43    30    35    1
    44    29    31    1
    45    35    33    1
    46    31    33    1
    47    31    32    1
    48    33    34    1
