@<TRIPOS>MOLECULE
1grb_NDP_A_1.pdb
 48 52 0 0 0
SMALL
GASTEIGER

@<TRIPOS>ATOM
      1  PA        72.2530   59.3620   18.7260 P.3   483  NDP483      0.2189
      2  O1A       72.9580   58.0800   18.8810 O.2   483  NDP483     -0.5170
      3  O2A       71.7760   60.2300   19.8160 O.3   483  NDP483     -0.4371
      4  O5B       73.2680   60.2350   17.6310 O.3   483  NDP483     -0.3112
      5  C5B       73.1180   61.6540   17.1860 C.3   483  NDP483      0.1813
      6  C4B       74.4530   62.4570   17.2120 C.3   483  NDP483      0.1820
      7  O4B       74.3980   63.3460   16.0320 O.3   483  NDP483     -0.3136
      8  C3B       74.4660   63.3970   18.4370 C.3   483  NDP483      0.2157
      9  O3B       74.8670   62.8070   19.6590 O.3   483  NDP483     -0.2175
     10  C2B       75.3930   64.5200   17.9160 C.3   483  NDP483      0.2314
     11  O2B       76.7990   64.1230   17.9890 O.3   483  NDP483     -0.2630
     12  C1B       74.9530   64.6460   16.4580 C.3   483  NDP483      0.3158
     13  N9A       73.8600   65.6550   16.2840 N.pl3 483  NDP483     -0.1439
     14  C8A       72.8460   66.0260   17.1910 C.3   483  NDP483      0.3377
     15  N7A       72.0980   67.0240   16.7190 N.2   483  NDP483     -0.2095
     16  C5A       72.6240   67.3080   15.4760 C.2   483  NDP483      0.2526
     17  C6A       72.2380   68.2650   14.4520 C.2   483  NDP483      0.4393
     18  N6A       71.2160   69.0870   14.5600 N.pl3 483  NDP483      0.2180
     19  N1A       73.0260   68.2570   13.3380 N.2   483  NDP483      0.0021
     20  C2A       74.1020   67.4170   13.1800 C.3   483  NDP483      0.5254
     21  N3A       74.5000   66.4900   14.0420 N.2   483  NDP483     -0.0055
     22  C4A       73.7300   66.4770   15.1650 C.2   483  NDP483      0.3518
     23  O3        70.9250   59.0670   17.8410 O.3   483  NDP483     -0.2703
     24  PN        70.5630   58.1170   16.5720 P.3   483  NDP483      0.2189
     25  O1N       69.3430   58.7690   15.9450 O.3   483  NDP483     -0.4371
     26  O2N       71.8400   57.7800   15.9170 O.2   483  NDP483     -0.5170
     27  O5D       70.0460   56.7790   17.3370 O.3   483  NDP483     -0.3112
     28  C5D       68.9210   56.8300   18.2740 C.3   483  NDP483      0.1813
     29  C4D       69.2240   55.7970   19.3680 C.3   483  NDP483      0.1799
     30  O4D       68.7230   54.4740   18.9150 O.3   483  NDP483     -0.3327
     31  C3D       70.6720   55.4340   19.6640 C.3   483  NDP483      0.2158
     32  O3D       71.3680   56.3430   20.5060 O.3   483  NDP483     -0.2175
     33  C2D       70.6130   54.0450   20.3300 C.3   483  NDP483      0.2309
     34  O2D       70.2730   54.1880   21.7270 O.3   483  NDP483     -0.2158
     35  C1D       69.5240   53.3830   19.5140 C.3   483  NDP483      0.2263
     36  N1N       70.1330   52.6780   18.3580 N.pl3 483  NDP483     -0.2787
     37  C2N       70.8530   51.5400   18.6190 C.3   483  NDP483      0.1244
     38  C3N       71.5190   50.7930   17.6500 C.2   483  NDP483      0.0544
     39  C7N       72.3380   49.5660   18.0580 C.2   483  NDP483      0.2818
     40  O7N       72.2000   49.1780   19.2190 O.2   483  NDP483     -0.2670
     41  N7N       73.2340   49.0600   17.1870 N.am  483  NDP483     -0.0839
     42  C4N       71.4730   51.2120   16.3000 C.2   483  NDP483      0.0033
     43  C5N       70.7570   52.4130   16.0090 C.2   483  NDP483      0.0157
     44  C6N       70.0790   53.0910   17.0530 C.2   483  NDP483      0.0633
     45  P2B       77.9560   65.2920   18.0760 P.3   483  NDP483      0.5328
     46  O1X       77.7480   66.0240   19.3490 O.3   483  NDP483     -0.1145
     47  O2X       77.7680   66.1300   16.8590 O.2   483  NDP483     -0.2224
     48  O3X       79.3160   64.7520   17.9180 O.3   483  NDP483     -0.1145
@<TRIPOS>BOND
     1    20    19    1
     2    20    21    1
     3    19    17    2
     4    21    22    2
     5    17    18    1
     6    17    16    1
     7    22    16    1
     8    22    13    1
     9    16    15    2
    10    26    24    2
    11    25    24    1
    12    43    42    1
    13    43    44    2
    14     7    12    1
    15     7     6    1
    16    13    12    1
    17    13    14    1
    18    42    38    2
    19    12    10    1
    20    24    27    1
    21    24    23    1
    22    15    14    1
    23    47    45    2
    24    44    36    1
    25     5     6    1
    26     5     4    1
    27    41    39   am
    28     6     8    1
    29    27    28    1
    30     4     1    1
    31    38    39    1
    32    38    37    1
    33    23     1    1
    34    10    11    1
    35    10     8    1
    36    48    45    1
    37    11    45    1
    38    39    40    2
    39    45    46    1
    40    28    29    1
    41    36    37    1
    42    36    35    1
    43     8     9    1
    44     1     2    2
    45     1     3    1
    46    30    29    1
    47    30    35    1
    48    29    31    1
    49    35    33    1
    50    31    33    1
    51    31    32    1
    52    33    34    1
