@<TRIPOS>MOLECULE
1gre_GSH_A_1.pdb
 20 19 0 0 0
SMALL
GASTEIGER

@<TRIPOS>ATOM
      1  N1        63.9360   36.4060   22.4760 N.3   481  GSH481     -0.1208
      2  CA1       64.5060   37.4890   23.2490 C.3   481  GSH481      0.1948
      3  C1        64.0710   37.3730   24.7310 C.2   481  GSH481      0.3819
      4  O11       63.3340   36.4320   25.0480 O.co2 481  GSH481     -0.2441
      5  O12       64.5030   38.2810   25.5900 O.co2 481  GSH481     -0.2441
      6  CB1       64.0410   38.8270   22.6360 C.3   481  GSH481      0.0402
      7  CG1       64.2280   38.8800   21.0920 C.3   481  GSH481      0.0889
      8  CD1       63.8090   40.3060   20.6980 C.2   481  GSH481      0.2418
      9  OE1       64.4750   41.2470   21.1110 O.2   481  GSH481     -0.2733
     10  N2        62.6860   40.4680   20.0110 N.am  481  GSH481     -0.1968
     11  CA2       62.1780   41.8210   19.7480 C.3   481  GSH481      0.1843
     12  C2        61.0110   42.1250   20.6660 C.2   481  GSH481      0.2627
     13  O2        60.3760   43.1750   20.5740 O.2   481  GSH481     -0.2714
     14  CB2       61.6980   42.0160   18.3090 C.3   481  GSH481      0.0997
     15  SG2       62.9310   42.7140   17.1790 S.3   481  GSH481     -0.0797
     16  N3        60.6930   41.1290   21.4890 N.am  481  GSH481     -0.1917
     17  CA3       59.5740   41.2440   22.3890 C.3   481  GSH481      0.2285
     18  C3        59.4010   39.9110   23.0890 C.2   481  GSH481      0.3865
     19  O31       58.4690   39.7930   23.8900 O.co2 481  GSH481     -0.2437
     20  O32       60.2020   38.9720   22.8880 O.co2 481  GSH481     -0.2437
@<TRIPOS>BOND
     1    15    14    1
     2    14    11    1
     3    11    10    1
     4    11    12    1
     5    10     8   am
     6    13    12    2
     7    12    16   am
     8     8     7    1
     9     8     9    2
    10     7     6    1
    11    16    17    1
    12    17    18    1
    13     1     2    1
    14     6     2    1
    15    20    18   ar
    16    18    19   ar
    17     2     3    1
    18     3     4   ar
    19     3     5   ar
