@<TRIPOS>MOLECULE
1gro_ICT_A_1.pdb
 13 12 0 0 0
SMALL
GASTEIGER

@<TRIPOS>ATOM
      1  C1        85.1580   67.5910    3.7430 C.2   418  ICT418      0.3952
      2  O1        85.5650   66.8690    4.6440 O.co2 418  ICT418     -0.2428
      3  O2        84.6150   68.6550    4.0180 O.co2 418  ICT418     -0.2428
      4  C2        85.2460   67.0940    2.2790 C.3   418  ICT418      0.2651
      5  O7        84.9450   68.1480    1.3770 O.3   418  ICT418     -0.2103
      6  C3        84.2820   65.9230    2.0460 C.3   418  ICT418      0.1561
      7  C4        84.2590   65.2610    0.6640 C.3   418  ICT418      0.1285
      8  C5        85.5170   64.5300    0.2460 C.2   418  ICT418      0.3655
      9  O3        85.8690   64.6160   -0.9340 O.co2 418  ICT418     -0.2456
     10  O4        86.1250   63.8590    1.0830 O.co2 418  ICT418     -0.2456
     11  C6        82.8500   66.3680    2.3740 C.2   418  ICT418      0.3680
     12  O5        82.4160   66.2350    3.5160 O.co2 418  ICT418     -0.2455
     13  O6        82.1660   66.8720    1.4840 O.co2 418  ICT418     -0.2455
@<TRIPOS>BOND
     1     9     8   ar
     2     8     7    1
     3     8    10   ar
     4     7     6    1
     5     5     4    1
     6    13    11   ar
     7     6     4    1
     8     6    11    1
     9     4     1    1
    10    11    12   ar
    11     1     3   ar
    12     1     2   ar
