@<TRIPOS>MOLECULE
1grp_ICT_A_1.pdb
 13 12 0 0 0
SMALL
GASTEIGER

@<TRIPOS>ATOM
      1  C1        85.3340   67.4820    3.4280 C.2   418  ICT418      0.3952
      2  O1        85.8940   66.7740    4.2520 O.co2 418  ICT418     -0.2428
      3  O2        84.8120   68.5500    3.7260 O.co2 418  ICT418     -0.2428
      4  C2        85.2860   66.9910    1.9840 C.3   418  ICT418      0.2651
      5  O7        84.8980   68.0580    1.1360 O.3   418  ICT418     -0.2103
      6  C3        84.3130   65.8010    1.8310 C.3   418  ICT418      0.1561
      7  C4        84.3210   65.2300    0.4060 C.3   418  ICT418      0.1285
      8  C5        85.1940   64.0140    0.2250 C.2   418  ICT418      0.3655
      9  O3        86.2050   64.1000   -0.4670 O.co2 418  ICT418     -0.2456
     10  O4        84.8440   62.9760    0.7710 O.co2 418  ICT418     -0.2456
     11  C6        82.8650   66.2010    2.1800 C.2   418  ICT418      0.3680
     12  O5        82.5580   66.2640    3.3680 O.co2 418  ICT418     -0.2455
     13  O6        82.0430   66.4310    1.2920 O.co2 418  ICT418     -0.2455
@<TRIPOS>BOND
     1     9     8   ar
     2     8     7    1
     3     8    10   ar
     4     7     6    1
     5     5     4    1
     6    13    11   ar
     7     6     4    1
     8     6    11    1
     9     4     1    1
    10    11    12   ar
    11     1     3   ar
    12     1     2   ar
