@<TRIPOS>MOLECULE
1grq_CLK_A_1.pdb
 18 18 0 0 0
SMALL
GASTEIGER

@<TRIPOS>ATOM
      1  C1        12.5710   47.0750   34.8850 C.3   999  CLK999      0.2356
      2 CL1A       11.1140   46.1640   34.7900 Cl    999  CLK999     -0.0870
      3 CL1B       13.8710   46.0010   34.3880 Cl    999  CLK999     -0.0870
      4  C2        12.6240   48.2080   33.7720 C.2   999  CLK999      0.2720
      5  O2        12.1900   47.9910   32.6370 O.2   999  CLK999     -0.2706
      6  N2        13.2110   49.3220   34.2610 N.am  999  CLK999     -0.1994
      7  C3        13.3910   50.5800   33.5190 C.3   999  CLK999      0.1626
      8  C4        14.7750   50.6650   32.8760 C.3   999  CLK999      0.2065
      9  O4        14.9620   49.4340   32.0830 O.3   999  CLK999     -0.2184
     10  C5        12.9830   51.8070   34.3970 C.3   999  CLK999      0.1966
     11  O5        13.1260   52.9930   33.6110 O.3   999  CLK999     -0.2163
     12  C6        13.7500   51.9960   35.7600 C.ar  999  CLK999      0.0096
     13  C7        15.2620   51.8790   35.8020 C.ar  999  CLK999     -0.0004
     14  C8        15.9750   52.1630   37.0010 C.ar  999  CLK999      0.0178
     15  C9        15.2610   52.5510   38.1260 C.ar  999  CLK999      0.0891
     16  N9        15.8740   52.8850   39.4480 N.pl3 999  CLK999     -0.1281
     17  C10       13.8120   52.6830   38.1510 C.ar  999  CLK999      0.0178
     18  C11       13.0780   52.4010   36.9620 C.ar  999  CLK999     -0.0004
@<TRIPOS>BOND
     1     9     8    1
     2     5     4    2
     3     8     7    1
     4     7     6    1
     5     7    10    1
     6    11    10    1
     7     4     6   am
     8     4     1    1
     9     3     1    1
    10    10    12    1
    11     2     1    1
    12    12    13   ar
    13    12    18   ar
    14    13    14   ar
    15    18    17   ar
    16    14    15   ar
    17    15    17   ar
    18    15    16    1
