@<TRIPOS>MOLECULE
1grr_CLC_A_1.pdb
 18 18 0 0 0
SMALL
GASTEIGER

@<TRIPOS>ATOM
      1  O1        12.0850   52.5450   31.2660 O.2   999  CLC999     -0.2733
      2  O2        12.5400   49.4520   33.6560 O.3   999  CLC999     -0.2184
      3  N2        12.4870   52.1740   33.5300 N.am  999  CLC999     -0.2015
      4  O4        16.1650   51.7220   33.7590 O.3   999  CLC999     -0.2163
      5  C11       11.7920   52.6000   32.4460 C.2   999  CLC999      0.2420
      6  C12       10.4040   53.2620   32.8710 C.3   999  CLC999      0.0964
      7  C21       13.6790   50.1850   34.2300 C.3   999  CLC999      0.2065
      8  C50       14.9680   52.4560   33.9870 C.3   999  CLC999      0.1966
      9  C22       13.7960   51.5220   33.4740 C.3   999  CLC999      0.1626
     10  C1        14.9110   52.7150   35.5120 C.ar  999  CLC999      0.0096
     11  C2        13.8730   53.6680   36.0030 C.ar  999  CLC999     -0.0001
     12  C3        13.7640   53.9610   37.3740 C.ar  999  CLC999      0.0238
     13  C4        14.6320   53.3480   38.2500 C.ar  999  CLC999      0.1429
     14  C5        15.6740   52.4090   37.8330 C.ar  999  CLC999      0.0238
     15  C6        15.7890   52.1110   36.4590 C.ar  999  CLC999     -0.0001
     16  N4        14.6170   53.5780   39.7260 N.pl3 999  CLC999      0.0577
     17  O5        14.9710   52.6380   40.4490 O.2   999  CLC999     -0.1261
     18  O6        14.2700   54.6460   40.1360 O.2   999  CLC999     -0.1261
@<TRIPOS>BOND
     1     1     5    2
     2     5     6    1
     3     5     3   am
     4     9     3    1
     5     9     8    1
     6     9     7    1
     7     2     7    1
     8     4     8    1
     9     8    10    1
    10    10    11   ar
    11    10    15   ar
    12    11    12   ar
    13    15    14   ar
    14    12    13   ar
    15    14    13   ar
    16    13    16    1
    17    16    18    2
    18    16    17    2
