@<TRIPOS>MOLECULE
1grx_GSH_A_1.pdb
 35 34 0 0 0
SMALL
GASTEIGER

@<TRIPOS>ATOM
      1  N1        -8.4570   -8.0890   -1.5820 N.4    86  GSH86       0.3871
      2  CA1       -8.8290   -6.8740   -2.2720 C.3    86  GSH86       0.0209
      3  C1        -9.7300   -7.4620   -3.3660 C.2    86  GSH86       0.3420
      4  O11       -9.2640   -7.4990   -4.5000 O.co2  86  GSH86      -0.2483
      5  O12      -10.4130   -8.4250   -3.0120 O.co2  86  GSH86      -0.2483
      6  CB1       -7.5680   -6.1680   -2.8070 C.3    86  GSH86      -0.0477
      7  CG1       -7.8040   -4.7140   -3.2480 C.3    86  GSH86       0.0230
      8  CD1       -9.1230   -4.4960   -3.9870 C.2    86  GSH86       0.2136
      9  OE1      -10.1880   -4.5950   -3.3820 O.2    86  GSH86      -0.2758
     10  N2        -9.0600   -4.0960   -5.2500 N.am   86  GSH86      -0.3032
     11  CA2      -10.1880   -4.0170   -6.1730 C.3    86  GSH86       0.1091
     12  C2        -9.5950   -4.0140   -7.5730 C.2    86  GSH86       0.2346
     13  O2        -8.4950   -3.4860   -7.7570 O.2    86  GSH86      -0.2737
     14  CB2      -10.9880   -2.7300   -5.9740 C.3    86  GSH86       0.0309
     15  SG2      -12.2990   -2.4460   -7.1800 S.3    86  GSH86      -0.0907
     16  N3       -10.2840   -4.6170   -8.5310 N.am   86  GSH86      -0.3031
     17  CA3       -9.8630   -4.7120   -9.9100 C.3    86  GSH86       0.1133
     18  C3       -10.9120   -5.5570  -10.6160 C.2    86  GSH86       0.3727
     19  O31      -10.5940   -6.6480  -11.0790 O.co2  86  GSH86      -0.2446
     20  O32      -12.0850   -5.3990  -10.2930 O.co2  86  GSH86      -0.2446
     21 HN11       -9.3030   -8.6450   -1.5660 H      86  GSH86      -0.0889
     22 HN12       -8.0940   -7.9570   -0.6550 H      86  GSH86      -0.0889
     23  HA1       -9.3640   -6.1610   -1.6230 H      86  GSH86       0.0198
     24 HB12       -7.1330   -6.7260   -3.6360 H      86  GSH86       0.0259
     25 HB13       -6.8290   -6.1450   -2.0070 H      86  GSH86       0.0259
     26 HG12       -6.9650   -4.3950   -3.8660 H      86  GSH86       0.0358
     27 HG13       -7.8140   -4.0840   -2.3650 H      86  GSH86       0.0358
     28  HN2       -8.1580   -3.8890   -5.6520 H      86  GSH86       0.1495
     29  HA2      -10.8370   -4.8850   -6.0410 H      86  GSH86       0.0603
     30 HB22      -10.3070   -1.8800   -6.0160 H      86  GSH86       0.0407
     31 HB23      -11.4950   -2.7670   -5.0160 H      86  GSH86       0.0407
     32  HN3      -11.1700   -5.0570   -8.3110 H      86  GSH86       0.1493
     33 HA31       -8.8830   -5.1820   -9.9680 H      86  GSH86       0.0579
     34 HA32       -9.8230   -3.7210  -10.3630 H      86  GSH86       0.0579
     35 HN13       -7.8070   -8.6040   -2.1700 H      86  GSH86      -0.0889
@<TRIPOS>BOND
     1    19    18   ar
     2    18    20   ar
     3    18    17    1
     4    34    17    1
     5    33    17    1
     6    17    16    1
     7    16    32    1
     8    16    12   am
     9    13    12    2
    10    12    11    1
    11    15    14    1
    12    11    29    1
    13    11    14    1
    14    11    10    1
    15    30    14    1
    16    14    31    1
    17    28    10    1
    18    10     8   am
    19     4     3   ar
    20     8     9    2
    21     8     7    1
    22    26     7    1
    23    24     6    1
    24     3     5   ar
    25     3     2    1
    26     7     6    1
    27     7    27    1
    28     6     2    1
    29     6    25    1
    30     2    23    1
    31     2     1    1
    32    35     1    1
    33     1    21    1
    34     1    22    1
