@<TRIPOS>MOLECULE
1gs3_EQU_A_1.pdb
 20 23 0 0 0
SMALL
GASTEIGER

@<TRIPOS>ATOM
      1  C1         4.4910   59.6510   33.2010 C.ar  801  EQU801      0.1957
      2  C2         4.6320   58.6820   32.1400 C.ar  801  EQU801      0.0420
      3  C3         4.1870   59.0120   30.8370 C.ar  801  EQU801      0.0029
      4  C4         3.5710   60.3960   30.6120 C.ar  801  EQU801     -0.0041
      5  C5         3.4610   61.3110   31.7420 C.ar  801  EQU801      0.0030
      6  C6         3.9200   60.9240   33.0090 C.ar  801  EQU801      0.0420
      7  C10        4.3130   58.0720   29.7330 C.ar  801  EQU801     -0.0002
      8  C11        3.8670   58.4390   28.4160 C.ar  801  EQU801     -0.0046
      9  C12        3.2880   59.7420   28.1680 C.ar  801  EQU801     -0.0260
     10  C13        3.1380   60.7370   29.3010 C.ar  801  EQU801     -0.0261
     11  C16        2.7920   60.2080   26.7210 C.3   801  EQU801      0.0290
     12  C17        2.8220   61.8030   26.4100 C.3   801  EQU801      0.0556
     13  C18        2.0460   62.5330   27.5800 C.3   801  EQU801      0.0119
     14  C19        2.5040   62.1340   28.9670 C.3   801  EQU801      0.0265
     15  C24        3.5390   59.7280   25.4370 C.3   801  EQU801      0.0125
     16  C25        2.7090   60.4610   24.3220 C.3   801  EQU801      0.0648
     17  C26        2.2790   61.7850   25.0050 C.2   801  EQU801      0.1502
     18  C27        4.2660   62.4970   26.3440 C.3   801  EQU801      0.0077
     19  O1         4.9110   59.3520   34.4110 O.3   801  EQU801     -0.2866
     20  O26        1.5980   62.6940   24.4950 O.2   801  EQU801     -0.2961
@<TRIPOS>BOND
     1    16    17    1
     2    16    15    1
     3    20    17    2
     4    17    12    1
     5    15    11    1
     6    18    12    1
     7    12    11    1
     8    12    13    1
     9    11     9    1
    10    13    14    1
    11     9     8   ar
    12     9    10   ar
    13     8     7   ar
    14    14    10    1
    15    10     4   ar
    16     7     3   ar
    17     4     3   ar
    18     4     5   ar
    19     3     2   ar
    20     5     6   ar
    21     2     1   ar
    22     6     1   ar
    23     1    19    1
