@<TRIPOS>MOLECULE
1gs4_ZK5_A_1.pdb
 27 30 0 0 0
SMALL
GASTEIGER

@<TRIPOS>ATOM
      1  C2         1.3720   26.7060    5.2740 C.3   1918  ZK51918     0.0695
      2  C3         2.7780   26.7290    4.7450 C.2   1918  ZK51918     0.1725
      3  C4         3.5190   28.0070    4.8130 C.2   1918  ZK51918     0.0290
      4  C5         2.9800   29.1620    5.1930 C.2   1918  ZK51918    -0.0394
      5  C6         3.8230   30.3990    5.2650 C.3   1918  ZK51918     0.0223
      6  C7         3.2030   31.5340    4.4130 C.3   1918  ZK51918     0.0071
      7  C1         0.6900   28.0530    5.1410 C.3   1918  ZK51918     0.0145
      8  C8         1.7670   31.8170    4.8520 C.3   1918  ZK51918     0.0333
      9  C9         0.9080   30.5290    4.8440 C.3   1918  ZK51918     0.1645
     10  C10        1.5090   29.3080    5.5750 C.3   1918  ZK51918     0.0457
     11  C11       -0.6050   30.7210    5.0740 C.3   1918  ZK51918     0.1820
     12  C12       -1.2120   31.9490    4.3540 C.3   1918  ZK51918     0.0384
     13  C13       -0.3460   33.2200    4.4540 C.3   1918  ZK51918     0.0350
     14  C14        1.0760   32.8520    3.9860 C.3   1918  ZK51918     0.0055
     15  C15        1.8110   34.2000    3.8380 C.3   1918  ZK51918     0.0031
     16  C16        0.6730   35.1680    3.4540 C.3   1918  ZK51918     0.0377
     17  C17       -0.6500   34.3510    3.4460 C.3   1918  ZK51918     0.1796
     18  C18       -0.3650   33.7300    5.9160 C.3   1918  ZK51918     0.0030
     19  C19        1.4100   29.4720    7.1130 C.3   1918  ZK51918     0.0068
     20  C20       -1.8790   35.1990    3.8180 C.2   1918  ZK51918     0.2109
     21  C21       -3.1650   34.9130    3.0980 C.3   1918  ZK51918     0.2484
     22  F9         0.9290   30.1970    3.4330 F     1918  ZK51918    -0.2371
     23  O1         3.2990   25.7240    4.2680 O.2   1918  ZK51918    -0.2914
     24  O2        -0.8420   30.7650    6.4570 O.3   1918  ZK51918    -0.2203
     25  O3        -0.9230   33.7550    2.1860 O.3   1918  ZK51918    -0.2181
     26  O4        -1.8120   36.0590    4.6470 O.2   1918  ZK51918    -0.2907
     27  O5        -4.1020   35.9810    3.2480 O.3   1918  ZK51918    -0.2118
@<TRIPOS>BOND
     1    25    17    1
     2    21    27    1
     3    21    20    1
     4    22     9    1
     5    17    16    1
     6    17    20    1
     7    17    13    1
     8    16    15    1
     9    20    26    2
    10    15    14    1
    11    14    13    1
    12    14     8    1
    13    23     2    2
    14    12    13    1
    15    12    11    1
    16     6     8    1
    17     6     5    1
    18    13    18    1
    19     2     3    1
    20     2     1    1
    21     3     4    2
    22     9     8    1
    23     9    11    1
    24     9    10    1
    25    11    24    1
    26     7     1    1
    27     7    10    1
    28     4     5    1
    29     4    10    1
    30    10    19    1
