@<TRIPOS>MOLECULE
1gs5_ANP_A_1.pdb
 31 33 0 0 0
SMALL
GASTEIGER

@<TRIPOS>ATOM
      1  PG        25.9260   11.7150   42.5300 P.3   1260  ANP1260     0.4884
      2  O1G       26.3300   13.0660   42.2920 O.3   1260  ANP1260    -0.1240
      3  O2G       27.0360   10.8340   43.0260 O.3   1260  ANP1260    -0.1240
      4  O3G       25.4090   11.2020   41.2810 O.2   1260  ANP1260    -0.2331
      5  PB        24.9190   11.7010   45.3610 P.3   1260  ANP1260     0.4669
      6  O1B       26.1590   12.4530   45.6810 O.2   1260  ANP1260    -0.2351
      7  O2B       23.6480   12.3260   45.7000 O.3   1260  ANP1260    -0.1253
      8  N3B       24.9270   11.4160   43.8220 N.3   1260  ANP1260    -0.0163
      9  PA        25.9820    9.6530   47.1110 P.3   1260  ANP1260     0.2220
     10  O1A       25.6790    8.1470   47.1760 O.3   1260  ANP1260    -0.4370
     11  O2A       27.3110    9.7680   46.4640 O.2   1260  ANP1260    -0.5170
     12  O3A       24.8030   10.3920   46.2840 O.3   1260  ANP1260    -0.2360
     13  O5'       25.9100   10.0140   48.7310 O.3   1260  ANP1260    -0.3111
     14  C5'       24.6960    9.7100   49.6020 C.3   1260  ANP1260     0.1813
     15  C4'       24.6030    8.4200   49.8970 C.3   1260  ANP1260     0.1821
     16  O4'       25.2240    8.5310   51.2130 O.3   1260  ANP1260    -0.3135
     17  C3'       23.1760    7.8820   50.3340 C.3   1260  ANP1260     0.2184
     18  O3'       22.2260    7.4770   49.4150 O.3   1260  ANP1260    -0.2174
     19  C2'       23.6510    6.8540   51.4650 C.3   1260  ANP1260     0.2570
     20  O2'       23.8190    5.5180   50.7170 O.3   1260  ANP1260    -0.2130
     21  C1'       25.0000    7.3450   51.9370 C.3   1260  ANP1260     0.3186
     22  N9        25.1650    7.4670   53.2450 N.pl3 1260  ANP1260    -0.1439
     23  C8        26.1160    6.8900   54.0680 C.3   1260  ANP1260     0.3377
     24  N7        26.1030    7.2050   55.3050 N.2   1260  ANP1260    -0.2095
     25  C5        25.0680    8.0660   55.3520 C.2   1260  ANP1260     0.2526
     26  C6        24.5640    8.7440   56.4480 C.2   1260  ANP1260     0.4393
     27  N6        24.9600    8.7330   57.7480 N.pl3 1260  ANP1260     0.2180
     28  N1        23.4740    9.5820   56.2150 N.2   1260  ANP1260     0.0021
     29  C2        22.9610    9.6870   54.9210 C.3   1260  ANP1260     0.5254
     30  N3        23.3650    9.0830   53.8060 N.2   1260  ANP1260    -0.0055
     31  C4        24.4640    8.2540   54.1050 C.2   1260  ANP1260     0.3518
@<TRIPOS>BOND
     1     4     1    2
     2     2     1    1
     3     1     3    1
     4     1     8    1
     5     8     5    1
     6     5     6    2
     7     5     7    1
     8     5    12    1
     9    12     9    1
    10    11     9    2
    11     9    10    1
    12     9    13    1
    13    13    14    1
    14    18    17    1
    15    14    15    1
    16    15    17    1
    17    15    16    1
    18    17    19    1
    19    20    19    1
    20    16    21    1
    21    19    21    1
    22    21    22    1
    23    22    23    1
    24    22    31    1
    25    30    31    2
    26    30    29    1
    27    23    24    1
    28    31    25    1
    29    29    28    1
    30    24    25    2
    31    25    26    1
    32    28    26    2
    33    26    27    1
