@<TRIPOS>MOLECULE
1gs5_NLG_A_1.pdb
 13 12 0 0 0
SMALL
GASTEIGER

@<TRIPOS>ATOM
      1  CA        32.2350   10.7740   40.7150 C.3   1259  NLG1259     0.1983
      2  C         32.0020    9.5600   40.1960 C.2   1259  NLG1259     0.3842
      3  OXT       32.7950    8.7780   39.3540 O.co2 1259  NLG1259    -0.2437
      4  O         31.0470    8.7570   40.5050 O.co2 1259  NLG1259    -0.2437
      5  CB        31.6150   11.8080   39.8080 C.3   1259  NLG1259     0.0451
      6  CG        30.0400   11.6300   39.6880 C.3   1259  NLG1259     0.1164
      7  CD        29.3980   12.0250   41.0110 C.2   1259  NLG1259     0.3649
      8  OE1       29.8270   12.6810   41.9760 O.co2 1259  NLG1259    -0.2457
      9  OE2       28.2730   11.4470   41.0240 O.co2 1259  NLG1259    -0.2457
     10  C7        34.5250   10.5930   41.6760 C.2   1259  NLG1259     0.2423
     11  C8        35.8270   10.7220   41.5470 C.3   1259  NLG1259     0.0964
     12  O7        34.0540    9.8180   42.5540 O.2   1259  NLG1259    -0.2733
     13  N2        33.7460   10.9090   40.9420 N.am  1259  NLG1259    -0.1956
@<TRIPOS>BOND
     1     3     2   ar
     2     6     5    1
     3     6     7    1
     4     5     1    1
     5     2     4   ar
     6     2     1    1
     7     1    13    1
     8    13    10   am
     9     7     9   ar
    10     7     8   ar
    11    11    10    1
    12    10    12    2
