@<TRIPOS>MOLECULE
1gsa_GSH_A_1.pdb
 20 19 0 0 0
SMALL
GASTEIGER

@<TRIPOS>ATOM
      1  N1        30.3230   15.5410   63.4010 N.3   318  GSH318     -0.1208
      2  CA1       30.9090   15.5340   64.7210 C.3   318  GSH318      0.1948
      3  C1        31.5420   14.2380   65.1960 C.2   318  GSH318      0.3819
      4  O11       31.2030   13.1700   64.6820 O.co2 318  GSH318     -0.2441
      5  O12       32.3460   14.3130   66.1340 O.co2 318  GSH318     -0.2441
      6  CB1       29.8730   15.9290   65.7320 C.3   318  GSH318      0.0402
      7  CG1       29.5210   17.3910   65.6790 C.3   318  GSH318      0.0889
      8  CD1       28.6110   17.7800   66.8340 C.2   318  GSH318      0.2418
      9  OE1       28.9160   18.7210   67.5930 O.2   318  GSH318     -0.2733
     10  N2        27.5020   17.0500   67.0100 N.am  318  GSH318     -0.1968
     11  CA2       26.6010   17.3460   68.1020 C.3   318  GSH318      0.1843
     12  C2        27.1000   16.5920   69.3230 C.2   318  GSH318      0.2627
     13  O2        26.9070   15.3780   69.4520 O.2   318  GSH318     -0.2714
     14  CB2       25.2000   16.8750   67.7790 C.3   318  GSH318      0.0997
     15  SG2       24.7960   17.2760   66.0820 S.3   318  GSH318     -0.0797
     16  N3        27.7120   17.3190   70.2530 N.am  318  GSH318     -0.1917
     17  CA3       28.1550   16.7370   71.5110 C.3   318  GSH318      0.2285
     18  C3        28.7920   17.7660   72.4450 C.2   318  GSH318      0.3865
     19  O31       29.0710   18.9170   72.0560 O.co2 318  GSH318     -0.2437
     20  O32       29.0210   17.3850   73.5900 O.co2 318  GSH318     -0.2437
@<TRIPOS>BOND
     1     1     2    1
     2     4     3   ar
     3     2     3    1
     4     2     6    1
     5     3     5   ar
     6     7     6    1
     7     7     8    1
     8    15    14    1
     9     8    10   am
    10     8     9    2
    11    10    11    1
    12    14    11    1
    13    11    12    1
    14    12    13    2
    15    12    16   am
    16    16    17    1
    17    17    18    1
    18    19    18   ar
    19    18    20   ar
