@<TRIPOS>MOLECULE
1gsa_ADP_A_1.pdb
 27 29 0 0 0
SMALL
GASTEIGER

@<TRIPOS>ATOM
      1  PB        22.3180   21.9710   72.2460 P.3   317  ADP317      0.5373
      2  O1B       21.9030   21.4040   70.9320 O.2   317  ADP317     -0.2221
      3  O2B       22.9980   23.2600   71.9580 O.3   317  ADP317     -0.1143
      4  O3B       23.2550   21.0110   72.8870 O.3   317  ADP317     -0.1143
      5  PA        20.7280   21.5780   74.6240 P.3   317  ADP317      0.2231
      6  O1A       21.2490   20.1920   74.7070 O.2   317  ADP317     -0.5169
      7  O2A       19.2700   21.4880   74.8360 O.3   317  ADP317     -0.4370
      8  O3A       21.0700   22.2600   73.2180 O.3   317  ADP317     -0.2261
      9  O5'       21.4100   22.5350   75.7330 O.3   317  ADP317     -0.3111
     10  C5'       22.8070   22.8220   75.6810 C.3   317  ADP317      0.1813
     11  C4'       23.3320   23.1460   77.0600 C.3   317  ADP317      0.1821
     12  O4'       22.5280   24.1720   77.7050 O.3   317  ADP317     -0.3135
     13  C3'       23.1660   21.9130   77.9430 C.3   317  ADP317      0.2184
     14  O3'       24.3240   21.0790   77.9040 O.3   317  ADP317     -0.2174
     15  C2'       23.0450   22.5050   79.3170 C.3   317  ADP317      0.2570
     16  O2'       24.3250   22.9060   79.7980 O.3   317  ADP317     -0.2130
     17  C1'       22.1940   23.7270   79.0290 C.3   317  ADP317      0.3186
     18  N9        20.7680   23.3620   79.1490 N.pl3 317  ADP317     -0.1439
     19  C8        19.8270   23.1640   78.1830 C.3   317  ADP317      0.3377
     20  N7        18.5740   22.9250   78.7000 N.2   317  ADP317     -0.2095
     21  C5        18.7820   22.9920   80.0670 C.2   317  ADP317      0.2526
     22  C6        17.9000   22.8710   81.1600 C.2   317  ADP317      0.4393
     23  N6        16.5890   22.6880   81.0030 N.pl3 317  ADP317      0.2180
     24  N1        18.4230   22.9920   82.3890 N.2   317  ADP317      0.0021
     25  C2        19.7270   23.2340   82.5330 C.3   317  ADP317      0.5254
     26  N3        20.6530   23.3730   81.5970 N.2   317  ADP317     -0.0055
     27  C4        20.1010   23.2380   80.3530 C.2   317  ADP317      0.3518
@<TRIPOS>BOND
     1     2     1    2
     2     3     1    1
     3     1     4    1
     4     1     8    1
     5     8     5    1
     6     5     6    2
     7     5     7    1
     8     5     9    1
     9    10     9    1
    10    10    11    1
    11    11    12    1
    12    11    13    1
    13    12    17    1
    14    14    13    1
    15    13    15    1
    16    19    20    1
    17    19    18    1
    18    20    21    2
    19    17    18    1
    20    17    15    1
    21    18    27    1
    22    15    16    1
    23    21    27    1
    24    21    22    1
    25    27    26    2
    26    23    22    1
    27    22    24    2
    28    26    25    1
    29    24    25    1
