@<TRIPOS>MOLECULE
1gse_EAA_A_1.pdb
 19 19 0 0 0
SMALL
GASTEIGER

@<TRIPOS>ATOM
      1  C1        89.8600   26.1170   14.9080 C.ar  224  EAA224      0.1506
      2  O2        91.1690   25.7030   14.9300 O.3   224  EAA224     -0.4628
      3  C2        89.5190   27.4280   14.6060 C.ar  224  EAA224      0.1021
      4 CL1        90.7940   28.6030   14.3250 Cl    224  EAA224     -0.0782
      5  C3        88.1970   27.8310   14.5420 C.ar  224  EAA224      0.0739
      6 CL2        87.8350   29.5320   14.2180 Cl    224  EAA224     -0.0812
      7  C4        87.1580   26.9380   14.7620 C.ar  224  EAA224      0.0463
      8  C5        87.5110   25.6370   15.0860 C.ar  224  EAA224      0.0069
      9  C6        88.8350   25.2410   15.1540 C.ar  224  EAA224      0.0379
     10  C7        85.7910   27.3200   14.6520 C.2   224  EAA224      0.1735
     11  O1        85.1380   26.9180   13.6840 O.2   224  EAA224     -0.2913
     12  C8        85.1240   28.1640   15.7290 C.3   224  EAA224      0.0620
     13  C9        85.0510   27.3250   17.0130 C.3   224  EAA224      0.0077
     14  C10       83.7640   27.4300   17.8660 C.3   224  EAA224      0.0005
     15  C11       83.7030   28.5410   15.3190 C.3   224  EAA224      0.0081
     16  C12       91.4370   24.3150   14.5850 C.3   224  EAA224      0.3186
     17  C13       91.7350   24.1600   13.0840 C.2   224  EAA224      0.4084
     18  O         91.3790   25.0430   12.2630 O.co2 224  EAA224     -0.2415
     19  OXT       92.3310   23.1220   12.7190 O.co2 224  EAA224     -0.2415
@<TRIPOS>BOND
     1    18    17   ar
     2    19    17   ar
     3    17    16    1
     4    11    10    2
     5     6     5    1
     6     4     3    1
     7     5     3   ar
     8     5     7   ar
     9    16     2    1
    10     3     1   ar
    11    10     7    1
    12    10    12    1
    13     7     8   ar
    14     1     2    1
    15     1     9   ar
    16     8     9   ar
    17    15    12    1
    18    12    13    1
    19    13    14    1
