@<TRIPOS>MOLECULE
1gse_GSH_A_1.pdb
 20 19 0 0 0
SMALL
GASTEIGER

@<TRIPOS>ATOM
      1  N1        76.2890   26.5570   13.2200 N.3   223  GSH223     -0.1208
      2  CA1       77.0810   27.6840   12.6700 C.3   223  GSH223      0.1948
      3  C1        77.6660   27.2810   11.3030 C.2   223  GSH223      0.3819
      4  O11       78.0230   28.1610   10.4970 O.co2 223  GSH223     -0.2441
      5  O12       77.6900   26.0720   11.0250 O.co2 223  GSH223     -0.2441
      6  CB1       78.1840   28.0640   13.6530 C.3   223  GSH223      0.0402
      7  CG1       78.9660   29.3030   13.2530 C.3   223  GSH223      0.0889
      8  CD1       80.0590   29.6780   14.2410 C.2   223  GSH223      0.2418
      9  OE1       80.2430   28.9980   15.2510 O.2   223  GSH223     -0.2733
     10  N2        80.7850   30.7560   13.9530 N.am  223  GSH223     -0.1968
     11  CA2       81.8470   31.2380   14.8430 C.3   223  GSH223      0.1843
     12  C2        81.6330   32.7120   15.0830 C.2   223  GSH223      0.2627
     13  O2        81.5140   33.5010   14.1450 O.2   223  GSH223     -0.2714
     14  CB2       83.2260   31.0580   14.2640 C.3   223  GSH223      0.0997
     15  SG2       83.5880   29.4220   13.7150 S.3   223  GSH223     -0.0797
     16  N3        81.5480   33.0690   16.3540 N.am  223  GSH223     -0.1917
     17  CA3       81.3070   34.4470   16.7290 C.3   223  GSH223      0.2285
     18  C3        80.0440   34.5200   17.5740 C.2   223  GSH223      0.3865
     19  O31       79.4170   33.4600   17.8230 O.co2 223  GSH223     -0.2437
     20  O32       79.7310   35.6190   18.0660 O.co2 223  GSH223     -0.2437
@<TRIPOS>BOND
     1     4     3   ar
     2     5     3   ar
     3     3     2    1
     4     2     1    1
     5     2     6    1
     6     7     6    1
     7     7     8    1
     8    15    14    1
     9    10     8   am
    10    10    11    1
    11    13    12    2
    12     8     9    2
    13    14    11    1
    14    11    12    1
    15    12    16   am
    16    16    17    1
    17    17    18    1
    18    18    19   ar
    19    18    20   ar
