@<TRIPOS>MOLECULE
1gsf_EAA_A_1.pdb
 19 19 0 0 0
SMALL
GASTEIGER

@<TRIPOS>ATOM
      1  C1        88.3190   27.9380   14.8870 C.ar  223  EAA223      0.1506
      2  O2        87.9030   29.1770   14.4270 O.3   223  EAA223     -0.4628
      3  C2        89.5140   27.3760   14.4540 C.ar  223  EAA223      0.1021
      4 CL1        90.6280   28.3360   13.4790 Cl    223  EAA223     -0.0782
      5  C3        89.8600   26.0750   14.7670 C.ar  223  EAA223      0.0742
      6 CL2        91.3830   25.4320   14.1560 Cl    223  EAA223     -0.0812
      7  C4        89.0290   25.2730   15.5380 C.ar  223  EAA223      0.0502
      8  C5        87.8620   25.8500   16.0180 C.ar  223  EAA223      0.0072
      9  C6        87.5200   27.1610   15.6980 C.ar  223  EAA223      0.0380
     10  C7        89.3290   23.8910   15.7610 C.2   223  EAA223      0.1925
     11  O1        88.5420   23.0440   15.3240 O.2   223  EAA223     -0.2869
     12  C8        90.4860   23.5100   16.4790 C.2   223  EAA223      0.0168
     13  C9        90.5260   23.8250   17.8620 C.3   223  EAA223      0.0296
     14  C10       89.2370   23.6450   18.6760 C.3   223  EAA223      0.0051
     15  C11       91.3800   22.8640   15.9580 C.2   223  EAA223     -0.0013
     16  C12       86.5960   29.6750   14.8530 C.3   223  EAA223      0.3186
     17  C13       85.4390   29.0540   14.0450 C.2   223  EAA223      0.4084
     18  O         85.5860   27.9510   13.4650 O.co2 223  EAA223     -0.2415
     19  OXT       84.3550   29.6770   14.0310 O.co2 223  EAA223     -0.2415
@<TRIPOS>BOND
     1    18    17   ar
     2     4     3    1
     3    19    17   ar
     4    17    16    1
     5     6     5    1
     6     2    16    1
     7     2     1    1
     8     3     5   ar
     9     3     1   ar
    10     5     7   ar
    11     1     9   ar
    12    11    10    2
    13     7    10    1
    14     7     8   ar
    15     9     8   ar
    16    10    12    1
    17    15    12    2
    18    12    13    1
    19    13    14    1
