@<TRIPOS>MOLECULE
1gsi_TMP_A_1.pdb
 21 22 0 0 0
SMALL
GASTEIGER

@<TRIPOS>ATOM
      1  P         26.2900   15.0190    8.3690 P.3   1210  TMP1210     0.5327
      2  O1P       25.1450   15.8230    8.8290 O.3   1210  TMP1210    -0.1145
      3  O2P       27.2840   14.8390    9.4960 O.3   1210  TMP1210    -0.1145
      4  O3P       26.9050   15.5500    7.1380 O.2   1210  TMP1210    -0.2224
      5  O5'       25.7710   13.5770    8.0830 O.3   1210  TMP1210    -0.2675
      6  C5'       24.8840   13.2180    6.9460 C.3   1210  TMP1210     0.1858
      7  C4'       23.5810   12.5920    7.4880 C.3   1210  TMP1210     0.1774
      8  O4'       23.7820   11.1580    7.5970 O.3   1210  TMP1210    -0.3339
      9  C3'       23.0970   13.0950    8.8740 C.3   1210  TMP1210     0.1857
     10  O3'       21.7230   13.4160    8.7380 O.3   1210  TMP1210    -0.2203
     11  C2'       23.2320   11.9230    9.8380 C.3   1210  TMP1210     0.0874
     12  C1'       23.6460   10.7590    8.9540 C.3   1210  TMP1210     0.2090
     13  N1        24.4720    9.6360    9.3210 N.am  1210  TMP1210    -0.1794
     14  C2        23.9410    8.3600    9.5430 C.1   1210  TMP1210     0.2844
     15  O2        22.7410    8.0730    9.4460 O.2   1210  TMP1210    -0.1918
     16  N3        24.9160    7.4200    9.8910 N.2   1210  TMP1210    -0.2455
     17  C4        26.2980    7.6670   10.0170 C.1   1210  TMP1210     0.2134
     18  O4        27.0660    6.7670   10.3280 O.2   1210  TMP1210    -0.2088
     19  C5        26.7480    9.0290    9.7590 C.2   1210  TMP1210     0.0891
     20  C5M       28.1720    9.4070    9.8560 C.3   1210  TMP1210     0.0462
     21  C6        25.7790    9.9640    9.4170 C.2   1210  TMP1210     0.0877
@<TRIPOS>BOND
     1     6     7    1
     2     6     5    1
     3     4     1    2
     4     7     8    1
     5     7     9    1
     6     8    12    1
     7     5     1    1
     8     1     2    1
     9     1     3    1
    10    10     9    1
    11     9    11    1
    12    12    13    1
    13    12    11    1
    14    13    21    1
    15    13    14   am
    16    21    19    2
    17    15    14    2
    18    14    16    2
    19    19    20    1
    20    19    17    1
    21    16    17    2
    22    17    18    2
