@<TRIPOS>MOLECULE
1gsj_NLG_A_1.pdb
 13 12 0 0 0
SMALL
GASTEIGER

@<TRIPOS>ATOM
      1  CA        32.1710   10.4860   40.7520 C.3   1259  NLG1259     0.1983
      2  C         31.8950    9.2800   40.2110 C.2   1259  NLG1259     0.3842
      3  OXT       32.4830    8.6150   39.1450 O.co2 1259  NLG1259    -0.2437
      4  O         30.9980    8.4430   40.5610 O.co2 1259  NLG1259    -0.2437
      5  CB        31.6280   11.5730   39.8280 C.3   1259  NLG1259     0.0451
      6  CG        30.0430   11.5150   39.5930 C.3   1259  NLG1259     0.1164
      7  CD        29.3390   11.8360   40.9020 C.2   1259  NLG1259     0.3649
      8  OE1       29.6730   12.4460   41.9340 O.co2 1259  NLG1259    -0.2457
      9  OE2       28.2140   11.3040   40.7520 O.co2 1259  NLG1259    -0.2457
     10  C7        34.4870   10.2660   41.7360 C.2   1259  NLG1259     0.2423
     11  C8        35.7780   10.4760   41.6410 C.3   1259  NLG1259     0.0964
     12  O7        34.0210    9.6850   42.7430 O.2   1259  NLG1259    -0.2733
     13  N2        33.6920   10.5560   40.9830 N.am  1259  NLG1259    -0.1956
@<TRIPOS>BOND
     1     3     2   ar
     2     6     5    1
     3     6     7    1
     4     5     1    1
     5     2     4   ar
     6     2     1    1
     7     1    13    1
     8     9     7   ar
     9     7     8   ar
    10    13    10   am
    11    11    10    1
    12    10    12    2
