@<TRIPOS>MOLECULE
1gsl_GAL_A_1.pdb
 11 11 0 0 0
SMALL
GASTEIGER

@<TRIPOS>ATOM
      1  C1        31.4360   14.0380   30.0460 C.3   253  GAL253      0.1777
      2  C2        30.4250   14.7020   29.0850 C.3   253  GAL253      0.2141
      3  C3        30.9440   14.6890   27.6390 C.3   253  GAL253      0.2173
      4  C4        32.3330   15.3340   27.5930 C.3   253  GAL253      0.2142
      5  C5        33.2680   14.5850   28.5600 C.3   253  GAL253      0.1810
      6  C6        34.6720   15.1890   28.5740 C.3   253  GAL253      0.2141
      7  O2        29.1660   14.0000   29.1470 O.3   253  GAL253     -0.2176
      8  O3        30.0470   15.3970   26.7930 O.3   253  GAL253     -0.2175
      9  O4        32.2480   16.7110   27.9600 O.3   253  GAL253     -0.2176
     10  O5        32.7400   14.6430   29.9160 O.3   253  GAL253     -0.3481
     11  O6        35.5950   14.3580   29.2620 O.3   253  GAL253     -0.2176
@<TRIPOS>BOND
     1     8     3    1
     2     4     3    1
     3     4     9    1
     4     4     5    1
     5     3     2    1
     6     5     6    1
     7     5    10    1
     8     6    11    1
     9     2     7    1
    10     2     1    1
    11    10     1    1
