@<TRIPOS>MOLECULE
1gsl_FUC_A_1.pdb
 10 10 0 0 0
SMALL
GASTEIGER

@<TRIPOS>ATOM
      1  C1        28.0140   14.7950   29.1910 C.3   252  FUC252      0.1776
      2  C2        26.7780   13.9140   28.9750 C.3   252  FUC252      0.2141
      3  C3        26.5130   13.0000   30.1730 C.3   252  FUC252      0.2172
      4  C4        26.5060   13.8040   31.4780 C.3   252  FUC252      0.2116
      5  C5        27.7770   14.6680   31.5780 C.3   252  FUC252      0.1483
      6  C6        27.7930   15.5720   32.7970 C.3   252  FUC252      0.0349
      7  O2        26.9590   13.1070   27.8210 O.3   252  FUC252     -0.2176
      8  O3        25.2540   12.3510   29.9960 O.3   252  FUC252     -0.2175
      9  O4        25.3370   14.6200   31.5530 O.3   252  FUC252     -0.2177
     10  O5        27.9120   15.5120   30.4120 O.3   252  FUC252     -0.3508
@<TRIPOS>BOND
     1     7     2    1
     2     2     1    1
     3     2     3    1
     4     1    10    1
     5     8     3    1
     6     3     4    1
     7    10     5    1
     8     4     9    1
     9     4     5    1
    10     5     6    1
