@<TRIPOS>MOLECULE
1gsn_GSH_A_1.pdb
 20 19 0 0 0
SMALL
GASTEIGER

@<TRIPOS>ATOM
      1  N1        64.3500  -22.5170   36.4960 N.3   1030  GSH1030    -0.1208
      2  CA1       64.6220  -23.3160   37.7330 C.3   1030  GSH1030     0.1948
      3  C1        64.1610  -24.7600   37.5370 C.2   1030  GSH1030     0.3819
      4  O11       63.3490  -24.9960   36.6150 O.co2 1030  GSH1030    -0.2441
      5  O12       64.6210  -25.6290   38.3050 O.co2 1030  GSH1030    -0.2441
      6  CB1       63.8890  -22.7140   38.9390 C.3   1030  GSH1030     0.0402
      7  CG1       64.0200  -21.2110   39.0990 C.3   1030  GSH1030     0.0889
      8  CD1       63.8880  -20.8090   40.5490 C.2   1030  GSH1030     0.2418
      9  OE1       64.6740  -21.2580   41.3730 O.2   1030  GSH1030    -0.2733
     10  N2        62.8780  -20.0050   40.8730 N.am  1030  GSH1030    -0.1968
     11  CA2       62.2790  -19.9830   42.2170 C.3   1030  GSH1030     0.1843
     12  C2        61.1070  -20.9610   42.3080 C.2   1030  GSH1030     0.2627
     13  O2        60.1810  -20.7210   43.0930 O.2   1030  GSH1030    -0.2714
     14  CB2       61.7830  -18.5670   42.5640 C.3   1030  GSH1030     0.0997
     15  SG2       63.0530  -17.2590   42.7130 S.3   1030  GSH1030    -0.0797
     16  N3        60.9360  -21.7030   41.2180 N.am  1030  GSH1030    -0.1917
     17  CA3       59.6390  -22.2500   40.8790 C.3   1030  GSH1030     0.2285
     18  C3        59.7090  -23.2710   39.7650 C.2   1030  GSH1030     0.3865
     19  O31       60.6460  -23.1780   38.9400 O.co2 1030  GSH1030    -0.2437
     20  O32       58.8210  -24.1540   39.7130 O.co2 1030  GSH1030    -0.2437
@<TRIPOS>BOND
     1     1     2    1
     2     4     3   ar
     3     3     2    1
     4     3     5   ar
     5     2     6    1
     6     6     7    1
     7    19    18   ar
     8     7     8    1
     9    20    18   ar
    10    18    17    1
    11     8    10   am
    12     8     9    2
    13    10    11    1
    14    17    16    1
    15    16    12   am
    16    11    12    1
    17    11    14    1
    18    12    13    2
    19    14    15    1
