@<TRIPOS>MOLECULE
1gsp_SGP_A_1.pdb
 23 26 0 0 0
SMALL
GASTEIGER

@<TRIPOS>ATOM
      1  P         20.9090   37.0650   19.2600 P.3   105  SGP105      0.4036
      2  S1P       20.0040   38.5870   18.6410 S.3   105  SGP105      0.0393
      3  O1P       22.1930   37.0990   18.5100 O.2   105  SGP105     -0.2449
      4  O5'       19.3880   36.4750   23.7630 O.3   105  SGP105     -0.2176
      5  C5'       20.6820   35.7700   23.7520 C.3   105  SGP105      0.2141
      6  C4'       20.9420   35.0490   22.4270 C.3   105  SGP105      0.1800
      7  O4'       20.1590   33.8740   22.2130 O.3   105  SGP105     -0.3327
      8  C3'       20.3920   36.0340   21.4070 C.3   105  SGP105      0.1860
      9  O3'       21.4380   36.8650   20.7940 O.3   105  SGP105     -0.2835
     10  C2'       19.6580   35.2140   20.3370 C.3   105  SGP105      0.2011
     11  O2'       20.4020   35.4450   19.1230 O.3   105  SGP105     -0.2818
     12  C1'       19.6440   33.7860   20.8720 C.3   105  SGP105      0.2264
     13  N9        18.2370   33.3000   20.8780 N.pl3 105  SGP105     -0.2354
     14  C8        17.7450   32.1830   20.2660 C.3   105  SGP105      0.2246
     15  N7        16.4600   32.0040   20.3840 N.2   105  SGP105     -0.2322
     16  C5        16.0440   33.0930   21.1440 C.2   105  SGP105      0.2182
     17  C6        14.7370   33.4660   21.5940 C.1   105  SGP105      0.2372
     18  O6        13.6930   32.8540   21.3920 O.2   105  SGP105     -0.2069
     19  N1        14.7390   34.6360   22.3170 N.2   105  SGP105     -0.2485
     20  C2        15.8650   35.3840   22.5920 C.1   105  SGP105      0.2531
     21  N2        15.7310   36.4900   23.3400 N.pl3 105  SGP105     -0.0226
     22  N3        17.0800   35.0350   22.1700 N.2   105  SGP105     -0.3074
     23  C4        17.1120   33.8980   21.4600 C.2   105  SGP105      0.2300
@<TRIPOS>BOND
     1     3     1    2
     2     2     1    1
     3    11     1    1
     4    11    10    1
     5     1     9    1
     6    14    15    1
     7    14    13    1
     8    10    12    1
     9    10     8    1
    10    15    16    2
    11     9     8    1
    12    12    13    1
    13    12     7    1
    14    13    23    1
    15    16    23    1
    16    16    17    1
    17    18    17    2
    18     8     6    1
    19    23    22    2
    20    17    19    2
    21    22    20    2
    22     7     6    1
    23    19    20    2
    24     6     5    1
    25    20    21    1
    26     5     4    1
