@<TRIPOS>MOLECULE
1gss_LEE_A_1.pdb
 26 25 0 0 0
SMALL
GASTEIGER

@<TRIPOS>ATOM
      1  N         28.7050   54.9300   10.5190 N.3   208  LEE208     -0.1208
      2  CA        30.0880   55.2310   10.7520 C.3   208  LEE208      0.1948
      3  C         30.0420   55.6320   12.2300 C.2   208  LEE208      0.3819
      4  O         30.7750   56.5140   12.6620 O.co2 208  LEE208     -0.2441
      5  CB        30.4480   56.3570    9.8440 C.3   208  LEE208      0.0402
      6  CG        31.9090   56.5690    9.6830 C.3   208  LEE208      0.0889
      7  CD        32.0390   57.7740    8.8240 C.2   208  LEE208      0.2418
      8  OE1       31.2150   58.0510    7.9400 O.2   208  LEE208     -0.2733
      9  OXT       29.2280   55.0690   12.9770 O.co2 208  LEE208     -0.2441
     10  N1        33.2560   58.2130    9.1020 N.am  208  LEE208     -0.1969
     11  CA1       33.9310   59.1630    8.2100 C.3   208  LEE208      0.1834
     12  CB1       34.5410   60.1040    9.2740 C.3   208  LEE208      0.0886
     13  SG        35.8640   60.8440    8.3250 S.3   208  LEE208     -0.1379
     14  C1        36.0150   62.5750    8.8420 C.3   208  LEE208      0.0576
     15  C2        36.5870   63.3840    7.6610 C.3   208  LEE208      0.0116
     16  C3        38.0460   63.0480    7.3230 C.3   208  LEE208      0.0009
     17  C4        38.6220   63.5970    5.9920 C.3   208  LEE208      0.0000
     18  C5        38.4490   62.6470    4.7860 C.3   208  LEE208      0.0000
     19  C6        39.4640   61.4860    4.7290 C.3   208  LEE208      0.0000
     20  C7        34.8580   58.3140    7.3290 C.2   208  LEE208      0.2626
     21  O1        35.6150   57.5210    7.8800 O.2   208  LEE208     -0.2714
     22  N2        34.9660   58.3160    6.0170 N.am  208  LEE208     -0.1917
     23  CA2       36.2690   58.4860    5.3540 C.3   208  LEE208      0.2285
     24  C8        36.5370   57.3990    4.3150 C.2   208  LEE208      0.3865
     25  O2        37.6620   57.3320    3.8140 O.co2 208  LEE208     -0.2437
     26 OXT1       35.6010   56.6570    3.9990 O.co2 208  LEE208     -0.2437
@<TRIPOS>BOND
     1    25    24   ar
     2    26    24   ar
     3    24    23    1
     4    19    18    1
     5    18    17    1
     6    23    22    1
     7    17    16    1
     8    22    20   am
     9    16    15    1
    10    20    21    2
    11    20    11    1
    12    15    14    1
    13     8     7    2
    14    11    10    1
    15    11    12    1
    16    13    14    1
    17    13    12    1
    18     7    10   am
    19     7     6    1
    20     6     5    1
    21     5     2    1
    22     1     2    1
    23     2     3    1
    24     3     4   ar
    25     3     9   ar
