@<TRIPOS>MOLECULE
1gsu_GTX_A_1.pdb
 26 25 0 0 0
SMALL
GASTEIGER

@<TRIPOS>ATOM
      1  N1        26.4940   -0.2570   47.4130 N.3   220  GTX220     -0.1208
      2  CA1       26.8330   -0.4250   48.8440 C.3   220  GTX220      0.1948
      3  C1        27.4440    0.8930   49.3020 C.2   220  GTX220      0.3819
      4  O11       27.8310    1.7110   48.4660 O.co2 220  GTX220     -0.2441
      5  O12       27.5240    1.1510   50.5000 O.co2 220  GTX220     -0.2441
      6  CB1       27.8170   -1.5990   49.0200 C.3   220  GTX220      0.0402
      7  CG1       28.0260   -2.0470   50.4710 C.3   220  GTX220      0.0889
      8  CD1       28.7670   -3.3670   50.5970 C.2   220  GTX220      0.2418
      9  OE1       28.6270   -4.2480   49.7530 O.2   220  GTX220     -0.2733
     10  N2        29.5490   -3.5210   51.6660 N.am  220  GTX220     -0.1969
     11  CA2       30.2780   -4.7650   51.9530 C.3   220  GTX220      0.1834
     12  C2        30.0640   -5.2120   53.4070 C.2   220  GTX220      0.2626
     13  O2        30.9820   -5.7360   54.0420 O.2   220  GTX220     -0.2714
     14  CB2       31.7900   -4.5670   51.7330 C.3   220  GTX220      0.0886
     15  SG2       32.3800   -3.6700   50.2940 S.3   220  GTX220     -0.1379
     16  C1S       32.9940   -4.9950   49.2510 C.3   220  GTX220      0.0576
     17  C2S       33.9180   -4.4790   48.1310 C.3   220  GTX220      0.0116
     18  C3S       35.1600   -3.6980   48.6420 C.3   220  GTX220      0.0009
     19  C4S       36.0880   -4.5410   49.5230 C.3   220  GTX220      0.0000
     20  C5S       36.2710   -3.8830   50.8700 C.3   220  GTX220      0.0000
     21  C6S       36.9680   -4.7340   51.8910 C.3   220  GTX220      0.0000
     22  N3        28.8620   -5.0110   53.9470 N.am  220  GTX220     -0.1917
     23  CA3       28.4630   -5.4510   55.2880 C.3   220  GTX220      0.2285
     24  C3        27.1790   -6.2800   55.3060 C.2   220  GTX220      0.3865
     25  O31       26.7910   -6.7830   56.3530 O.co2 220  GTX220     -0.2437
     26  O32       26.5380   -6.4460   54.2740 O.co2 220  GTX220     -0.2437
@<TRIPOS>BOND
     1     1     2    1
     2    17    18    1
     3    17    16    1
     4     4     3   ar
     5    18    19    1
     6     2     6    1
     7     2     3    1
     8     6     7    1
     9    16    15    1
    10     3     5   ar
    11    19    20    1
    12     9     8    2
    13    15    14    1
    14     7     8    1
    15     8    10   am
    16    20    21    1
    17    10    11    1
    18    14    11    1
    19    11    12    1
    20    12    22   am
    21    12    13    2
    22    22    23    1
    23    26    24   ar
    24    23    24    1
    25    24    25   ar
