@<TRIPOS>MOLECULE
1gsy_GSH_A_1.pdb
 20 19 0 0 0
SMALL
GASTEIGER

@<TRIPOS>ATOM
      1  N1        45.9230   53.8370   25.6410 N.3   210  GSH210     -0.1159
      2  CA1       45.7520   52.3580   25.9170 C.3   210  GSH210      0.2164
      3  C1        44.5000   51.9400   25.1850 C.2   210  GSH210      0.3860
      4  O11       44.5120   50.8630   24.5930 O.co2 210  GSH210     -0.2437
      5  O12       43.5440   52.7270   25.1810 O.co2 210  GSH210     -0.2437
      6  CB1       45.5730   52.0560   27.4350 C.2   210  GSH210      0.0085
      7  CG1       45.0110   50.6650   27.7920 C.2   210  GSH210      0.0569
      8  CD1       44.9050   50.3580   29.2780 C.2   210  GSH210      0.2651
      9  OE1       44.4330   51.1540   30.0700 O.2   210  GSH210     -0.2684
     10  N2        45.4110   49.1880   29.6310 N.am  210  GSH210     -0.1931
     11  CA2       45.4010   48.6890   30.9910 C.3   210  GSH210      0.1846
     12  C2        46.5960   47.7540   31.1990 C.2   210  GSH210      0.2627
     13  O2        47.0610   47.1120   30.2610 O.2   210  GSH210     -0.2714
     14  CB2       44.1120   47.9570   31.2620 C.3   210  GSH210      0.0997
     15  SG2       42.5910   48.8180   31.1050 S.3   210  GSH210     -0.0797
     16  N3        47.0430   47.6020   32.4340 N.am  210  GSH210     -0.1917
     17  CA3       48.1480   46.7090   32.6960 C.3   210  GSH210      0.2285
     18  C3        49.3650   47.4330   33.1540 C.2   210  GSH210      0.3865
     19  O31       49.4670   48.6510   32.9400 O.co2 210  GSH210     -0.2437
     20  O32       50.2340   46.7780   33.7870 O.co2 210  GSH210     -0.2437
@<TRIPOS>BOND
     1     4     3   ar
     2     5     3   ar
     3     3     2    1
     4     1     2    1
     5     2     6    1
     6     6     7    2
     7     7     8    1
     8     8    10   am
     9     8     9    2
    10    10    11    1
    11    13    12    2
    12    11    12    1
    13    11    14    1
    14    15    14    1
    15    12    16   am
    16    16    17    1
    17    17    18    1
    18    19    18   ar
    19    18    20   ar
