@<TRIPOS>MOLECULE
1gsz_C8E_A_1.pdb
 21 20 0 0 0
SMALL
GASTEIGER

@<TRIPOS>ATOM
      1  C1        49.5190   92.4790   72.8840 C.3   1629  C8E1629     0.0000
      2  C2        49.4480   93.7040   72.0520 C.3   1629  C8E1629     0.0000
      3  C3        48.9150   93.3770   70.7230 C.3   1629  C8E1629     0.0000
      4  C4        49.9580   93.7370   69.7640 C.3   1629  C8E1629     0.0000
      5  C5        50.6690   92.4780   69.4120 C.3   1629  C8E1629     0.0001
      6  C6        51.0470   92.4400   68.0150 C.3   1629  C8E1629     0.0026
      7  C7        52.4860   92.4810   68.0790 C.3   1629  C8E1629     0.0321
      8  C8        53.1620   91.8820   66.8690 C.3   1629  C8E1629     0.1423
      9  O9        54.1190   90.8360   67.2330 O.3   1629  C8E1629    -0.3498
     10  C10       55.4080   91.3690   67.5590 C.3   1629  C8E1629     0.1893
     11  C11       56.3800   90.2510   67.7890 C.3   1629  C8E1629     0.2376
     12  O12       56.2590   89.5150   69.0360 O.2   1629  C8E1629    -0.4666
     13  C13       55.7930   88.1270   68.8370 C.2   1629  C8E1629     0.2124
     14  C14       54.3870   87.8040   69.3550 C.2   1629  C8E1629     0.2124
     15  O15       53.7120   86.5510   69.5330 O.2   1629  C8E1629    -0.4666
     16  C16       53.4010   86.5140   70.9270 C.3   1629  C8E1629     0.2376
     17  C17       52.0540   86.7150   71.4570 C.3   1629  C8E1629     0.1894
     18  O18       51.9010   87.9540   72.2520 O.3   1629  C8E1629    -0.3470
     19  C19       50.4920   88.0870   72.3140 C.3   1629  C8E1629     0.1778
     20  C20       49.6990   89.0400   71.3550 C.3   1629  C8E1629     0.2140
     21  O21       50.5590   89.6960   70.4480 O.3   1629  C8E1629    -0.2176
@<TRIPOS>BOND
     1     8     9    1
     2     8     7    1
     3     9    10    1
     4    10    11    1
     5    11    12    1
     6     6     7    1
     7     6     5    1
     8    13    12    1
     9    13    14    2
    10    14    15    1
    11     5     4    1
    12    15    16    1
    13     4     3    1
    14    21    20    1
    15     3     2    1
    16    16    17    1
    17    20    19    1
    18    17    18    1
    19     2     1    1
    20    18    19    1
