@<TRIPOS>MOLECULE
1gsz_R71_A_1.pdb
 28 29 0 0 0
SMALL
GASTEIGER

@<TRIPOS>ATOM
      1  C8        68.8470   72.7280   71.6980 C.ar  1630  R711630     0.0120
      2  C7        68.2980   71.3300   71.3830 C.3   1630  R711630     0.1987
      3  O21       68.8730   70.3020   72.0110 O.3   1630  R711630    -0.2133
      4  C1        67.1500   71.0160   70.4170 C.ar  1630  R711630     0.0396
      5  C6        66.2770   69.8740   70.5730 C.ar  1630  R711630     0.1418
      6  F22       66.4160   69.0130   71.5790 F     1630  R711630    -0.2043
      7  C5        65.2380   69.6410   69.6400 C.ar  1630  R711630     0.0663
      8  C4        65.0400   70.5240   68.5470 C.ar  1630  R711630     0.1408
      9  O14       64.0150   70.2850   67.6440 O.3   1630  R711630    -0.4754
     10  C15       64.3350   69.4070   66.5670 C.3   1630  R711630     0.2054
     11  C16       63.1820   69.4280   65.5630 C.3   1630  R711630     0.0473
     12  C17       63.2180   70.7640   64.8040 C.3   1630  R711630     0.0039
     13  C18       63.9320   70.5690   63.4590 C.3   1630  R711630     0.0016
     14  C19       62.9600   69.9330   62.4620 C.3   1630  R711630     0.0173
     15  C20       62.1340   71.0350   61.7900 C.3   1630  R711630     0.0724
     16  N24       62.6720   71.3680   60.4710 N.3   1630  R711630    -0.2678
     17  C27       62.9220   72.8100   60.3860 C.3   1630  R711630     0.0899
     18  C25       61.7140   70.9600   59.4190 C.3   1630  R711630     0.0989
     19  C26       61.8200   69.5030   59.0230 C.2   1630  R711630    -0.0088
     20  C29       62.9840   68.9610   58.6510 C.2   1630  R711630    -0.0035
     21  C3        65.8920   71.6460   68.3920 C.ar  1630  R711630     0.0368
     22  C2        66.9320   71.8870   69.3160 C.ar  1630  R711630     0.0038
     23  C13       70.2580   72.9100   71.6960 C.ar  1630  R711630    -0.0010
     24  C12       70.8300   74.1720   71.9960 C.ar  1630  R711630     0.0065
     25  C11       70.0010   75.2760   72.3040 C.ar  1630  R711630     0.0345
     26 BR23       70.7820   76.9130   72.7140 Br    1630  R711630    -0.0490
     27  C10       68.5790   75.1180   72.3090 C.ar  1630  R711630     0.0065
     28  C9        68.0040   73.8470   72.0070 C.ar  1630  R711630    -0.0010
@<TRIPOS>BOND
     1    20    19    2
     2    19    18    1
     3    18    16    1
     4    17    16    1
     5    16    15    1
     6    15    14    1
     7    14    13    1
     8    13    12    1
     9    12    11    1
    10    11    10    1
    11    10     9    1
    12     9     8    1
    13    21     8   ar
    14    21    22   ar
    15     8     7   ar
    16    22     4   ar
    17     7     5   ar
    18     4     5   ar
    19     4     2    1
    20     5     6    1
    21     2     1    1
    22     2     3    1
    23    23     1   ar
    24    23    24   ar
    25     1    28   ar
    26    24    25   ar
    27    28    27   ar
    28    25    27   ar
    29    25    26    1
