@<TRIPOS>MOLECULE
1gt1_PRZ_A_1.pdb
 12 12 0 0 0
SMALL
GASTEIGER

@<TRIPOS>ATOM
      1  N1         0.6780   -2.6850    8.8000 N.ar  1160  PRZ1160    -0.2418
      2  C2         0.0620   -1.7990    7.9680 C.ar  1160  PRZ1160     0.1119
      3  C3        -1.2190   -1.3070    8.3340 C.ar  1160  PRZ1160     0.2389
      4  N4        -1.7790   -1.7940    9.5840 N.ar  1160  PRZ1160    -0.2075
      5  C5        -1.0700   -2.7590   10.4530 C.ar  1160  PRZ1160     0.1227
      6  C6         0.2190   -3.2200   10.0320 C.ar  1160  PRZ1160     0.1193
      7  C21        0.9480   -1.4370    6.6280 C.3   1160  PRZ1160     0.0506
      8  C22        0.7030   -0.1580    5.5850 C.3   1160  PRZ1160     0.0061
      9  C23        1.7020   -0.2120    4.6150 C.3   1160  PRZ1160     0.0004
     10  C24       -0.4650   -0.2930    4.9160 C.3   1160  PRZ1160     0.0004
     11  O31       -1.7800   -0.4900    7.5620 O.3   1160  PRZ1160    -0.4553
     12  C31       -3.0700    0.0540    7.8590 C.3   1160  PRZ1160     0.2543
@<TRIPOS>BOND
     1     9     8    1
     2    10     8    1
     3     8     7    1
     4     7     2    1
     5    11    12    1
     6    11     3    1
     7     2     3   ar
     8     2     1   ar
     9     3     4   ar
    10     1     6   ar
    11     4     5   ar
    12     6     5   ar
