@<TRIPOS>MOLECULE
1gt1_ANC_A_1.pdb
 15 17 0 0 0
SMALL
GASTEIGER

@<TRIPOS>ATOM
      1  C1         0.5250   -0.6460    5.5240 C.ar  1161  ANC1161     0.0013
      2  C2         1.2540   -0.2730    4.4290 C.ar  1161  ANC1161     0.0001
      3  C3        -0.8690   -0.3490    5.6230 C.ar  1161  ANC1161     0.0168
      4  C4         0.6170    0.4430    3.3280 C.ar  1161  ANC1161     0.0014
      5  C5        -1.5200    0.3530    4.5620 C.ar  1161  ANC1161     0.0891
      6  C6        -0.7990    0.7510    3.4240 C.ar  1161  ANC1161     0.0181
      7  C7        -1.0660   -2.5210    9.9950 C.ar  1161  ANC1161     0.0000
      8  C8         0.2980   -2.8340    9.9370 C.ar  1161  ANC1161     0.0000
      9  C9        -1.7090   -1.8260    8.9450 C.ar  1161  ANC1161     0.0000
     10  C10        1.0110   -2.4360    8.8030 C.ar  1161  ANC1161     0.0000
     11  C11       -1.0110   -1.4370    7.8350 C.ar  1161  ANC1161     0.0000
     12  C12        0.3700   -1.7330    7.7390 C.ar  1161  ANC1161     0.0000
     13  C13        1.2090   -1.3390    6.5470 C.ar  1161  ANC1161     0.0000
     14  C14       -1.7260   -0.6900    6.7180 C.ar  1161  ANC1161     0.0013
     15  N1        -2.9900    0.6930    4.6210 N.pl3 1161  ANC1161    -0.1281
@<TRIPOS>BOND
     1     4     6   ar
     2     4     2   ar
     3     6     5   ar
     4     2     1   ar
     5     5    15    1
     6     5     3   ar
     7     1     3   ar
     8     1    13   ar
     9     3    14   ar
    10    13    12   ar
    11    14    11   ar
    12    12    11   ar
    13    12    10   ar
    14    11     9   ar
    15    10     8   ar
    16     9     7   ar
    17     8     7   ar
