@<TRIPOS>MOLECULE
1gt3_3OL_B_1.pdb
 10 9 0 0 0
SMALL
GASTEIGER

@<TRIPOS>ATOM
      1  C1        28.5730   18.5030   20.8160 C.2   1158  3OL1158    -0.0235
      2  C2        27.5090   17.5770   20.5430 C.3   1158  3OL1158     0.0589
      3  C3        26.5350   17.8140   19.4490 C.3   1158  3OL1158     0.1563
      4  O1        25.5560   16.6730   19.4210 O.3   1158  3OL1158    -0.2228
      5  C4        25.7990   19.1270   19.5920 C.3   1158  3OL1158     0.0332
      6  C5        24.6890   19.3230   18.6050 C.3   1158  3OL1158     0.0026
      7  C6        24.0220   20.6550   18.8370 C.3   1158  3OL1158     0.0001
      8  C7        22.8910   20.9050   17.8810 C.3   1158  3OL1158     0.0000
      9  C8        22.2490   22.2050   18.1190 C.3   1158  3OL1158     0.0000
     10  C1        28.5150   19.3630   20.7140 C.2   1158  3OL1158    -0.0048
@<TRIPOS>BOND
     1     8     9    1
     2     8     7    1
     3     6     7    1
     4     6     5    1
     5     4     3    1
     6     3     5    1
     7     3     2    1
     8     2     1    1
     9    10     1    2
