@<TRIPOS>MOLECULE
1gt3_DHM_A_1.pdb
 11 10 0 0 0
SMALL
GASTEIGER

@<TRIPOS>ATOM
      1  C7        -0.7240   -2.6430    9.7040 C.3   1160  DHM1160     0.0000
      2  C6        -0.4720   -1.8490    8.5330 C.3   1160  DHM1160     0.0000
      3  C5         0.2670   -2.3320    7.3310 C.3   1160  DHM1160     0.0000
      4  C4         0.3680   -1.2400    6.2810 C.3   1160  DHM1160     0.0001
      5  C3        -0.9000   -1.0280    5.5050 C.3   1160  DHM1160     0.0025
      6  C2        -0.8590    0.3050    4.8190 C.3   1160  DHM1160     0.0304
      7  C1        -1.8940    0.4780    3.7070 C.3   1160  DHM1160     0.1268
      8  C8        -1.2740    1.1300    2.5510 C.3   1160  DHM1160     0.0329
      9  C9        -2.9800    1.3770    4.2100 C.3   1160  DHM1160     0.0329
     10  C10        1.6520   -2.7400    7.7470 C.3   1160  DHM1160     0.0000
     11  O1        -2.5570   -0.7850    3.1920 O.3   1160  DHM1160    -0.2257
@<TRIPOS>BOND
     1     8     7    1
     2    11     7    1
     3     7     9    1
     4     7     6    1
     5     6     5    1
     6     5     4    1
     7     4     3    1
     8     3    10    1
     9     3     2    1
    10     2     1    1
