@<TRIPOS>MOLECULE
1gt4_UNA_A_1.pdb
 12 11 0 0 0
SMALL
GASTEIGER

@<TRIPOS>ATOM
      1  C11        0.3270   -0.6110    4.0530 C.3   1160  UNA1160     0.0000
      2  C10        0.7400    0.7480    4.0240 C.3   1160  UNA1160     0.0000
      3  C9        -0.4410    1.4870    3.4850 C.3   1160  UNA1160     0.0000
      4  C8        -1.2870    0.9060    2.3390 C.3   1160  UNA1160     0.0000
      5  C7        -2.0830   -0.3720    2.4620 C.3   1160  UNA1160     0.0000
      6  C6        -3.3270   -0.4150    3.3690 C.3   1160  UNA1160     0.0000
      7  C5        -3.0150   -0.7000    4.8570 C.3   1160  UNA1160     0.0000
      8  C4        -1.7760   -0.1000    5.6070 C.3   1160  UNA1160     0.0005
      9  C3        -1.8700   -0.1860    7.0830 C.3   1160  UNA1160     0.0082
     10  C2        -0.4990   -0.4690    7.5560 C.3   1160  UNA1160     0.0722
     11  C1        -0.1480   -1.8300    7.4530 C.2   1160  UNA1160     0.2074
     12  O1        -0.4070   -2.5440    8.4170 O.2   1160  UNA1160    -0.2883
@<TRIPOS>BOND
     1     4     5    1
     2     4     3    1
     3     5     6    1
     4     6     7    1
     5     3     2    1
     6     2     1    1
     7     7     8    1
     8     8     9    1
     9     9    10    1
    10    11    10    1
    11    11    12    2
