@<TRIPOS>MOLECULE
1gt5_BZQ_A_1.pdb
 14 15 0 0 0
SMALL
GASTEIGER

@<TRIPOS>ATOM
      1  C1        -0.1140    0.5560    2.9820 C.ar  1160  BZQ1160    -0.0002
      2  C2        -1.5400    0.3940    2.8730 C.ar  1160  BZQ1160    -0.0000
      3  C3        -2.2670   -0.1870    3.9430 C.ar  1160  BZQ1160    -0.0002
      4  C4        -1.5650   -0.6050    5.1190 C.ar  1160  BZQ1160    -0.0015
      5  C5        -0.1380   -0.4520    5.2400 C.ar  1160  BZQ1160     0.0119
      6  C6         0.5570    0.1360    4.1510 C.ar  1160  BZQ1160    -0.0015
      7  C7         0.6590   -0.8800    6.4570 C.3   1160  BZQ1160     0.1966
      8  C8        -1.0690   -1.0880    8.3280 C.ar  1160  BZQ1160    -0.0015
      9  C9         0.1280   -1.5230    7.7300 C.ar  1160  BZQ1160     0.0119
     10  C10        0.8500   -2.5770    8.3550 C.ar  1160  BZQ1160    -0.0015
     11  C11        0.3750   -3.1650    9.5360 C.ar  1160  BZQ1160    -0.0002
     12  C12       -0.8180   -2.7200   10.1140 C.ar  1160  BZQ1160    -0.0000
     13  C13       -1.5510   -1.6710    9.5060 C.ar  1160  BZQ1160    -0.0002
     14  O          2.0550   -0.6750    6.4300 O.3   1160  BZQ1160    -0.2134
@<TRIPOS>BOND
     1     2     1   ar
     2     2     3   ar
     3     1     6   ar
     4     3     4   ar
     5     6     5   ar
     6     4     5   ar
     7     5     7    1
     8    14     7    1
     9     7     9    1
    10     9     8   ar
    11     9    10   ar
    12     8    13   ar
    13    10    11   ar
    14    13    12   ar
    15    11    12   ar
