@<TRIPOS>MOLECULE
1gt6_OLA_A_1.pdb
 20 19 0 0 0
SMALL
GASTEIGER

@<TRIPOS>ATOM
      1  C1        13.5060   43.0520    3.0200 C.2   1270  OLA1270     0.3649
      2  O1        13.5690   41.7170    2.5700 O.co2 1270  OLA1270    -0.2457
      3  O2        13.4130   44.0220    2.1440 O.co2 1270  OLA1270    -0.2457
      4  C2        13.5190   43.3470    4.4970 C.3   1270  OLA1270     0.1141
      5  C3        14.3440   44.5920    4.7760 C.3   1270  OLA1270     0.0118
      6  C4        13.6840   45.4330    5.8530 C.3   1270  OLA1270     0.0006
      7  C5        14.6190   45.6850    7.0200 C.3   1270  OLA1270     0.0000
      8  C6        13.7970   46.0880    8.2370 C.3   1270  OLA1270     0.0000
      9  C7        14.6580   46.4550    9.4490 C.3   1270  OLA1270     0.0003
     10  C8        13.8290   47.0490   10.5860 C.3   1270  OLA1270     0.0047
     11  C9        14.7550   47.7230   11.4680 C.3   1270  OLA1270     0.0257
     12  C10       14.5930   49.1000   11.9680 C.2   1270  OLA1270    -0.0307
     13  C11       14.0180   50.2750   11.1960 C.2   1270  OLA1270    -0.0307
     14  C12       13.5490   49.9610    9.7770 C.3   1270  OLA1270     0.0257
     15  C13       13.2380   51.2600    9.0360 C.3   1270  OLA1270     0.0047
     16  C14       12.6440   51.0150    7.6520 C.3   1270  OLA1270     0.0003
     17  C15       12.4560   52.3240    6.8890 C.3   1270  OLA1270     0.0000
     18  C16       11.8850   52.0760    5.4950 C.3   1270  OLA1270     0.0000
     19  C17       11.7100   53.3790    4.7230 C.3   1270  OLA1270     0.0000
     20  C18       11.1510   53.1200    3.3280 C.3   1270  OLA1270     0.0000
@<TRIPOS>BOND
     1     3     1   ar
     2     2     1   ar
     3     1     4    1
     4    20    19    1
     5     4     5    1
     6    19    18    1
     7     5     6    1
     8    18    17    1
     9     6     7    1
    10    17    16    1
    11     7     8    1
    12    16    15    1
    13     8     9    1
    14    15    14    1
    15     9    10    1
    16    14    13    1
    17    10    11    1
    18    13    12    2
    19    11    12    1
