@<TRIPOS>MOLECULE
1gt7_PGH_A_1.pdb
 10 9 0 0 0
SMALL
GASTEIGER

@<TRIPOS>ATOM
      1  C1       -24.5830   65.2480   68.9350 C.2   300  PGH300      0.1177
      2  C2       -23.4680   65.4250   69.8940 C.3   300  PGH300      0.2044
      3  N2       -24.8230   66.2810   68.1790 N.am  300  PGH300     -0.2004
      4  O2       -25.7690   66.2240   67.1790 O.3   300  PGH300     -0.4026
      5  O1       -25.1380   64.1690   68.9220 O.2   300  PGH300     -0.5374
      6  O1P      -23.3890   66.6880   70.5040 O.3   300  PGH300     -0.2633
      7  O2P      -24.4930   67.0550   72.8560 O.3   300  PGH300     -0.1145
      8  O3P      -22.0570   65.6610   72.8860 O.3   300  PGH300     -0.1145
      9  O4P      -22.3030   68.3530   72.2680 O.2   300  PGH300     -0.2224
     10  P        -23.0040   66.8580   72.2610 P.3   300  PGH300      0.5330
@<TRIPOS>BOND
     1     4     3    1
     2     3     1   am
     3     5     1    2
     4     1     2    1
     5     2     6    1
     6     6    10    1
     7    10     9    2
     8    10     7    1
     9    10     8    1
