@<TRIPOS>MOLECULE
1gt8_NDP_A_1.pdb
 48 52 0 0 0
SMALL
GASTEIGER

@<TRIPOS>ATOM
      1  PA        41.8100   65.3600  112.2620 P.3   1032  NDP1032     0.2189
      2  O1A       42.0630   64.8440  110.9500 O.2   1032  NDP1032    -0.5170
      3  O2A       40.5700   65.4250  113.0980 O.3   1032  NDP1032    -0.4371
      4  O5B       43.0640   64.6630  113.0390 O.3   1032  NDP1032    -0.3112
      5  C5B       43.1970   64.8070  114.4310 C.3   1032  NDP1032     0.1813
      6  C4B       44.4710   64.0170  114.7290 C.3   1032  NDP1032     0.1820
      7  O4B       44.5940   64.0660  116.1700 O.3   1032  NDP1032    -0.3136
      8  C3B       44.5400   62.5730  114.3140 C.3   1032  NDP1032     0.2157
      9  O3B       45.8930   62.2310  113.9090 O.3   1032  NDP1032    -0.2175
     10  C2B       44.1770   61.8240  115.5330 C.3   1032  NDP1032     0.2314
     11  O2B       44.5380   60.4490  115.6900 O.3   1032  NDP1032    -0.2630
     12  C1B       44.7220   62.7090  116.5790 C.3   1032  NDP1032     0.3158
     13  N9A       44.0350   62.4080  117.8410 N.pl3 1032  NDP1032    -0.1439
     14  C8A       42.6840   62.6260  118.1800 C.3   1032  NDP1032     0.3377
     15  N7A       42.4410   62.2110  119.4020 N.2   1032  NDP1032    -0.2095
     16  C5A       43.6240   61.7130  119.8890 C.2   1032  NDP1032     0.2526
     17  C6A       44.0150   61.1280  121.1060 C.2   1032  NDP1032     0.4393
     18  N6A       43.1230   60.9690  122.0840 N.pl3 1032  NDP1032     0.2180
     19  N1A       45.3010   60.7330  121.2700 N.2   1032  NDP1032     0.0021
     20  C2A       46.1910   60.8980  120.2700 C.3   1032  NDP1032     0.5254
     21  N3A       45.9190   61.4360  119.0820 N.2   1032  NDP1032    -0.0055
     22  C4A       44.6040   61.8260  118.9520 C.2   1032  NDP1032     0.3518
     23  O3        42.0890   66.7980  111.7660 O.3   1032  NDP1032    -0.2703
     24  PN        42.8930   68.1380  111.8440 P.3   1032  NDP1032     0.2189
     25  O1N       44.2320   67.5750  111.7680 O.2   1032  NDP1032    -0.5170
     26  O2N       42.6710   68.9420  113.0900 O.3   1032  NDP1032    -0.4371
     27  O5D       42.0830   68.7860  110.6260 O.3   1032  NDP1032    -0.3112
     28  C5D       40.6410   69.1330  110.7040 C.3   1032  NDP1032     0.1813
     29  C4D       39.9330   68.9130  109.3030 C.3   1032  NDP1032     0.1799
     30  O4D       40.6290   69.6720  108.3370 O.3   1032  NDP1032    -0.3327
     31  C3D       40.0060   67.4600  108.8150 C.3   1032  NDP1032     0.2158
     32  O3D       38.7870   67.1410  108.1330 O.3   1032  NDP1032    -0.2175
     33  C2D       41.2450   67.4120  107.9490 C.3   1032  NDP1032     0.2309
     34  O2D       41.2350   66.3160  107.0250 O.3   1032  NDP1032    -0.2158
     35  C1D       41.1550   68.8360  107.2880 C.3   1032  NDP1032     0.2263
     36  N1N       42.5030   69.3140  106.9210 N.pl3 1032  NDP1032    -0.2787
     37  C2N       42.8370   69.1950  105.5580 C.3   1032  NDP1032     0.1244
     38  C3N       44.1280   69.7120  105.1670 C.2   1032  NDP1032     0.0544
     39  C7N       44.5520   69.6350  103.7750 C.2   1032  NDP1032     0.2818
     40  O7N       45.6870   70.0000  103.3870 O.2   1032  NDP1032    -0.2670
     41  N7N       43.7010   69.1640  102.8340 N.am  1032  NDP1032    -0.0839
     42  C4N       44.9460   70.2820  106.1380 C.2   1032  NDP1032     0.0033
     43  C5N       44.5930   70.3780  107.4560 C.2   1032  NDP1032     0.0157
     44  C6N       43.3730   69.8930  107.8520 C.2   1032  NDP1032     0.0633
     45  P2B       44.0980   59.2920  114.7790 P.3   1032  NDP1032     0.5328
     46  O1X       44.4960   58.1110  115.5440 O.3   1032  NDP1032    -0.1145
     47  O2X       44.7960   59.3980  113.4690 O.2   1032  NDP1032    -0.2224
     48  O3X       42.5910   59.3410  114.6060 O.3   1032  NDP1032    -0.1145
@<TRIPOS>BOND
     1    41    39   am
     2    40    39    2
     3    39    38    1
     4    38    37    1
     5    38    42    2
     6    37    36    1
     7    42    43    1
     8    36    35    1
     9    36    44    1
    10    34    33    1
    11    35    33    1
    12    35    30    1
    13    43    44    2
    14    33    31    1
    15    32    31    1
    16    30    29    1
    17    31    29    1
    18    29    28    1
    19    27    28    1
    20    27    24    1
    21     2     1    2
    22    23    24    1
    23    23     1    1
    24    25    24    2
    25    24    26    1
    26     1     4    1
    27     1     3    1
    28     4     5    1
    29    47    45    2
    30     9     8    1
    31     8     6    1
    32     8    10    1
    33     5     6    1
    34    48    45    1
    35     6     7    1
    36    45    46    1
    37    45    11    1
    38    10    11    1
    39    10    12    1
    40     7    12    1
    41    12    13    1
    42    13    14    1
    43    13    22    1
    44    14    15    1
    45    22    21    2
    46    22    16    1
    47    21    20    1
    48    15    16    2
    49    16    17    1
    50    20    19    1
    51    17    19    2
    52    17    18    1
