@<TRIPOS>MOLECULE
1gt8_UAA_A_1.pdb
 12 12 0 0 0
SMALL
GASTEIGER

@<TRIPOS>ATOM
      1  O2        44.8760   75.7500   49.4020 O.2   1035  UAA1035    -0.1745
      2  N3        44.3300   73.7160   48.5860 N.2   1035  UAA1035    -0.2366
      3  C4        44.3170   72.3540   48.5590 C.1   1035  UAA1035     0.2004
      4  C5        45.0500   71.7310   49.6390 C.3   1035  UAA1035     0.1912
      5  C6        45.6840   72.5340   50.5770 C.2   1035  UAA1035     0.1312
      6  C7        46.4830   71.9240   51.7200 C.3   1035  UAA1035     0.1704
      7  C8        47.9520   71.7330   51.3760 C.2   1035  UAA1035     0.3717
      8  O8A       48.4160   71.9950   50.2790 O.co2 1035  UAA1035    -0.2452
      9  O8B       48.7740   71.2670   52.3290 O.co2 1035  UAA1035    -0.2452
     10  O4        43.7340   71.7080   47.6950 O.2   1035  UAA1035    -0.2129
     11  C2        44.9390   74.5400   49.4890 C.1   1035  UAA1035     0.3646
     12  N1        45.6200   73.9210   50.4870 N.2   1035  UAA1035    -0.3151
@<TRIPOS>BOND
     1    10     3    2
     2     3     2    2
     3     3     4    1
     4     2    11    2
     5     1    11    2
     6    11    12    2
     7     4     5    1
     8     8     7   ar
     9    12     5    2
    10     5     6    1
    11     7     6    1
    12     7     9   ar
