@<TRIPOS>MOLECULE
1gt8_FMN_A_1.pdb
 31 33 0 0 0
SMALL
GASTEIGER

@<TRIPOS>ATOM
      1  N1        43.3880   76.1120   52.4180 N.2   1030  FMN1030    -0.2890
      2  C2        42.5050   76.3430   51.3970 C.1   1030  FMN1030     0.3669
      3  O2        42.3770   77.4210   50.8620 O.2   1030  FMN1030    -0.1744
      4  N3        41.7440   75.2270   51.0010 N.2   1030  FMN1030    -0.2300
      5  C4        41.7970   73.9380   51.5370 C.1   1030  FMN1030     0.2513
      6  O4        41.0380   73.0800   51.0520 O.2   1030  FMN1030    -0.2057
      7  C4A       42.7700   73.8280   52.6220 C.2   1030  FMN1030     0.2700
      8  N5        42.8680   72.5700   53.2060 N.2   1030  FMN1030    -0.3878
      9  C5A       43.7470   72.3560   54.2630 C.2   1030  FMN1030     0.1320
     10  C6        43.7950   71.0830   54.8080 C.2   1030  FMN1030     0.0250
     11  C7        44.6880   70.8480   55.8890 C.2   1030  FMN1030    -0.0238
     12  C7M       44.7680   69.4140   56.5590 C.3   1030  FMN1030     0.0308
     13  C8        45.5360   71.9150   56.3730 C.2   1030  FMN1030    -0.0280
     14  C8M       46.5080   71.6780   57.5410 C.3   1030  FMN1030     0.0304
     15  C9        45.4780   73.1750   55.8110 C.2   1030  FMN1030    -0.0041
     16  C9A       44.6100   73.4260   54.7410 C.3   1030  FMN1030     0.1497
     17  N10       44.4900   74.7420   54.1230 N.pl3 1030  FMN1030    -0.2691
     18  C10       43.5920   74.9270   53.0730 C.2   1030  FMN1030     0.2416
     19  C1'       45.2440   75.8240   54.5030 C.3   1030  FMN1030     0.1294
     20  C2'       44.5910   76.6080   55.6710 C.3   1030  FMN1030     0.2044
     21  O2'       43.3420   77.2080   55.4460 O.3   1030  FMN1030    -0.2185
     22  C3'       45.5420   77.6180   56.3330 C.3   1030  FMN1030     0.2164
     23  O3'       45.5300   78.6680   55.3610 O.3   1030  FMN1030    -0.2175
     24  C4'       46.9670   76.9830   56.5910 C.3   1030  FMN1030     0.2147
     25  O4'       47.0260   75.7390   57.2400 O.3   1030  FMN1030    -0.2176
     26  C5'       47.8210   78.0490   57.2610 C.3   1030  FMN1030     0.1892
     27  O5'       47.1780   78.4120   58.5440 O.3   1030  FMN1030    -0.2674
     28  P         47.3180   77.6870   59.9680 P.3   1030  FMN1030     0.5327
     29  O1P       46.8450   76.2860   59.7470 O.2   1030  FMN1030    -0.2224
     30  O2P       48.7670   77.7730   60.2800 O.3   1030  FMN1030    -0.1145
     31  O3P       46.5000   78.4370   60.9440 O.3   1030  FMN1030    -0.1145
@<TRIPOS>BOND
     1     3     2    2
     2     4     2    2
     3     4     5    2
     4     6     5    2
     5     2     1    2
     6     5     7    1
     7     1    18    2
     8     7    18    1
     9     7     8    2
    10    18    17    1
    11     8     9    2
    12    17    19    1
    13    17    16    1
    14     9    16    1
    15     9    10    1
    16    19    20    1
    17    16    15    1
    18    10    11    2
    19    23    22    1
    20    21    20    1
    21    20    22    1
    22    15    13    2
    23    11    13    1
    24    11    12    1
    25    22    24    1
    26    13    14    1
    27    24    25    1
    28    24    26    1
    29    26    27    1
    30    27    28    1
    31    29    28    2
    32    28    30    1
    33    28    31    1
