@<TRIPOS>MOLECULE
1gtb_PZQ_A_1.pdb
 23 26 0 0 0
SMALL
GASTEIGER

@<TRIPOS>ATOM
      1  C1        25.2970   43.0630   38.5950 C.2   901  PZQ901      0.2256
      2  C2        22.9000   40.5690   40.4800 C.3   901  PZQ901      0.0005
      3  C3        23.6180   41.9040   40.1620 C.3   901  PZQ901      0.0091
      4  C4        24.4690   41.8030   38.8610 C.3   901  PZQ901      0.0767
      5  C5        23.6580   41.2550   37.6580 C.3   901  PZQ901      0.0091
      6  C6        22.9560   39.9160   38.0110 C.3   901  PZQ901      0.0005
      7  C7        26.8830   43.6110   31.1760 C.ar  901  PZQ901     -0.0003
      8  C8        26.5050   44.8660   31.5780 C.ar  901  PZQ901     -0.0045
      9  C9        25.9790   46.5910   33.3320 C.3   901  PZQ901      0.0476
     10  C10       26.4070   46.8500   34.7590 C.3   901  PZQ901      0.0984
     11  C11       26.5300   44.2020   33.8770 C.ar  901  PZQ901     -0.0065
     12  C12       26.3310   45.1910   32.9210 C.ar  901  PZQ901     -0.0228
     13  C13       22.0830   40.0450   39.2790 C.3   901  PZQ901      0.0000
     14  C14       25.1130   46.1530   36.6970 C.2   901  PZQ901      0.2462
     15  C15       24.6210   45.0770   37.6120 C.3   901  PZQ901      0.1794
     16  C16       25.4360   43.4450   36.0160 C.3   901  PZQ901      0.1181
     17  C17       26.3610   44.4600   35.3740 C.3   901  PZQ901      0.1174
     18  C18       26.9420   42.9370   33.4630 C.ar  901  PZQ901     -0.0029
     19  C19       27.1080   42.6440   32.1330 C.ar  901  PZQ901     -0.0003
     20  N1        25.3000   43.8200   37.4400 N.am  901  PZQ901     -0.2692
     21  N2        25.8670   45.8140   35.6270 N.am  901  PZQ901     -0.2740
     22  O1        25.9920   43.4130   39.5560 O.2   901  PZQ901     -0.2749
     23  O2        24.7900   47.3120   36.9430 O.2   901  PZQ901     -0.2730
@<TRIPOS>BOND
     1     7     8   ar
     2     7    19   ar
     3     8    12   ar
     4    19    18   ar
     5    12     9    1
     6    12    11   ar
     7     9    10    1
     8    18    11   ar
     9    11    17    1
    10    10    21    1
    11    17    21    1
    12    17    16    1
    13    21    14   am
    14    16    20    1
    15    14    23    2
    16    14    15    1
    17    20    15    1
    18    20     1   am
    19     5     6    1
    20     5     4    1
    21     6    13    1
    22     1     4    1
    23     1    22    2
    24     4     3    1
    25    13     2    1
    26     3     2    1
