@<TRIPOS>MOLECULE
1gte_FMN_A_1.pdb
 31 33 0 0 0
SMALL
GASTEIGER

@<TRIPOS>ATOM
      1  N1        62.2280   44.9030   48.6370 N.2   1030  FMN1030    -0.2890
      2  C2        61.3290   44.4980   47.6850 C.1   1030  FMN1030     0.3669
      3  O2        61.2330   45.0270   46.6020 O.2   1030  FMN1030    -0.1744
      4  N3        60.5100   43.4140   48.0620 N.2   1030  FMN1030    -0.2300
      5  C4        60.5310   42.7340   49.2880 C.1   1030  FMN1030     0.2513
      6  O4        59.7310   41.8000   49.4500 O.2   1030  FMN1030    -0.2057
      7  C4A       61.5310   43.2660   50.2050 C.2   1030  FMN1030     0.2700
      8  N5        61.5970   42.6370   51.4450 N.2   1030  FMN1030    -0.3878
      9  C5A       62.5040   43.0910   52.4070 C.2   1030  FMN1030     0.1320
     10  C6        62.5260   42.4460   53.6220 C.2   1030  FMN1030     0.0250
     11  C7        63.4280   42.9090   54.6050 C.2   1030  FMN1030    -0.0238
     12  C7M       63.4840   42.2130   56.0220 C.3   1030  FMN1030     0.0308
     13  C8        64.3100   44.0200   54.3240 C.2   1030  FMN1030    -0.0280
     14  C8M       65.2910   44.5370   55.3870 C.3   1030  FMN1030     0.0304
     15  C9        64.2830   44.6490   53.1010 C.2   1030  FMN1030    -0.0041
     16  C9A       63.3960   44.2020   52.1150 C.3   1030  FMN1030     0.1497
     17  N10       63.3130   44.8380   50.8160 N.pl3 1030  FMN1030    -0.2691
     18  C10       62.4020   44.3730   49.8850 C.2   1030  FMN1030     0.2416
     19  C1'       64.1160   45.9110   50.4550 C.3   1030  FMN1030     0.1294
     20  C2'       63.4120   47.2450   50.8480 C.3   1030  FMN1030     0.2044
     21  O2'       62.1650   47.5440   50.2560 O.3   1030  FMN1030    -0.2185
     22  C3'       64.3190   48.4850   50.7870 C.3   1030  FMN1030     0.2164
     23  O3'       64.4650   48.6220   49.3620 O.3   1030  FMN1030    -0.2175
     24  C4'       65.6700   48.2410   51.5780 C.3   1030  FMN1030     0.2147
     25  O4'       65.5950   47.6880   52.8750 O.3   1030  FMN1030    -0.2176
     26  C5'       66.4640   49.5490   51.4970 C.3   1030  FMN1030     0.1892
     27  O5'       65.7730   50.5370   52.3650 O.3   1030  FMN1030    -0.2674
     28  P         66.0880   50.8550   53.9110 P.3   1030  FMN1030     0.5327
     29  O1P       65.8520   49.5510   54.6330 O.3   1030  FMN1030    -0.1145
     30  O2P       67.5190   51.2910   53.8920 O.2   1030  FMN1030    -0.2224
     31  O3P       65.1800   51.9370   54.3750 O.3   1030  FMN1030    -0.1145
@<TRIPOS>BOND
     1     3     2    2
     2     2     4    2
     3     2     1    2
     4     4     5    2
     5     1    18    2
     6     5     6    2
     7     5     7    1
     8    23    22    1
     9    18     7    1
    10    18    17    1
    11     7     8    2
    12    21    20    1
    13    19    17    1
    14    19    20    1
    15    22    20    1
    16    22    24    1
    17    17    16    1
    18     8     9    2
    19    26    24    1
    20    26    27    1
    21    24    25    1
    22    16     9    1
    23    16    15    1
    24    27    28    1
    25     9    10    1
    26    15    13    2
    27    10    11    2
    28    30    28    2
    29    28    31    1
    30    28    29    1
    31    13    11    1
    32    13    14    1
    33    11    12    1
