@<TRIPOS>MOLECULE
1gtf_TRP_A_1.pdb
 15 16 0 0 0
SMALL
GASTEIGER

@<TRIPOS>ATOM
      1  N         37.8120  -12.5660   -4.3370 N.3    81  TRP81      -0.1205
      2  CA        37.5700  -11.5690   -3.2860 C.3    81  TRP81       0.1984
      3  C         38.7190  -10.5450   -3.2330 C.2    81  TRP81       0.3822
      4  O         39.8770  -11.0050   -3.3220 O.co2  81  TRP81      -0.2440
      5  CB        37.3920  -12.2990   -1.9460 C.3    81  TRP81       0.0549
      6  CG        37.0900  -11.3750   -0.8140 C.2    81  TRP81      -0.0138
      7  CD1       37.9970  -10.8610    0.0780 C.2    81  TRP81       0.0907
      8  CD2       35.8140  -10.8740   -0.4180 C.3    81  TRP81       0.0819
      9  NE1       37.3670  -10.0480    0.9810 N.2    81  TRP81      -0.2482
     10  CE2       36.0310  -10.0220    0.6990 C.2    81  TRP81       0.0665
     11  CE3       34.5100  -11.0120   -0.9200 C.2    81  TRP81      -0.0164
     12  CZ2       34.9980   -9.3410    1.3470 C.2    81  TRP81       0.0153
     13  CZ3       33.4720  -10.3550   -0.2750 C.2    81  TRP81      -0.0038
     14  CH2       33.7160   -9.5370    0.8690 C.2    81  TRP81       0.0009
     15  OXT       38.4800   -9.3310   -3.1030 O.co2  81  TRP81      -0.2440
@<TRIPOS>BOND
     1     1     2    1
     2     4     3   ar
     3     2     3    1
     4     2     5    1
     5     3    15   ar
     6     5     6    1
     7    11     8    1
     8    11    13    2
     9     6     8    1
    10     6     7    2
    11     8    10    1
    12    13    14    1
    13     7     9    1
    14    10     9    2
    15    10    12    1
    16    14    12    2
