@<TRIPOS>MOLECULE
1gth_NDP_A_1.pdb
 48 52 0 0 0
SMALL
GASTEIGER

@<TRIPOS>ATOM
      1  PA        41.5090   64.5170  112.9320 P.3   1032  NDP1032     0.2189
      2  O1A       41.7670   63.9820  111.6220 O.2   1032  NDP1032    -0.5170
      3  O2A       40.1880   64.4110  113.6460 O.3   1032  NDP1032    -0.4371
      4  O5B       42.6990   63.8700  113.8690 O.3   1032  NDP1032    -0.3112
      5  C5B       42.7770   64.0500  115.2810 C.3   1032  NDP1032     0.1813
      6  C4B       44.0090   63.1950  115.6090 C.3   1032  NDP1032     0.1820
      7  O4B       44.1650   63.1980  117.0580 O.3   1032  NDP1032    -0.3136
      8  C3B       43.9970   61.7530  115.1530 C.3   1032  NDP1032     0.2157
      9  O3B       45.3110   61.3780  114.6630 O.3   1032  NDP1032    -0.2175
     10  C2B       43.6710   60.9580  116.3700 C.3   1032  NDP1032     0.2314
     11  O2B       44.0580   59.5700  116.4590 O.3   1032  NDP1032    -0.2630
     12  C1B       44.2460   61.8210  117.4320 C.3   1032  NDP1032     0.3158
     13  N9A       43.5790   61.5340  118.7260 N.pl3 1032  NDP1032    -0.1439
     14  C8A       42.2460   61.7970  119.1160 C.3   1032  NDP1032     0.3377
     15  N7A       42.0310   61.3910  120.3500 N.2   1032  NDP1032    -0.2095
     16  C5A       43.2060   60.8540  120.7950 C.2   1032  NDP1032     0.2526
     17  C6A       43.6250   60.2640  122.0080 C.2   1032  NDP1032     0.4393
     18  N6A       42.7730   60.1430  123.0160 N.pl3 1032  NDP1032     0.2180
     19  N1A       44.9010   59.8230  122.1300 N.2   1032  NDP1032     0.0021
     20  C2A       45.7650   59.9510  121.0960 C.3   1032  NDP1032     0.5254
     21  N3A       45.4720   60.4930  119.9090 N.2   1032  NDP1032    -0.0055
     22  C4A       44.1610   60.9340  119.8220 C.2   1032  NDP1032     0.3518
     23  O3        41.6880   66.0560  112.7390 O.3   1032  NDP1032    -0.2703
     24  PN        42.4430   67.3970  113.0700 P.3   1032  NDP1032     0.2189
     25  O1N       43.8550   67.1800  112.7390 O.2   1032  NDP1032    -0.5170
     26  O2N       42.0450   67.7220  114.4640 O.3   1032  NDP1032    -0.4371
     27  O5D       41.5790   68.3550  112.0850 O.3   1032  NDP1032    -0.3112
     28  C5D       40.0920   68.3140  112.0410 C.3   1032  NDP1032     0.1813
     29  C4D       39.5500   68.2700  110.5560 C.3   1032  NDP1032     0.1799
     30  O4D       40.2990   69.1750  109.7580 O.3   1032  NDP1032    -0.3327
     31  C3D       39.7150   66.8940  109.8890 C.3   1032  NDP1032     0.2158
     32  O3D       38.5050   66.5240  109.2220 O.3   1032  NDP1032    -0.2175
     33  C2D       40.8820   67.0410  108.9560 C.3   1032  NDP1032     0.2309
     34  O2D       40.7960   66.1170  107.8840 O.3   1032  NDP1032    -0.2158
     35  C1D       40.7110   68.5500  108.5350 C.3   1032  NDP1032     0.2263
     36  N1N       42.0140   69.1020  108.1230 N.pl3 1032  NDP1032    -0.2787
     37  C2N       42.2900   69.0270  106.7430 C.3   1032  NDP1032     0.1244
     38  C3N       43.5750   69.5420  106.3170 C.2   1032  NDP1032     0.0544
     39  C7N       43.9330   69.4990  104.8990 C.2   1032  NDP1032     0.2818
     40  O7N       43.0970   69.3280  103.9840 O.2   1032  NDP1032    -0.2670
     41  N7N       45.2230   69.6570  104.5310 N.am  1032  NDP1032    -0.0839
     42  C4N       44.4430   70.0730  107.2780 C.2   1032  NDP1032     0.0033
     43  C5N       44.1420   70.1310  108.6190 C.2   1032  NDP1032     0.0157
     44  C6N       42.9320   69.6490  109.0470 C.2   1032  NDP1032     0.0633
     45  P2B       43.6060   58.4150  115.5300 P.3   1032  NDP1032     0.5328
     46  O1X       44.3000   57.2500  116.0950 O.3   1032  NDP1032    -0.1145
     47  O2X       44.0120   58.7130  114.1290 O.2   1032  NDP1032    -0.2224
     48  O3X       42.0890   58.2560  115.6310 O.3   1032  NDP1032    -0.1145
@<TRIPOS>BOND
     1    40    39    2
     2    41    39   am
     3    39    38    1
     4    38    37    1
     5    38    42    2
     6    37    36    1
     7    42    43    1
     8    34    33    1
     9    36    35    1
    10    36    44    1
    11    35    33    1
    12    35    30    1
    13    43    44    2
    14    33    31    1
    15    32    31    1
    16    30    29    1
    17    31    29    1
    18    29    28    1
    19     2     1    2
    20    28    27    1
    21    27    24    1
    22    25    24    2
    23    23     1    1
    24    23    24    1
    25     1     3    1
    26     1     4    1
    27    24    26    1
    28     4     5    1
    29    47    45    2
    30     9     8    1
    31     8     6    1
    32     8    10    1
    33     5     6    1
    34    45    48    1
    35    45    46    1
    36    45    11    1
    37     6     7    1
    38    10    11    1
    39    10    12    1
    40     7    12    1
    41    12    13    1
    42    13    14    1
    43    13    22    1
    44    14    15    1
    45    22    21    2
    46    22    16    1
    47    21    20    1
    48    15    16    2
    49    16    17    1
    50    20    19    1
    51    17    19    2
    52    17    18    1
