@<TRIPOS>MOLECULE
1gth_FMN_A_1.pdb
 31 33 0 0 0
SMALL
GASTEIGER

@<TRIPOS>ATOM
      1  N1        42.5760   77.5430   53.6530 N.2   1030  FMN1030    -0.2890
      2  C2        41.6700   77.8410   52.6750 C.1   1030  FMN1030     0.3669
      3  O2        41.5640   78.9360   52.1870 O.2   1030  FMN1030    -0.1744
      4  N3        40.8540   76.7720   52.2740 N.2   1030  FMN1030    -0.2300
      5  C4        40.8510   75.4430   52.7510 C.1   1030  FMN1030     0.2513
      6  O4        40.0710   74.5770   52.3230 O.2   1030  FMN1030    -0.2057
      7  C4A       41.8770   75.2710   53.8030 C.2   1030  FMN1030     0.2700
      8  N5        41.9530   73.9890   54.3650 N.2   1030  FMN1030    -0.3878
      9  C5A       42.8670   73.7170   55.3870 C.2   1030  FMN1030     0.1320
     10  C6        42.8870   72.4370   55.9210 C.2   1030  FMN1030     0.0250
     11  C7        43.8050   72.1650   56.9770 C.2   1030  FMN1030    -0.0238
     12  C7M       43.8750   70.7230   57.6380 C.3   1030  FMN1030     0.0308
     13  C8        44.6850   73.2040   57.4630 C.2   1030  FMN1030    -0.0280
     14  C8M       45.6750   72.9280   58.6110 C.3   1030  FMN1030     0.0304
     15  C9        44.6560   74.4690   56.9150 C.2   1030  FMN1030    -0.0041
     16  C9A       43.7560   74.7610   55.8760 C.3   1030  FMN1030     0.1497
     17  N10       43.6770   76.0860   55.2740 N.pl3 1030  FMN1030    -0.2691
     18  C10       42.7530   76.3290   54.2670 C.2   1030  FMN1030     0.2416
     19  C1'       44.4850   77.1370   55.6750 C.3   1030  FMN1030     0.1294
     20  C2'       43.8170   77.9300   56.8280 C.3   1030  FMN1030     0.2044
     21  O2'       42.5790   78.5610   56.5590 O.3   1030  FMN1030    -0.2185
     22  C3'       44.7770   78.9040   57.5560 C.3   1030  FMN1030     0.2164
     23  O3'       44.9550   79.9150   56.5410 O.3   1030  FMN1030    -0.2175
     24  C4'       46.1240   78.1770   57.9960 C.3   1030  FMN1030     0.2147
     25  O4'       46.0440   76.9380   58.6730 O.3   1030  FMN1030    -0.2176
     26  C5'       46.9560   79.2160   58.7320 C.3   1030  FMN1030     0.1892
     27  O5'       46.2570   79.4890   60.0120 O.3   1030  FMN1030    -0.2674
     28  P         46.5550   78.8160   61.4450 P.3   1030  FMN1030     0.5327
     29  O1P       46.3090   77.3400   61.2230 O.2   1030  FMN1030    -0.2224
     30  O2P       47.9860   79.1810   61.7180 O.3   1030  FMN1030    -0.1145
     31  O3P       45.6410   79.4000   62.4520 O.3   1030  FMN1030    -0.1145
@<TRIPOS>BOND
     1     3     2    2
     2     4     2    2
     3     4     5    2
     4     6     5    2
     5     2     1    2
     6     5     7    1
     7     1    18    2
     8     7    18    1
     9     7     8    2
    10    18    17    1
    11     8     9    2
    12    17    19    1
    13    17    16    1
    14     9    16    1
    15     9    10    1
    16    19    20    1
    17    16    15    1
    18    10    11    2
    19    23    22    1
    20    21    20    1
    21    20    22    1
    22    15    13    2
    23    11    13    1
    24    11    12    1
    25    13    14    1
    26    22    24    1
    27    24    25    1
    28    24    26    1
    29    26    27    1
    30    27    28    1
    31    29    28    2
    32    28    30    1
    33    28    31    1
