@<TRIPOS>MOLECULE
1gti_GTB_A_1.pdb
 30 30 0 0 0
SMALL
GASTEIGER

@<TRIPOS>ATOM
      1  N1        16.8490   20.2100   40.0700 N.3   210  GTB210     -0.1208
      2  CA1       18.2650   19.8680   40.1470 C.3   210  GTB210      0.1948
      3  C1        18.6520   18.5200   39.5400 C.2   210  GTB210      0.3819
      4  O11       17.8610   17.5630   39.6860 O.co2 210  GTB210     -0.2441
      5  O12       19.7340   18.4320   38.9190 O.co2 210  GTB210     -0.2441
      6  CB1       18.8800   19.9590   41.5530 C.3   210  GTB210      0.0402
      7  CG1       20.3920   19.7370   41.6050 C.3   210  GTB210      0.0889
      8  CD1       20.9430   19.6830   43.0170 C.2   210  GTB210      0.2418
      9  OE1       20.2300   19.3570   43.9730 O.2   210  GTB210     -0.2733
     10  N2        22.2260   20.0130   43.1410 N.am  210  GTB210     -0.1969
     11  CA2       22.9070   20.0020   44.4310 C.3   210  GTB210      0.1834
     12  C2        23.9980   21.0650   44.5220 C.2   210  GTB210      0.2626
     13  O2        24.6330   21.4060   43.5200 O.2   210  GTB210     -0.2714
     14  CB2       23.5220   18.6260   44.7010 C.3   210  GTB210      0.0889
     15  SG2       22.3370   17.3070   45.1200 S.3   210  GTB210     -0.1331
     16  N3        24.2150   21.5650   45.7340 N.am  210  GTB210     -0.1917
     17  CA3       25.2310   22.5790   45.9580 C.3   210  GTB210      0.2285
     18  C3        24.7710   23.9830   45.6090 C.2   210  GTB210      0.3865
     19  O31       25.6360   24.8280   45.2950 O.co2 210  GTB210     -0.2437
     20  O32       23.5470   24.2430   45.6540 O.co2 210  GTB210     -0.2437
     21  C'        22.2910   17.4120   46.9390 C.3   210  GTB210      0.0838
     22  C1'       23.6490   17.4330   47.6230 C.ar  210  GTB210     -0.0112
     23  C2'       24.3160   18.6440   47.8790 C.ar  210  GTB210     -0.0017
     24  C3'       25.5870   18.6650   48.4310 C.ar  210  GTB210      0.0238
     25  C4'       26.2340   17.4680   48.7460 C.ar  210  GTB210      0.1429
     26  N41       27.6360   17.4880   49.2960 N.pl3 210  GTB210      0.0577
     27  O41       28.2330   16.4610   49.5420 O.2   210  GTB210     -0.1261
     28  O42       28.1890   18.5490   49.4540 O.2   210  GTB210     -0.1261
     29  C5'       25.5890   16.2560   48.5050 C.ar  210  GTB210      0.0238
     30  C6'       24.3170   16.2420   47.9510 C.ar  210  GTB210     -0.0017
@<TRIPOS>BOND
     1     5     3   ar
     2     3     4   ar
     3     3     2    1
     4     1     2    1
     5     2     6    1
     6     6     7    1
     7     7     8    1
     8     8    10   am
     9     8     9    2
    10    10    11    1
    11    13    12    2
    12    11    12    1
    13    11    14    1
    14    12    16   am
    15    14    15    1
    16    15    21    1
    17    19    18   ar
    18    18    20   ar
    19    18    17    1
    20    16    17    1
    21    21    22    1
    22    22    23   ar
    23    22    30   ar
    24    23    24   ar
    25    30    29   ar
    26    24    25   ar
    27    29    25   ar
    28    25    26    1
    29    26    28    2
    30    26    27    2
