@<TRIPOS>MOLECULE
1gtj_III_3_1.pdb
 27 27 0 0 0
SMALL
GASTEIGER

@<TRIPOS>ATOM
      1  C         21.3210   13.2620   36.3830 C.2     1  ACE1        0.2423
      2  O         20.6140   14.1800   36.0130 O.2     1  ACE1       -0.2733
      3  CH3       21.6250   13.1260   37.8560 C.3     1  ACE1        0.0964
      4  N         21.9000   12.3830   35.5120 N.am    2  ILE2       -0.1978
      5  CA        21.6630   12.3820   34.0380 C.3     2  ILE2        0.1726
      6  C         20.3180   11.6430   33.7070 C.2     2  ILE2        0.2616
      7  O         20.0720   10.4810   34.1330 O.2     2  ILE2       -0.2715
      8  CB        22.6760   11.4750   33.2520 C.3     2  ILE2        0.0290
      9  CG1       24.1390   12.0430   33.4910 C.3     2  ILE2        0.0022
     10  CG2       22.4500   11.5650   31.6780 C.3     2  ILE2        0.0023
     11  CD1       25.4580   11.4520   32.9250 C.3     2  ILE2        0.0001
     12  N         19.2450   12.1410   33.0230 N.am    3  ALA3       -0.1963
     13  CA        18.1390   11.4210   32.3210 C.3     3  ALA3        0.1728
     14  C         18.4470   10.4340   31.2100 C.2     3  ALA3        0.2613
     15  O         19.0830   10.8250   30.2280 O.2     3  ALA3       -0.2715
     16  CB        17.1680   12.5300   31.8170 C.3     3  ALA3        0.0334
     17  N         17.9890    9.1710   31.3840 N.am    4  PHE4       -0.2027
     18  CA        18.2280    8.1860   30.3140 C.3     4  PHE4        0.1325
     19  C         17.0230    7.8370   29.4420 C.3     4  PHE4        0.2039
     20  O         17.2940    6.8820   28.4140 O.3     4  PHE4       -0.2185
     21  CB        18.8190    6.8850   30.9680 C.3     4  PHE4        0.0507
     22  CG        20.0660    7.0100   31.8180 C.ar    4  PHE4       -0.0204
     23  CD1       20.1060    6.2970   33.0610 C.ar    4  PHE4       -0.0042
     24  CD2       21.1860    7.8530   31.3690 C.ar    4  PHE4       -0.0042
     25  CE1       21.2940    6.4150   33.8920 C.ar    4  PHE4       -0.0003
     26  CE2       22.3800    7.9730   32.2100 C.ar    4  PHE4       -0.0003
     27  CZ        22.4230    7.2480   33.4710 C.ar    4  PHE4       -0.0000
@<TRIPOS>BOND
     1    20    19    1
     2    19    18    1
     3    15    14    2
     4    18    21    1
     5    18    17    1
     6    21    22    1
     7    14    17   am
     8    14    13    1
     9    24    22   ar
    10    24    26   ar
    11    10     8    1
    12    16    13    1
    13    22    23   ar
    14    26    27   ar
    15    13    12    1
    16    11     9    1
    17    12     6   am
    18    23    25   ar
    19     8     9    1
    20     8     5    1
    21    27    25   ar
    22     6     5    1
    23     6     7    2
    24     5     4    1
    25     4     1   am
    26     2     1    2
    27     1     3    1
