@<TRIPOS>MOLECULE
1gtk_DPM_A_1.pdb
 30 31 0 0 0
SMALL
GASTEIGER

@<TRIPOS>ATOM
      1  C1A       15.9490    0.8940   27.1290 C.2   315  DPM315      0.1053
      2  C2A       16.8330    0.2620   28.1050 C.2   315  DPM315      0.0127
      3  C3A       17.8340    1.2870   28.4290 C.2   315  DPM315      0.0028
      4  C4A       17.4700    2.3980   27.6120 C.2   315  DPM315      0.1100
      5  C5A       16.6660   -1.1350   28.5960 C.3   315  DPM315      0.1423
      6  C6A       17.5500   -2.0980   28.2450 C.2   315  DPM315      0.3693
      7  C7A       18.9840    1.1300   29.4110 C.3   315  DPM315      0.0402
      8  C8A       18.4490    1.2470   30.8070 C.3   315  DPM315      0.1188
      9  C9A       19.5230    1.1810   31.8830 C.2   315  DPM315      0.3652
     10  CHA       14.8390    0.2840   26.3720 C.3   315  DPM315      0.0660
     11  NA        16.3520    2.1380   26.8480 N.2   315  DPM315     -0.4108
     12  O1A       17.3980   -3.3200   28.5080 O.co2 315  DPM315     -0.2453
     13  O2A       18.5060   -1.7510   27.6050 O.co2 315  DPM315     -0.2453
     14  O3A       20.5530    0.4750   31.8040 O.co2 315  DPM315     -0.2456
     15  O4A       19.2960    1.8300   32.8710 O.co2 315  DPM315     -0.2456
     16  C1B       19.0920    3.9550   26.1390 C.2   315  DPM315      0.0478
     17  C2B       20.5230    3.8570   25.8630 C.3   315  DPM315      0.0675
     18  C3B       20.6200    3.9310   24.3950 C.2   315  DPM315     -0.0191
     19  C4B       19.2840    4.0240   23.9160 C.2   315  DPM315      0.0899
     20  C5B       21.5770    3.8030   26.9340 C.3   315  DPM315      0.1237
     21  C6B       22.4390    2.7180   27.0200 C.2   315  DPM315      0.3656
     22  C7B       21.8780    3.9010   23.5540 C.3   315  DPM315      0.0358
     23  C8B       22.1610    2.5480   22.9050 C.3   315  DPM315      0.1184
     24  C9B       21.3550    2.2370   21.6440 C.2   315  DPM315      0.3652
     25  CHB       18.3970    3.9000   27.4570 C.3   315  DPM315      0.1001
     26  NB        18.3880    4.0100   24.9650 N.2   315  DPM315     -0.2523
     27  O1B       23.6590    2.8730   27.0340 O.co2 315  DPM315     -0.2456
     28  O2B       21.9780    1.5910   27.0560 O.co2 315  DPM315     -0.2456
     29  O3B       20.8790    1.1370   21.4700 O.co2 315  DPM315     -0.2456
     30  O4B       21.1270    3.0950   20.7900 O.co2 315  DPM315     -0.2456
@<TRIPOS>BOND
     1    30    24   ar
     2    29    24   ar
     3    24    23    1
     4    23    22    1
     5    22    18    1
     6    19    18    2
     7    19    26    1
     8    18    17    1
     9    26    16    2
    10    17    16    1
    11    17    20    1
    12    16    25    1
    13    10     1    1
    14    11     1    2
    15    11     4    2
    16    20    21    1
    17    21    27   ar
    18    21    28   ar
    19     1     2    1
    20    25     4    1
    21    13     6   ar
    22     4     3    1
    23     2     3    2
    24     2     5    1
    25     6    12   ar
    26     6     5    1
    27     3     7    1
    28     7     8    1
    29     8     9    1
    30    14     9   ar
    31     9    15   ar
