@<TRIPOS>MOLECULE
1gtl_III_3_1.pdb
 29 30 0 0 0
SMALL
GASTEIGER

@<TRIPOS>ATOM
      1  C         21.5630   13.2500   36.5950 C.2     1  ACE1        0.2423
      2  O         20.4990   13.8250   36.4140 O.2     1  ACE1       -0.2733
      3  CH3       22.1210   13.2530   38.0040 C.3     1  ACE1        0.0964
      4  N         22.2750   12.6090   35.5840 N.am    2  ILE2       -0.1978
      5  CA        21.7990   12.5310   34.1440 C.3     2  ILE2        0.1712
      6  C         20.4410   11.7970   33.8850 C.2     2  ILE2        0.2458
      7  O         20.1470   10.7210   34.3610 O.2     2  ILE2       -0.2730
      8  CB        22.7750   11.8140   33.0840 C.3     2  ILE2        0.0289
      9  CG1       24.2530   12.3590   33.1270 C.3     2  ILE2        0.0022
     10  CG2       22.3420   12.1300   31.6070 C.3     2  ILE2        0.0023
     11  CD1       25.4070   11.8490   32.1980 C.3     2  ILE2        0.0001
     12  N         19.4160   12.2970   33.1100 N.am    3  PRO3       -0.2716
     13  CA        18.3270   11.6700   32.2890 C.3     3  PRO3        0.1535
     14  C         18.5850   10.6440   31.1870 C.2     3  PRO3        0.2595
     15  O         19.3330   10.9620   30.2630 O.2     3  PRO3       -0.2716
     16  CB        17.5340   12.8820   31.7330 C.3     3  PRO3        0.0310
     17  CG        18.6540   13.8690   31.5400 C.3     3  PRO3        0.0237
     18  CD        19.2010   13.7400   32.9530 C.3     3  PRO3        0.0939
     19  N         17.9340    9.4280   31.2990 N.am    4  PHE4       -0.2028
     20  CA        18.1250    8.4060   30.2260 C.3     4  PHE4        0.1325
     21  C         16.9040    7.9560   29.4080 C.3     4  PHE4        0.2039
     22  O         17.1860    6.9830   28.3890 O.3     4  PHE4       -0.2185
     23  CB        18.8260    7.1340   30.8330 C.3     4  PHE4        0.0507
     24  CG        19.9610    7.2120   31.8150 C.ar    4  PHE4       -0.0204
     25  CD1       19.7720    6.5780   33.0860 C.ar    4  PHE4       -0.0042
     26  CD2       21.1890    7.9130   31.4880 C.ar    4  PHE4       -0.0042
     27  CE1       20.8410    6.6530   34.0540 C.ar    4  PHE4       -0.0003
     28  CE2       22.2530    7.9840   32.4550 C.ar    4  PHE4       -0.0003
     29  CZ        22.0680    7.3500   33.7420 C.ar    4  PHE4       -0.0000
@<TRIPOS>BOND
     1    22    21    1
     2    21    20    1
     3    20    23    1
     4    20    19    1
     5    15    14    2
     6    23    24    1
     7    14    19   am
     8    14    13    1
     9    26    24   ar
    10    26    28   ar
    11    17    16    1
    12    17    18    1
    13    10     8    1
    14    16    13    1
    15    24    25   ar
    16    11     9    1
    17    13    12    1
    18    28    29   ar
    19    18    12    1
    20     8     9    1
    21     8     5    1
    22    25    27   ar
    23    12     6   am
    24    29    27   ar
    25     6     5    1
    26     6     7    2
    27     5     4    1
    28     4     1   am
    29     2     1    2
    30     1     3    1
