@<TRIPOS>MOLECULE
1gtn_TRP_A_1.pdb
 15 16 0 0 0
SMALL
GASTEIGER

@<TRIPOS>ATOM
      1  N         75.4890  -21.4960    8.4030 N.3    81  TRP81      -0.1205
      2  CA        74.2060  -21.5350    9.0870 C.3    81  TRP81       0.1984
      3  C         73.1880  -20.5690    8.4710 C.2    81  TRP81       0.3822
      4  O         73.5030  -19.4850    7.9970 O.co2  81  TRP81      -0.2440
      5  CB        74.3890  -21.2310   10.5750 C.3    81  TRP81       0.0549
      6  CG        73.1210  -21.2070   11.3490 C.2    81  TRP81      -0.0138
      7  CD1       72.3540  -20.1100   11.6320 C.2    81  TRP81       0.0907
      8  CD2       72.4590  -22.3160   11.9460 C.3    81  TRP81       0.0819
      9  NE1       71.2580  -20.4730   12.3720 N.2    81  TRP81      -0.2482
     10  CE2       71.2920  -21.8270   12.5680 C.2    81  TRP81       0.0665
     11  CE3       72.7140  -23.6870   12.0010 C.2    81  TRP81      -0.0164
     12  CZ2       70.4050  -22.6470   13.2510 C.2    81  TRP81       0.0153
     13  CZ3       71.8170  -24.5010   12.6770 C.2    81  TRP81      -0.0038
     14  CH2       70.6860  -23.9700   13.2990 C.2    81  TRP81       0.0009
     15  OXT       71.9990  -20.8600    8.4010 O.co2  81  TRP81      -0.2440
@<TRIPOS>BOND
     1     4     3   ar
     2    15     3   ar
     3     1     2    1
     4     3     2    1
     5     2     5    1
     6     5     6    1
     7     6     7    2
     8     6     8    1
     9     7     9    1
    10     8    11    1
    11     8    10    1
    12    11    13    2
    13     9    10    2
    14    10    12    1
    15    13    14    1
    16    12    14    2
