@<TRIPOS>MOLECULE
1gtr_ATP_A_1.pdb
 31 33 0 0 0
SMALL
GASTEIGER

@<TRIPOS>ATOM
      1  PG        50.1820   26.5710   19.0500 P.3   999  ATP999      0.5373
      2  O1G       51.1800   27.2780   19.8840 O.3   999  ATP999     -0.1143
      3  O2G       49.4570   25.4880   19.7580 O.3   999  ATP999     -0.1143
      4  O3G       50.6440   26.2510   17.6810 O.2   999  ATP999     -0.2221
      5  PB        47.6160   27.3220   18.0330 P.3   999  ATP999      0.2277
      6  O1B       47.0680   26.0830   18.6370 O.3   999  ATP999     -0.4368
      7  O2B       46.8090   28.5620   18.0490 O.2   999  ATP999     -0.5168
      8  O3B       49.0300   27.6700   18.7580 O.3   999  ATP999     -0.2258
      9  PA        47.5570   27.7900   15.1900 P.3   999  ATP999      0.2189
     10  O1A       48.0810   29.1650   15.2960 O.3   999  ATP999     -0.4371
     11  O2A       47.9420   26.9520   14.0350 O.2   999  ATP999     -0.5170
     12  O3A       48.0240   26.9770   16.5120 O.3   999  ATP999     -0.2700
     13  O5'       45.9480   27.8730   15.2140 O.3   999  ATP999     -0.3112
     14  C5'       45.2750   28.1530   13.9830 C.3   999  ATP999      0.1813
     15  C4'       43.7910   28.5020   14.0940 C.3   999  ATP999      0.1821
     16  O4'       43.0670   27.4140   14.6980 O.3   999  ATP999     -0.3135
     17  C3'       43.5750   29.7400   14.9510 C.3   999  ATP999      0.2184
     18  O3'       42.4960   30.4900   14.3870 O.3   999  ATP999     -0.2174
     19  C2'       43.1740   29.1120   16.2760 C.3   999  ATP999      0.2570
     20  O2'       42.3230   29.9990   17.0080 O.3   999  ATP999     -0.2130
     21  C1'       42.4000   27.8600   15.8860 C.3   999  ATP999      0.3186
     22  N9        42.5080   26.8610   16.9820 N.pl3 999  ATP999     -0.1439
     23  C8        43.6490   26.3650   17.5710 C.3   999  ATP999      0.3377
     24  N7        43.4280   25.5430   18.5560 N.2   999  ATP999     -0.2095
     25  C5        42.0470   25.4800   18.6340 C.2   999  ATP999      0.2526
     26  C6        41.1890   24.7760   19.4860 C.2   999  ATP999      0.4393
     27  N6        41.6330   23.9830   20.4620 N.pl3 999  ATP999      0.2180
     28  N1        39.8710   24.9280   19.2950 N.2   999  ATP999      0.0021
     29  C2        39.4470   25.7310   18.3330 C.3   999  ATP999      0.5254
     30  N3        40.1470   26.4470   17.4650 N.2   999  ATP999     -0.0055
     31  C4        41.4710   26.2700   17.6750 C.2   999  ATP999      0.3518
@<TRIPOS>BOND
     1    14    15    1
     2    14    13    1
     3    11     9    2
     4    15    16    1
     5    15    17    1
     6    18    17    1
     7    16    21    1
     8    17    19    1
     9     9    13    1
    10     9    10    1
    11     9    12    1
    12    21    19    1
    13    21    22    1
    14    19    20    1
    15    12     5    1
    16    22    23    1
    17    22    31    1
    18    30    31    2
    19    30    29    1
    20    23    24    1
    21    31    25    1
    22     4     1    2
    23     5     7    2
    24     5     6    1
    25     5     8    1
    26    29    28    1
    27    24    25    2
    28    25    26    1
    29     8     1    1
    30     1     3    1
    31     1     2    1
    32    28    26    2
    33    26    27    1
