@<TRIPOS>MOLECULE
1gts_AMP_A_1.pdb
 23 25 0 0 0
SMALL
GASTEIGER

@<TRIPOS>ATOM
      1  P         47.2730   27.5540   15.2620 P.3   999  AMP999      0.5327
      2  O1P       48.0050   28.4870   14.3940 O.2   999  AMP999     -0.2224
      3  O2P       47.5000   26.1180   15.0540 O.3   999  AMP999     -0.1145
      4  O3P       47.5610   27.8750   16.7940 O.3   999  AMP999     -0.1145
      5  O5'       45.6710   27.7550   15.1530 O.3   999  AMP999     -0.2675
      6  C5'       45.1080   27.9620   13.8540 C.3   999  AMP999      0.1860
      7  C4'       43.5790   28.0670   13.8650 C.3   999  AMP999      0.1823
      8  O4'       43.1540   26.9370   14.6280 O.3   999  AMP999     -0.3135
      9  C3'       42.9690   29.2700   14.6090 C.3   999  AMP999      0.2184
     10  O3'       41.6430   29.5950   14.1460 O.3   999  AMP999     -0.2174
     11  C2'       42.7970   28.7340   16.0010 C.3   999  AMP999      0.2570
     12  O2'       41.8250   29.5190   16.7020 O.3   999  AMP999     -0.2130
     13  C1'       42.2640   27.3580   15.6620 C.3   999  AMP999      0.3186
     14  N9        42.3970   26.4710   16.8110 N.pl3 999  AMP999     -0.1439
     15  C8        43.5420   26.1040   17.4650 C.3   999  AMP999      0.3377
     16  N7        43.3370   25.3100   18.4830 N.2   999  AMP999     -0.2095
     17  C5        41.9640   25.1730   18.5130 C.2   999  AMP999      0.2526
     18  C6        41.1230   24.4520   19.3720 C.2   999  AMP999      0.4393
     19  N6        41.6040   23.7430   20.4070 N.pl3 999  AMP999      0.2180
     20  N1        39.8040   24.5090   19.1350 N.2   999  AMP999      0.0021
     21  C2        39.3950   25.2380   18.1050 C.3   999  AMP999      0.5254
     22  N3        40.0960   25.9470   17.2280 N.2   999  AMP999     -0.0055
     23  C4        41.3900   25.8720   17.4980 C.2   999  AMP999      0.3518
@<TRIPOS>BOND
     1     6     7    1
     2     6     5    1
     3     7     9    1
     4     7     8    1
     5    10     9    1
     6     2     1    2
     7     9    11    1
     8     8    13    1
     9     3     1    1
    10     5     1    1
    11     1     4    1
    12    13    11    1
    13    13    14    1
    14    11    12    1
    15    14    15    1
    16    14    23    1
    17    22    23    2
    18    22    21    1
    19    15    16    1
    20    23    17    1
    21    21    20    1
    22    16    17    2
    23    17    18    1
    24    20    18    2
    25    18    19    1
