@<TRIPOS>MOLECULE
1gtv_TMP_B_1.pdb
 21 22 0 0 0
SMALL
GASTEIGER

@<TRIPOS>ATOM
      1  P         26.3030   15.0290    8.3750 P.3   302  TMP302      0.5327
      2  O1P       25.1580   15.8320    8.8350 O.3   302  TMP302     -0.1145
      3  O2P       27.2960   14.8490    9.5020 O.3   302  TMP302     -0.1145
      4  O3P       26.9190   15.5610    7.1440 O.2   302  TMP302     -0.2224
      5  O5'       25.7850   13.5870    8.0870 O.3   302  TMP302     -0.2675
      6  C5'       24.8960   13.2290    6.9510 C.3   302  TMP302      0.1858
      7  C4'       23.5910   12.6050    7.4940 C.3   302  TMP302      0.1774
      8  O4'       23.7900   11.1700    7.6010 O.3   302  TMP302     -0.3339
      9  C3'       23.1070   13.1070    8.8800 C.3   302  TMP302      0.1857
     10  O3'       21.7330   13.4290    8.7430 O.3   302  TMP302     -0.2203
     11  C2'       23.2400   11.9330    9.8430 C.3   302  TMP302      0.0874
     12  C1'       23.6530   10.7690    8.9580 C.3   302  TMP302      0.2090
     13  N1        24.4810    9.6450    9.3260 N.am  302  TMP302     -0.1794
     14  C2        23.9510    8.3680    9.5480 C.1   302  TMP302      0.2844
     15  O2        22.7510    8.0810    9.4510 O.2   302  TMP302     -0.1918
     16  N3        24.9270    7.4280    9.8970 N.2   302  TMP302     -0.2455
     17  C4        26.3090    7.6750   10.0230 C.1   302  TMP302      0.2134
     18  O4        27.0770    6.7760   10.3350 O.2   302  TMP302     -0.2088
     19  C5        26.7590    9.0380    9.7650 C.2   302  TMP302      0.0891
     20  C6        25.7890    9.9730    9.4220 C.2   302  TMP302      0.0877
     21  C5M       28.1820    9.4150    9.8620 C.3   302  TMP302      0.0462
@<TRIPOS>BOND
     1     6     7    1
     2     6     5    1
     3     4     1    2
     4     7     8    1
     5     7     9    1
     6     8    12    1
     7     5     1    1
     8     1     2    1
     9     1     3    1
    10    10     9    1
    11     9    11    1
    12    12    13    1
    13    12    11    1
    14    13    20    1
    15    13    14   am
    16    20    19    2
    17    15    14    2
    18    14    16    2
    19    19    21    1
    20    19    17    1
    21    16    17    2
    22    17    18    2
