@<TRIPOS>MOLECULE
1gtz_DHK_A_1.pdb
 12 12 0 0 0
SMALL
GASTEIGER

@<TRIPOS>ATOM
      1  C2         0.6440  -16.6000   38.5400 C.2   1162  DHK1162     0.0111
      2  C3         0.7580  -15.2300   38.8320 C.3   1162  DHK1162     0.2066
      3  O3         0.5120  -14.9610   40.1110 O.3   1162  DHK1162    -0.2155
      4  C4         1.3650  -14.2660   37.9890 C.3   1162  DHK1162     0.2167
      5  O4         1.9380  -13.3540   38.7630 O.3   1162  DHK1162    -0.2173
      6  C5         2.3310  -14.8420   37.0980 C.3   1162  DHK1162     0.1896
      7  C1         1.2940  -17.0350   37.3690 C.2   1162  DHK1162     0.0584
      8  C6         1.7870  -16.0340   36.5290 C.3   1162  DHK1162     0.0684
      9  C          0.8390  -18.2890   36.9030 C.2   1162  DHK1162     0.3837
     10  O1         0.3290  -18.2960   35.6980 O.co2 1162  DHK1162    -0.2409
     11  O2         0.7710  -19.2830   37.7860 O.co2 1162  DHK1162    -0.2409
     12  O5         2.4840  -13.8920   36.0920 O.3   1162  DHK1162    -0.2200
@<TRIPOS>BOND
     1    10     9   ar
     2    12     6    1
     3     8     6    1
     4     8     7    1
     5     9     7    1
     6     9    11   ar
     7     6     4    1
     8     7     1    2
     9     4     5    1
    10     4     2    1
    11     1     2    1
    12     2     3    1
