@<TRIPOS>MOLECULE
1gu1_FA1_A_1.pdb
 12 12 0 0 0
SMALL
GASTEIGER

@<TRIPOS>ATOM
      1  C2        28.6300   50.9780   58.6370 C.3   201  FA1201      0.0818
      2  C3        27.8860   49.7450   58.5610 C.3   201  FA1201      0.1897
      3  O3        28.4970   48.8030   57.7520 O.3   201  FA1201     -0.2199
      4  C4        27.7740   49.1790   59.8430 C.3   201  FA1201      0.2040
      5  O4        26.8960   48.1190   59.9030 O.3   201  FA1201     -0.2156
      6  C5        27.4170   50.1340   60.8480 C.2   201  FA1201      0.0071
      7  C6        27.5280   51.5480   60.6290 C.2   201  FA1201      0.0124
      8  C         28.8440   53.1510   59.6440 C.2   201  FA1201      0.3956
      9  O1        30.0840   53.2610   59.1970 O.co2 201  FA1201     -0.2426
     10  O30       26.9640   52.5050   58.6850 O.3   201  FA1201     -0.2095
     11  O2        28.4370   54.2040   60.3050 O.co2 201  FA1201     -0.2426
     12  C1        28.0270   52.0020   59.4010 C.3   201  FA1201      0.2396
@<TRIPOS>BOND
     1     3     2    1
     2     2     1    1
     3     2     4    1
     4     1    12    1
     5    10    12    1
     6     9     8   ar
     7    12     8    1
     8    12     7    1
     9     8    11   ar
    10     4     5    1
    11     4     6    1
    12     7     6    2
