@<TRIPOS>MOLECULE
1gu2_HEC_A_1.pdb
 43 50 0 0 0
SMALL
GASTEIGER

@<TRIPOS>ATOM
      1 FE         12.8340    2.2720   12.7550 Fe    125  HEC125      0.0000
      2  CHA       13.0590    3.6970    9.6500 C.2   125  HEC125      0.0000
      3  CHB       11.2070   -0.3990   11.3920 C.2   125  HEC125      0.0000
      4  CHC       13.0620    0.6420   15.7710 C.2   125  HEC125      0.0000
      5  CHD       14.1380    5.1190   14.1570 C.2   125  HEC125      0.0000
      6  NA        12.1940    1.7750   10.9220 N.ar  125  HEC125      0.0000
      7  C1A       12.3880    2.4890    9.7270 C.ar  125  HEC125      0.0000
      8  C2A       11.8100    1.7650    8.6290 C.ar  125  HEC125      0.0000
      9  C3A       11.2500    0.6480    9.1230 C.ar  125  HEC125      0.0000
     10  C4A       11.5210    0.6290   10.5400 C.ar  125  HEC125      0.0000
     11  CMA       10.4950   -0.4670    8.3560 C.3   125  HEC125      0.0000
     12  CAA       11.8410    2.2270    7.1620 C.3   125  HEC125      0.0000
     13  CBA       13.0460    1.6560    6.3920 C.3   125  HEC125      0.0000
     14  CGA       13.0860    2.1240    4.9780 C.2   125  HEC125      0.0000
     15  O1A       14.2010    2.2600    4.4290 O.co2 125  HEC125      0.0000
     16  O2A       12.0370    2.3730    4.3610 O.co2 125  HEC125      0.0000
     17  NB        12.2620    0.4700   13.4310 N.2   125  HEC125      0.0000
     18  C1B       11.6280   -0.5110   12.7210 C.2   125  HEC125      0.0000
     19  C2B       11.4970   -1.7030   13.5490 C.2   125  HEC125      0.0000
     20  C3B       12.0430   -1.4180   14.7650 C.2   125  HEC125      0.0000
     21  C4B       12.4950   -0.0470   14.6940 C.2   125  HEC125      0.0000
     22  CMB       10.8650   -3.0350   13.1090 C.3   125  HEC125      0.0000
     23  CAB       12.1610   -2.3070   16.0250 C.3   125  HEC125      0.0000
     24  CBB       12.9550   -3.5800   15.7400 C.3   125  HEC125      0.0000
     25  NC        13.4590    2.7850   14.5880 N.ar  125  HEC125      0.0000
     26  C1C       13.4400    1.9750   15.7250 C.ar  125  HEC125      0.0000
     27  C2C       13.8450    2.7530   16.8760 C.ar  125  HEC125      0.0000
     28  C3C       14.1270    4.0160   16.4370 C.ar  125  HEC125      0.0000
     29  C4C       13.9000    4.0380   15.0190 C.ar  125  HEC125      0.0000
     30  CMC       13.8550    2.1660   18.3020 C.3   125  HEC125      0.0000
     31  CAC       14.5060    5.2690   17.2270 C.3   125  HEC125      0.0000
     32  CBC       15.7750    5.0950   18.0550 C.3   125  HEC125      0.0000
     33  ND        13.4560    4.0280   12.0490 N.2   125  HEC125      0.0000
     34  C1D       14.0060    5.0840   12.7890 C.2   125  HEC125      0.0000
     35  C2D       14.5160    6.0930   11.8990 C.2   125  HEC125      0.0000
     36  C3D       14.3830    5.6140   10.6260 C.2   125  HEC125      0.0000
     37  C4D       13.6100    4.3950   10.7120 C.2   125  HEC125      0.0000
     38  CMD       15.1400    7.4320   12.3310 C.3   125  HEC125      0.0000
     39  CAD       15.0020    6.2420    9.3510 C.3   125  HEC125      0.0000
     40  CBD       14.2410    7.5030    8.8700 C.3   125  HEC125      0.0000
     41  CGD       13.1150    7.2090    7.9010 C.2   125  HEC125      0.0000
     42  O1D       12.1720    8.0370    7.7380 O.co2 125  HEC125      0.0000
     43  O2D       13.1460    6.1390    7.2380 O.co2 125  HEC125      0.0000
@<TRIPOS>BOND
     1    16    14   ar
     2    15    14   ar
     3    14    13    1
     4    13    12    1
     5    12     8    1
     6    43    41   ar
     7    42    41   ar
     8    41    40    1
     9    11     9    1
    10     8     9   ar
    11     8     7   ar
    12    40    39    1
    13     9    10   ar
    14    39    36    1
    15     2     7    2
    16     2    37    1
    17     7     6   ar
    18    10     6   ar
    19    10     3    2
    20    36    37    1
    21    36    35    2
    22    37    33    2
    23     6     1    1
    24     3    18    1
    25    35    38    1
    26    35    34    1
    27    33     1    1
    28    33    34    1
    29    18    17    2
    30    18    19    1
    31     1    17    1
    32     1    25    1
    33    34     5    2
    34    22    19    1
    35    17    21    1
    36    19    20    2
    37     5    29    1
    38    25    29   ar
    39    25    26   ar
    40    21    20    1
    41    21     4    2
    42    20    23    1
    43    29    28   ar
    44    26     4    1
    45    26    27   ar
    46    24    23    1
    47    28    27   ar
    48    28    31    1
    49    27    30    1
    50    31    32    1
