@<TRIPOS>MOLECULE
1gu3_BGC_A_1.pdb
 12 12 0 0 0
SMALL
GASTEIGER

@<TRIPOS>ATOM
      1  C2       -10.9960   33.3410   27.0270 C.3   601  BGC601      0.2434
      2  C3       -12.0380   32.5920   26.1870 C.3   601  BGC601      0.2199
      3  C4       -11.4940   31.2460   25.6530 C.3   601  BGC601      0.2144
      4  C5       -10.7080   30.4530   26.7180 C.3   601  BGC601      0.1836
      5  C6        -9.9570   29.2910   26.0640 C.3   601  BGC601      0.2142
      6  C1       -10.4670   32.3720   28.0840 C.3   601  BGC601      0.3024
      7  O1        -9.5620   33.0310   28.9450 O.3   601  BGC601     -0.1869
      8  O2       -11.6040   34.4340   27.6620 O.3   601  BGC601     -0.2148
      9  O3       -12.5950   33.3870   25.1410 O.3   601  BGC601     -0.2174
     10  O4       -12.5660   30.4710   25.1490 O.3   601  BGC601     -0.2176
     11  O5        -9.8080   31.2900   27.4520 O.3   601  BGC601     -0.3236
     12  O6        -9.9680   28.1570   26.8950 O.3   601  BGC601     -0.2176
@<TRIPOS>BOND
     1     9     2    1
     2    10     3    1
     3     3     2    1
     4     3     4    1
     5     5     4    1
     6     5    12    1
     7     2     1    1
     8     4    11    1
     9     1     8    1
    10     1     6    1
    11    11     6    1
    12     6     7    1
