@<TRIPOS>MOLECULE
1gu6_HEC_A_1.pdb
 43 50 0 0 0
SMALL
GASTEIGER

@<TRIPOS>ATOM
      1 FE         20.8160   10.4730  111.7480 Fe    1482  HEC1482     0.0000
      2  CHA       18.3060   10.4050  114.0230 C.2   1482  HEC1482     0.0000
      3  CHB       18.5700   10.4180  109.2010 C.2   1482  HEC1482     0.0000
      4  CHC       23.3740   10.7750  109.4450 C.2   1482  HEC1482     0.0000
      5  CHD       23.1240   10.4960  114.2410 C.2   1482  HEC1482     0.0000
      6  NA        18.8490   10.3720  111.6260 N.ar  1482  HEC1482     0.0000
      7  C1A       17.9370   10.3340  112.6780 C.ar  1482  HEC1482     0.0000
      8  C2A       16.5890   10.2280  112.1850 C.ar  1482  HEC1482     0.0000
      9  C3A       16.6670   10.2100  110.8150 C.ar  1482  HEC1482     0.0000
     10  C4A       18.0820   10.3340  110.4820 C.ar  1482  HEC1482     0.0000
     11  CMA       15.5440   10.1170  109.8070 C.3   1482  HEC1482     0.0000
     12  CAA       15.3280   10.1660  113.0490 C.3   1482  HEC1482     0.0000
     13  CBA       14.6560   11.5530  113.2840 C.3   1482  HEC1482     0.0000
     14  CGA       14.4230   12.3300  112.1200 C.2   1482  HEC1482     0.0000
     15  O1A       13.4790   11.9250  111.3670 O.co2 1482  HEC1482     0.0000
     16  O2A       15.1210   13.3020  111.7750 O.co2 1482  HEC1482     0.0000
     17  NB        20.9290   10.5940  109.7620 N.2   1482  HEC1482     0.0000
     18  C1B       19.8950   10.5660  108.8620 C.2   1482  HEC1482     0.0000
     19  C2B       20.3570   10.7330  107.4890 C.2   1482  HEC1482     0.0000
     20  C3B       21.7000   10.8610  107.5550 C.2   1482  HEC1482     0.0000
     21  C4B       22.0600   10.7410  108.9640 C.2   1482  HEC1482     0.0000
     22  CMB       19.4480   10.7750  106.2950 C.3   1482  HEC1482     0.0000
     23  CAB       22.6970   11.1000  106.4450 C.3   1482  HEC1482     0.0000
     24  CBB       22.7960   12.5930  106.1010 C.3   1482  HEC1482     0.0000
     25  NC        22.8270   10.5670  111.8410 N.ar  1482  HEC1482     0.0000
     26  C1C       23.7460   10.6720  110.7770 C.ar  1482  HEC1482     0.0000
     27  C2C       25.1130   10.6380  111.2590 C.ar  1482  HEC1482     0.0000
     28  C3C       25.0270   10.5300  112.5810 C.ar  1482  HEC1482     0.0000
     29  C4C       23.6220   10.5330  112.9360 C.ar  1482  HEC1482     0.0000
     30  CMC       26.3320   10.6950  110.3780 C.3   1482  HEC1482     0.0000
     31  CAC       26.1260   10.4000  113.5970 C.3   1482  HEC1482     0.0000
     32  CBC       27.3540   11.2270  113.3700 C.3   1482  HEC1482     0.0000
     33  ND        20.7260   10.4780  113.7290 N.2   1482  HEC1482     0.0000
     34  C1D       21.7820   10.5020  114.6090 C.2   1482  HEC1482     0.0000
     35  C2D       21.3280   10.5590  115.9810 C.2   1482  HEC1482     0.0000
     36  C3D       19.9820   10.5720  115.9070 C.2   1482  HEC1482     0.0000
     37  C4D       19.6160   10.4720  114.4980 C.2   1482  HEC1482     0.0000
     38  CMD       22.2360   10.6250  117.1940 C.3   1482  HEC1482     0.0000
     39  CAD       18.9580   10.6800  117.0110 C.3   1482  HEC1482     0.0000
     40  CBD       18.9340   12.1690  117.6790 C.3   1482  HEC1482     0.0000
     41  CGD       18.1530   13.1880  116.9990 C.2   1482  HEC1482     0.0000
     42  O1D       17.4630   12.9120  115.9740 O.co2 1482  HEC1482     0.0000
     43  O2D       18.1180   14.3780  117.4240 O.co2 1482  HEC1482     0.0000
@<TRIPOS>BOND
     1    24    23    1
     2    22    19    1
     3    23    20    1
     4    19    20    2
     5    19    18    1
     6    20    21    1
     7    18     3    1
     8    18    17    2
     9    21     4    2
    10    21    17    1
    11     3    10    2
    12     4    26    1
    13    17     1    1
    14    11     9    1
    15    30    27    1
    16    10     9   ar
    17    10     6   ar
    18    26    27   ar
    19    26    25   ar
    20     9     8   ar
    21    27    28   ar
    22    15    14   ar
    23     6     1    1
    24     6     7   ar
    25     1    25    1
    26     1    33    1
    27    16    14   ar
    28    25    29   ar
    29    14    13    1
    30     8     7   ar
    31     8    12    1
    32    28    29   ar
    33    28    31    1
    34     7     2    2
    35    29     5    1
    36    12    13    1
    37    32    31    1
    38    33    37    2
    39    33    34    1
    40     2    37    1
    41     5    34    2
    42    37    36    1
    43    34    35    1
    44    36    35    2
    45    36    39    1
    46    42    41   ar
    47    35    38    1
    48    41    43   ar
    49    41    40    1
    50    39    40    1
