@<TRIPOS>MOLECULE
1gu8_RET_A_1.pdb
 20 20 0 0 0
SMALL
GASTEIGER

@<TRIPOS>ATOM
      1  C1        23.6440   30.2800    6.0190 C.3   300  RET300      0.0183
      2  C2        22.7190   29.3520    6.8570 C.3   300  RET300      0.0044
      3  C3        21.7040   30.0380    7.7200 C.3   300  RET300      0.0047
      4  C4        20.8700   30.9730    6.8850 C.3   300  RET300      0.0217
      5  C5        21.6960   31.9740    6.0980 C.2   300  RET300     -0.0479
      6  C6        22.9970   31.7050    5.6920 C.2   300  RET300     -0.0307
      7  C7        23.7110   32.7480    4.9560 C.2   300  RET300     -0.0052
      8  C8        24.9750   32.8420    4.4500 C.2   300  RET300     -0.0046
      9  C9        25.5410   33.9610    3.7300 C.2   300  RET300     -0.0219
     10  C10       26.8260   33.8480    3.3690 C.2   300  RET300     -0.0043
     11  C11       27.6600   34.8050    2.6590 C.2   300  RET300     -0.0007
     12  C12       28.9450   34.5860    2.4010 C.2   300  RET300     -0.0046
     13  C13       29.8750   35.4730    1.7380 C.2   300  RET300     -0.0261
     14  C14       31.1610   35.0870    1.6000 C.2   300  RET300     -0.0300
     15  C15       32.2000   35.8030    1.0060 C.3   300  RET300      0.0304
     16  C16       24.9190   30.4010    6.8830 C.3   300  RET300      0.0043
     17  C17       23.9790   29.5200    4.7050 C.3   300  RET300      0.0043
     18  C18       20.9490   33.2560    5.8480 C.3   300  RET300      0.0260
     19  C19       24.6920   35.1740    3.4240 C.3   300  RET300      0.0310
     20  C20       29.3740   36.8350    1.2340 C.3   300  RET300      0.0307
@<TRIPOS>BOND
     1    15    14    1
     2    20    13    1
     3    14    13    2
     4    13    12    1
     5    12    11    2
     6    11    10    1
     7    10     9    2
     8    19     9    1
     9     9     8    1
    10     8     7    2
    11    17     1    1
    12     7     6    1
    13     6     1    1
    14     6     5    2
    15    18     5    1
    16     1     2    1
    17     1    16    1
    18     5     4    1
    19     2     3    1
    20     4     3    1
