@<TRIPOS>MOLECULE
1gua_GNP_A_1.pdb
 32 34 0 0 0
SMALL
GASTEIGER

@<TRIPOS>ATOM
      1  PG         1.1770   27.5910   32.1830 P.3   170  GNP170      0.4884
      2  O1G        2.5600   27.5220   32.1040 O.2   170  GNP170     -0.2331
      3  O2G        0.7080   28.5150   33.1850 O.3   170  GNP170     -0.1240
      4  O3G        0.8890   26.2450   32.8730 O.3   170  GNP170     -0.1240
      5  N3B        0.3460   27.5090   30.8170 N.3   170  GNP170     -0.0163
      6  PB         0.4840   26.4570   29.5010 P.3   170  GNP170      0.4669
      7  O1B        1.5950   26.7010   28.6130 O.2   170  GNP170     -0.2351
      8  O2B        0.4200   25.0530   29.9100 O.3   170  GNP170     -0.1253
      9  O3A       -0.8280   26.6640   28.7250 O.3   170  GNP170     -0.2360
     10  PA        -2.1450   25.9430   28.6600 P.3   170  GNP170      0.2220
     11  O1A       -2.9480   26.0430   29.8440 O.3   170  GNP170     -0.4370
     12  O2A       -2.0160   24.6360   28.0900 O.2   170  GNP170     -0.5170
     13  O5'       -2.9130   26.7550   27.6520 O.3   170  GNP170     -0.3111
     14  C5'       -3.2740   28.1630   27.8180 C.3   170  GNP170      0.1813
     15  C4'       -4.5100   28.4800   27.0740 C.3   170  GNP170      0.1799
     16  O4'       -4.3260   28.4130   25.6300 O.3   170  GNP170     -0.3326
     17  C3'       -5.6500   27.5540   27.3380 C.3   170  GNP170      0.2158
     18  O3'       -6.8760   28.2700   27.3280 O.3   170  GNP170     -0.2175
     19  C2'       -5.6830   26.6290   26.1630 C.3   170  GNP170      0.2310
     20  O2'       -6.9690   26.1100   25.8720 O.3   170  GNP170     -0.2158
     21  C1'       -5.2880   27.5000   25.0500 C.3   170  GNP170      0.2293
     22  N9        -4.6760   26.6530   23.9740 N.pl3 170  GNP170     -0.2354
     23  C8        -3.6420   25.7540   24.0420 C.3   170  GNP170      0.2246
     24  N7        -3.1850   25.3090   22.9320 N.2   170  GNP170     -0.2322
     25  C5        -3.9800   25.9330   22.0300 C.2   170  GNP170      0.2182
     26  C6        -3.9790   25.8500   20.6760 C.1   170  GNP170      0.2372
     27  O6        -3.1800   25.1950   20.0190 O.2   170  GNP170     -0.2069
     28  N1        -4.9360   26.5540   20.0740 N.2   170  GNP170     -0.2485
     29  C2        -5.7600   27.3970   20.7030 C.1   170  GNP170      0.2531
     30  N2        -6.7330   28.0080   20.0770 N.pl3 170  GNP170     -0.0226
     31  N3        -5.7750   27.5290   21.9890 N.2   170  GNP170     -0.3074
     32  C4        -4.8460   26.7910   22.6140 C.2   170  GNP170      0.2300
@<TRIPOS>BOND
     1    27    26    2
     2    28    26    2
     3    28    29    2
     4    30    29    1
     5    26    25    1
     6    29    31    2
     7    31    32    2
     8    25    32    1
     9    25    24    2
    10    32    22    1
    11    24    23    1
    12    22    23    1
    13    22    21    1
    14    21    16    1
    15    21    19    1
    16    16    15    1
    17    20    19    1
    18    19    17    1
    19    15    17    1
    20    15    14    1
    21    18    17    1
    22    13    14    1
    23    13    10    1
    24    12    10    2
    25     7     6    2
    26    10     9    1
    27    10    11    1
    28     9     6    1
    29     6     8    1
    30     6     5    1
    31     5     1    1
    32     2     1    2
    33     1     4    1
    34     1     3    1
