@<TRIPOS>MOLECULE
1gue_RET_A_1.pdb
 20 20 0 0 0
SMALL
GASTEIGER

@<TRIPOS>ATOM
      1  C1        23.5430   30.3680    5.9690 C.3   300  RET300      0.0183
      2  C2        22.3980   29.5790    6.7070 C.3   300  RET300      0.0044
      3  C3        21.3520   30.4070    7.4260 C.3   300  RET300      0.0047
      4  C4        20.7660   31.4580    6.5010 C.3   300  RET300      0.0217
      5  C5        21.8030   32.3160    5.7760 C.2   300  RET300     -0.0479
      6  C6        23.1170   31.8570    5.5000 C.2   300  RET300     -0.0307
      7  C7        24.0290   32.7820    4.7930 C.2   300  RET300     -0.0052
      8  C8        25.3310   32.7800    4.3520 C.2   300  RET300     -0.0046
      9  C9        25.9450   33.8680    3.6310 C.2   300  RET300     -0.0219
     10  C10       27.2520   33.7570    3.2660 C.2   300  RET300     -0.0043
     11  C11       27.9800   34.7870    2.5260 C.2   300  RET300     -0.0007
     12  C12       29.2600   34.8200    2.1180 C.2   300  RET300     -0.0046
     13  C13       29.8130   35.9510    1.3580 C.2   300  RET300     -0.0261
     14  C14       31.0820   36.0380    0.9360 C.2   300  RET300     -0.0300
     15  C15       32.2310   35.2570    1.0090 C.3   300  RET300      0.0304
     16  C16       24.7110   30.3710    6.9880 C.3   300  RET300      0.0043
     17  C17       23.9210   29.4950    4.7240 C.3   300  RET300      0.0043
     18  C18       21.2340   33.6680    5.4190 C.3   300  RET300      0.0260
     19  C19       25.1010   35.0960    3.3090 C.3   300  RET300      0.0310
     20  C20       28.8860   37.1180    1.0160 C.3   300  RET300      0.0307
@<TRIPOS>BOND
     1    14    15    1
     2    14    13    2
     3    20    13    1
     4    13    12    1
     5    12    11    2
     6    11    10    1
     7    10     9    2
     8    19     9    1
     9     9     8    1
    10     8     7    2
    11    17     1    1
    12     7     6    1
    13    18     5    1
    14     6     5    2
    15     6     1    1
    16     5     4    1
    17     1     2    1
    18     1    16    1
    19     4     3    1
    20     2     3    1
