@<TRIPOS>MOLECULE
1guf_NDP_A_1.pdb
 48 52 0 0 0
SMALL
GASTEIGER

@<TRIPOS>ATOM
      1  PA        67.4640  -19.9100   58.5140 P.3   1393  NDP1393     0.2189
      2  O1A       67.1180  -18.7880   59.3180 O.3   1393  NDP1393    -0.4371
      3  O2A       68.1430  -21.1490   59.0500 O.2   1393  NDP1393    -0.5170
      4  O5B       66.0700  -20.3080   57.6990 O.3   1393  NDP1393    -0.3112
      5  C5B       66.0560  -21.4360   56.7960 C.3   1393  NDP1393     0.1813
      6  C4B       64.6490  -21.3940   56.1790 C.3   1393  NDP1393     0.1820
      7  O4B       64.5220  -22.4550   55.1980 O.3   1393  NDP1393    -0.3136
      8  C3B       63.4020  -21.4590   57.0350 C.3   1393  NDP1393     0.2157
      9  O3B       62.5110  -20.4340   56.5460 O.3   1393  NDP1393    -0.2175
     10  C2B       62.7860  -22.8090   56.7610 C.3   1393  NDP1393     0.2314
     11  O2B       61.3630  -22.9950   56.8970 O.3   1393  NDP1393    -0.2630
     12  C1B       63.2480  -23.0330   55.3950 C.3   1393  NDP1393     0.3158
     13  N9A       63.2720  -24.4520   55.0130 N.pl3 1393  NDP1393    -0.1439
     14  C8A       63.9730  -25.5090   55.6300 C.3   1393  NDP1393     0.3377
     15  N7A       63.7640  -26.6450   55.0020 N.2   1393  NDP1393    -0.2095
     16  C5A       62.9250  -26.3640   53.9600 C.2   1393  NDP1393     0.2526
     17  C6A       62.3460  -27.1450   52.9360 C.2   1393  NDP1393     0.4393
     18  N6A       62.6150  -28.4630   52.8700 N.pl3 1393  NDP1393     0.2180
     19  N1A       61.5300  -26.5450   52.0250 N.2   1393  NDP1393     0.0021
     20  C2A       61.2770  -25.2120   52.1160 C.3   1393  NDP1393     0.5254
     21  N3A       61.7800  -24.3860   53.0490 N.2   1393  NDP1393    -0.0055
     22  C4A       62.6030  -25.0300   53.9530 C.2   1393  NDP1393     0.3518
     23  O3        68.2670  -19.4060   57.2760 O.3   1393  NDP1393    -0.2703
     24  PN        69.2140  -18.1710   56.9790 P.3   1393  NDP1393     0.2189
     25  O1N       68.4900  -16.9900   56.4690 O.2   1393  NDP1393    -0.5170
     26  O2N       70.6670  -18.4590   56.9370 O.3   1393  NDP1393    -0.4371
     27  O5D       69.2020  -18.7670   55.4470 O.3   1393  NDP1393    -0.3112
     28  C5D       69.7490  -20.0400   55.0080 C.3   1393  NDP1393     0.1813
     29  C4D       69.5100  -20.2630   53.4550 C.3   1393  NDP1393     0.1799
     30  O4D       69.8760  -19.0700   52.7270 O.3   1393  NDP1393    -0.3327
     31  C3D       70.4820  -21.3180   52.9890 C.3   1393  NDP1393     0.2158
     32  O3D       70.0140  -21.9130   51.7730 O.3   1393  NDP1393    -0.2175
     33  C2D       71.7460  -20.5070   52.9160 C.3   1393  NDP1393     0.2309
     34  O2D       72.7600  -21.2680   52.3700 O.3   1393  NDP1393    -0.2158
     35  C1D       71.1540  -19.3040   52.0570 C.3   1393  NDP1393     0.2263
     36  N1N       72.0150  -18.0770   52.1420 N.pl3 1393  NDP1393    -0.2787
     37  C2N       72.7710  -17.8190   50.9890 C.3   1393  NDP1393     0.1244
     38  C3N       73.6150  -16.6580   50.9750 C.2   1393  NDP1393     0.0544
     39  C7N       74.4000  -16.3650   49.7690 C.2   1393  NDP1393     0.2818
     40  O7N       75.2120  -15.4150   49.6820 O.2   1393  NDP1393    -0.2670
     41  N7N       74.2240  -17.1250   48.6610 N.am  1393  NDP1393    -0.0839
     42  C4N       73.6380  -15.8430   52.1110 C.2   1393  NDP1393     0.0033
     43  C5N       72.8860  -16.1100   53.2370 C.2   1393  NDP1393     0.0157
     44  C6N       72.0710  -17.2270   53.2560 C.2   1393  NDP1393     0.0633
     45  P2B       60.5060  -22.9290   58.1750 P.3   1393  NDP1393     0.5328
     46  O1X       59.2060  -23.4000   57.6740 O.2   1393  NDP1393    -0.2224
     47  O2X       60.4630  -21.5640   58.7110 O.3   1393  NDP1393    -0.1145
     48  O3X       61.0970  -23.8920   59.2020 O.3   1393  NDP1393    -0.1145
@<TRIPOS>BOND
     1    41    39   am
     2    40    39    2
     3    39    38    1
     4    38    37    1
     5    38    42    2
     6    37    36    1
     7    32    31    1
     8    19    20    1
     9    19    17    2
    10    35    36    1
    11    35    30    1
    12    35    33    1
    13    42    43    1
    14    20    21    1
    15    36    44    1
    16    34    33    1
    17    30    29    1
    18    18    17    1
    19    33    31    1
    20    17    16    1
    21    31    29    1
    22    21    22    2
    23    43    44    2
    24    29    28    1
    25    22    16    1
    26    22    13    1
    27    16    15    2
    28    15    14    1
    29    28    27    1
    30    13    12    1
    31    13    14    1
    32     7    12    1
    33     7     6    1
    34    12    10    1
    35    27    24    1
    36     6     5    1
    37     6     8    1
    38    25    24    2
    39     9     8    1
    40    10    11    1
    41    10     8    1
    42     5     4    1
    43    11    45    1
    44    26    24    1
    45    24    23    1
    46    23     1    1
    47    46    45    2
    48     4     1    1
    49    45    47    1
    50    45    48    1
    51     1     3    2
    52     1     2    1
