@<TRIPOS>MOLECULE
1guh_GSB_A_1.pdb
 27 27 0 0 0
SMALL
GASTEIGER

@<TRIPOS>ATOM
      1  N1        77.4640   26.2880   13.4250 N.3   223  GSB223     -0.1208
      2  CA1       78.3770   27.2990   12.9280 C.3   223  GSB223      0.1948
      3  C1        78.8190   26.9230   11.5320 C.2   223  GSB223      0.3819
      4  O11       79.0270   27.8030   10.7110 O.co2 223  GSB223     -0.2441
      5  O12       78.9030   25.7340   11.2570 O.co2 223  GSB223     -0.2441
      6  CB1       79.5650   27.3910   13.8500 C.3   223  GSB223      0.0402
      7  CG1       80.3650   28.6330   13.6000 C.3   223  GSB223      0.0889
      8  CD1       81.4160   28.9040   14.6520 C.2   223  GSB223      0.2418
      9  OE1       81.3800   28.3670   15.7590 O.2   223  GSB223     -0.2733
     10  N2        82.3490   29.7790   14.2670 N.am  223  GSB223     -0.1969
     11  CA2       83.4440   30.2350   15.1000 C.3   223  GSB223      0.1834
     12  C2        83.2520   31.7140   15.4090 C.2   223  GSB223      0.2626
     13  O2        83.0810   32.5420   14.5070 O.2   223  GSB223     -0.2714
     14  N3        83.3090   32.0700   16.6910 N.am  223  GSB223     -0.1917
     15  CA3       83.0660   33.4480   17.1070 C.3   223  GSB223      0.2285
     16  C3        81.7270   33.6420   17.8400 C.2   223  GSB223      0.3865
     17  O31       81.4100   34.7740   18.2200 O.co2 223  GSB223     -0.2437
     18  O32       81.0640   32.6460   18.1480 O.co2 223  GSB223     -0.2437
     19  CB2       84.7500   30.0460   14.3840 C.3   223  GSB223      0.0889
     20  SG2       85.0930   28.3100   14.0870 S.3   223  GSB223     -0.1331
     21  C'        85.8130   27.9110   15.6850 C.3   223  GSB223      0.0838
     22  C1'       86.9700   26.9230   15.6790 C.ar  223  GSB223     -0.0113
     23  C2'       88.2210   27.3140   16.1180 C.ar  223  GSB223     -0.0034
     24  C3'       89.2500   26.3830   16.1980 C.ar  223  GSB223     -0.0003
     25  C4'       89.0500   25.0660   15.8410 C.ar  223  GSB223     -0.0000
     26  C5'       87.8020   24.6860   15.3960 C.ar  223  GSB223     -0.0003
     27  C6'       86.7640   25.6040   15.3130 C.ar  223  GSB223     -0.0034
@<TRIPOS>BOND
     1     4     3   ar
     2     5     3   ar
     3     3     2    1
     4     2     1    1
     5     2     6    1
     6     7     6    1
     7     7     8    1
     8    20    19    1
     9    20    21    1
    10    10     8   am
    11    10    11    1
    12    19    11    1
    13    13    12    2
    14     8     9    2
    15    11    12    1
    16    27    26   ar
    17    27    22   ar
    18    26    25   ar
    19    12    14   am
    20    22    21    1
    21    22    23   ar
    22    25    24   ar
    23    23    24   ar
    24    14    15    1
    25    15    16    1
    26    16    18   ar
    27    16    17   ar
