@<TRIPOS>MOLECULE
1gui_BGC_A_1.pdb
 11 11 0 0 0
SMALL
GASTEIGER

@<TRIPOS>ATOM
      1  C2        55.2760   25.3590    6.3900 C.3   602  BGC602      0.2141
      2  C3        55.3160   26.8770    6.3570 C.3   602  BGC602      0.2173
      3  C4        54.0930   27.5050    5.6590 C.3   602  BGC602      0.2142
      4  C5        52.7370   26.7990    5.8160 C.3   602  BGC602      0.1810
      5  C6        51.7470   27.2410    4.7400 C.3   602  BGC602      0.2141
      6  C1        53.8180   24.9700    6.7240 C.3   602  BGC602      0.1777
      7  O2        56.1810   24.8790    7.3640 O.3   602  BGC602     -0.2176
      8  O3        56.4950   27.2700    5.6820 O.3   602  BGC602     -0.2175
      9  O4        53.8410   28.8000    6.1580 O.3   602  BGC602     -0.2176
     10  O5        52.8760   25.4040    5.7610 O.3   602  BGC602     -0.3481
     11  O6        50.9940   26.1150    4.3490 O.3   602  BGC602     -0.2176
@<TRIPOS>BOND
     1    11     5    1
     2     5     4    1
     3     3     4    1
     4     3     9    1
     5     3     2    1
     6     8     2    1
     7    10     4    1
     8    10     6    1
     9     2     1    1
    10     1     6    1
    11     1     7    1
