@<TRIPOS>MOLECULE
1gul_III_I_1.pdb
 28 28 0 0 0
SMALL
GASTEIGER

@<TRIPOS>ATOM
      1  N         19.9230  -15.8760  -44.0230 N.3   231  GGL231     -0.1208
      2  CA        18.9880  -16.1780  -45.1020 C.3   231  GGL231      0.1948
      3  C         18.2920  -17.5270  -44.9410 C.2   231  GGL231      0.3819
      4  O         17.0880  -17.5720  -45.3340 O.co2 231  GGL231     -0.2441
      5  CB        19.6680  -16.0100  -46.4430 C.3   231  GGL231      0.0402
      6  CG        18.9440  -16.6370  -47.6250 C.3   231  GGL231      0.0889
      7  CD        19.8060  -16.4370  -48.8550 C.2   231  GGL231      0.2418
      8  OE1       21.0070  -16.1890  -48.7820 O.2   231  GGL231     -0.2733
      9  OXT       18.8970  -18.3940  -44.2390 O.co2 231  GGL231     -0.2441
     10  C         18.9110  -15.7020  -52.2480 C.2   232  CYS232      0.2626
     11  N         19.1790  -16.5740  -50.0070 N.am  232  CYS232     -0.1969
     12  O         17.6620  -15.8550  -52.2420 O.2   232  CYS232     -0.2714
     13  CA        19.8540  -16.3910  -51.2780 C.3   232  CYS232      0.1834
     14  CB        20.4920  -17.6960  -51.8320 C.3   232  CYS232      0.0889
     15  SG        21.8750  -18.3520  -50.8340 S.3   232  CYS232     -0.1331
     16  I         22.3590  -22.3620  -51.4610 I     232  CYS232     -0.0428
     17  C0        22.8610  -19.2500  -52.0490 C.3   232  CYS232      0.0842
     18  C1        24.0080  -19.8300  -51.2810 C.ar  232  CYS232     -0.0059
     19  C2        23.9340  -21.1420  -50.7950 C.ar  232  CYS232      0.0269
     20  C3        25.0240  -21.5940  -50.0490 C.ar  232  CYS232      0.0055
     21  C4        26.0960  -20.7450  -49.7390 C.ar  232  CYS232      0.0004
     22  C5        26.0930  -19.4090  -50.1340 C.ar  232  CYS232     -0.0003
     23  C6        25.0270  -18.9530  -50.9050 C.ar  232  CYS232     -0.0030
     24  N         19.4970  -14.8300  -53.0340 N.am  233  GLY233     -0.1917
     25  CA        18.6800  -14.0690  -53.9750 C.3   233  GLY233      0.2285
     26  C         19.3340  -12.7630  -54.3350 C.2   233  GLY233      0.3865
     27  O         18.9730  -12.2680  -55.4380 O.co2 233  GLY233     -0.2437
     28  OXT       20.2240  -12.3770  -53.5100 O.co2 233  GLY233     -0.2437
@<TRIPOS>BOND
     1    27    26   ar
     2    26    25    1
     3    26    28   ar
     4    25    24    1
     5    24    10   am
     6    10    12    2
     7    10    13    1
     8    17    18    1
     9    17    15    1
    10    14    13    1
    11    14    15    1
    12    16    19    1
    13    18    23   ar
    14    18    19   ar
    15    13    11    1
    16    23    22   ar
    17    19    20   ar
    18    22    21   ar
    19    20    21   ar
    20    11     7   am
    21     7     8    2
    22     7     6    1
    23     6     5    1
    24     5     2    1
    25     4     3   ar
    26     2     3    1
    27     2     1    1
    28     3     9   ar
