@<TRIPOS>MOLECULE
1gup_GDU_A_1.pdb
 36 38 0 0 0
SMALL
GASTEIGER

@<TRIPOS>ATOM
      1  N1        34.1110   -7.7270   60.7600 N.am  352  GDU352     -0.1766
      2  C2        35.2860   -7.2060   60.1770 C.1   352  GDU352      0.2845
      3  N3        36.1410   -8.1590   59.7180 N.2   352  GDU352     -0.2452
      4  C4        35.9830   -9.5630   59.7350 C.1   352  GDU352      0.2182
      5  C5        34.7600   -9.9830   60.3740 C.2   352  GDU352      0.1242
      6  C6        33.8710   -9.1000   60.8100 C.2   352  GDU352      0.0929
      7  O2        35.5700   -6.0100   60.1060 O.2   352  GDU352     -0.1918
      8  O4        36.8570  -10.2920   59.2400 O.2   352  GDU352     -0.2085
      9  C1D       33.1340   -6.8140   61.3410 C.3   352  GDU352      0.2401
     10  C2D       31.8070   -6.9570   60.6410 C.3   352  GDU352      0.2319
     11  O2D       31.7540   -6.0960   59.4900 O.3   352  GDU352     -0.2157
     12  C3D       30.7720   -6.4910   61.7060 C.3   352  GDU352      0.2158
     13  C4D       31.5440   -6.7040   62.9920 C.3   352  GDU352      0.1799
     14  O4D       32.8640   -7.2190   62.6850 O.3   352  GDU352     -0.3320
     15  O3D       30.4150   -5.0930   61.5450 O.3   352  GDU352     -0.2175
     16  C5D       30.8500   -7.3920   64.1340 C.3   352  GDU352      0.1813
     17  O5D       30.1140   -6.3750   64.8670 O.3   352  GDU352     -0.3112
     18  PA        28.7020   -6.7660   65.5040 P.3   352  GDU352      0.2189
     19  O1A       28.7130   -8.2320   65.8590 O.2   352  GDU352     -0.5170
     20  O2A       28.4330   -5.7880   66.6130 O.3   352  GDU352     -0.4371
     21  O3A       27.4420   -6.5950   64.4640 O.3   352  GDU352     -0.2703
     22  PB        27.3070   -6.1820   62.9530 P.3   352  GDU352      0.2208
     23  O1B       28.0360   -4.8970   62.7380 O.3   352  GDU352     -0.4371
     24  O2B       27.6930   -7.3720   62.1030 O.2   352  GDU352     -0.5170
     25  O3B       25.7480   -5.9010   62.7190 O.3   352  GDU352     -0.2857
     26  C1'       24.9850   -5.5080   63.8500 C.3   352  GDU352      0.2742
     27  C2'       23.5120   -5.5970   63.5180 C.3   352  GDU352      0.2409
     28  C3'       23.2180   -4.6140   62.4050 C.3   352  GDU352      0.2198
     29  C4'       23.4710   -3.1970   62.8850 C.3   352  GDU352      0.2144
     30  C5'       24.9240   -3.1180   63.3440 C.3   352  GDU352      0.1835
     31  C6'       25.3480   -1.8340   64.0420 C.3   352  GDU352      0.2142
     32  O2'       23.2520   -6.9500   63.0830 O.3   352  GDU352     -0.2149
     33  O3'       21.8670   -4.7650   61.9490 O.3   352  GDU352     -0.2174
     34  O4'       22.5880   -2.8040   63.9310 O.3   352  GDU352     -0.2176
     35  O5'       25.2690   -4.1680   64.1970 O.3   352  GDU352     -0.3254
     36  O6'       24.5990   -1.5730   65.2580 O.3   352  GDU352     -0.2176
@<TRIPOS>BOND
     1     8     4    2
     2    11    10    1
     3     3     4    2
     4     3     2    2
     5     4     5    1
     6     7     2    2
     7     2     1   am
     8     5     6    2
     9    10     9    1
    10    10    12    1
    11     1     6    1
    12     1     9    1
    13     9    14    1
    14    15    12    1
    15    12    13    1
    16    33    28    1
    17    24    22    2
    18    28    29    1
    19    28    27    1
    20    14    13    1
    21    25    22    1
    22    25    26    1
    23    23    22    1
    24    29    30    1
    25    29    34    1
    26    22    21    1
    27    13    16    1
    28    32    27    1
    29    30    31    1
    30    30    35    1
    31    27    26    1
    32    26    35    1
    33    31    36    1
    34    16    17    1
    35    21    18    1
    36    17    18    1
    37    18    19    2
    38    18    20    1
