@<TRIPOS>MOLECULE
1guq_GUD_A_1.pdb
 36 38 0 0 0
SMALL
GASTEIGER

@<TRIPOS>ATOM
      1  N1        33.9150   -7.6880   60.8970 N.am  352  GUD352     -0.1766
      2  C2        35.0360   -7.2150   60.2330 C.1   352  GUD352      0.2845
      3  N3        35.8480   -8.1900   59.7060 N.2   352  GUD352     -0.2452
      4  C4        35.7060   -9.5640   59.8360 C.1   352  GUD352      0.2182
      5  C5        34.5190   -9.9620   60.5700 C.2   352  GUD352      0.1242
      6  C6        33.6860   -9.0420   61.0330 C.2   352  GUD352      0.0929
      7  O2        35.2830   -6.0390   60.1010 O.2   352  GUD352     -0.1918
      8  O4        36.5140  -10.3220   59.3030 O.2   352  GUD352     -0.2085
      9  C1D       32.9290   -6.7210   61.4630 C.3   352  GUD352      0.2401
     10  C2D       31.5700   -6.8240   60.7430 C.3   352  GUD352      0.2319
     11  O2D       31.5260   -5.9610   59.6250 O.3   352  GUD352     -0.2157
     12  C3D       30.5230   -6.3490   61.7820 C.3   352  GUD352      0.2158
     13  C4D       31.3300   -6.4820   63.0830 C.3   352  GUD352      0.1799
     14  O4D       32.5640   -7.1650   62.7600 O.3   352  GUD352     -0.3320
     15  O3D       30.2600   -4.9640   61.5550 O.3   352  GUD352     -0.2175
     16  C5D       30.6520   -7.1140   64.3200 C.3   352  GUD352      0.1813
     17  O5D       29.6390   -6.1900   64.7180 O.3   352  GUD352     -0.3112
     18  PA        28.4120   -6.7170   65.5820 P.3   352  GUD352      0.2189
     19  O1A       28.4570   -8.1350   66.0180 O.2   352  GUD352     -0.5170
     20  O2A       28.1010   -5.5900   66.5000 O.3   352  GUD352     -0.4371
     21  O3A       27.2630   -6.7030   64.3880 O.3   352  GUD352     -0.2703
     22  PB        27.1340   -6.1560   62.9210 P.3   352  GUD352      0.2208
     23  O1B       27.7940   -4.8330   62.7120 O.3   352  GUD352     -0.4371
     24  O2B       27.4820   -7.2290   61.8870 O.2   352  GUD352     -0.5170
     25  O3B       25.4810   -5.8690   62.7030 O.3   352  GUD352     -0.2857
     26  C1'       24.7010   -5.5310   63.8870 C.3   352  GUD352      0.2742
     27  C2'       23.1970   -5.6940   63.4820 C.3   352  GUD352      0.2409
     28  C3'       23.0230   -4.8130   62.2840 C.3   352  GUD352      0.2198
     29  C4'       23.2580   -3.3860   62.7210 C.3   352  GUD352      0.2144
     30  C5'       24.6540   -3.1640   63.4030 C.3   352  GUD352      0.1835
     31  C6'       24.8100   -1.8280   64.1160 C.3   352  GUD352      0.2142
     32  O2'       23.0410   -7.0620   63.0650 O.3   352  GUD352     -0.2149
     33  O3'       21.6590   -4.8760   61.8210 O.3   352  GUD352     -0.2174
     34  O4'       23.0920   -2.4280   61.6480 O.3   352  GUD352     -0.2176
     35  O5'       24.9570   -4.2060   64.3380 O.3   352  GUD352     -0.3254
     36  O6'       24.0170   -1.7360   65.2860 O.3   352  GUD352     -0.2176
@<TRIPOS>BOND
     1     8     4    2
     2    11    10    1
     3     3     4    2
     4     3     2    2
     5     4     5    1
     6     7     2    2
     7     2     1   am
     8     5     6    2
     9    10     9    1
    10    10    12    1
    11     1     6    1
    12     1     9    1
    13     9    14    1
    14    15    12    1
    15    34    29    1
    16    12    13    1
    17    33    28    1
    18    24    22    2
    19    28    29    1
    20    28    27    1
    21    25    22    1
    22    25    26    1
    23    23    22    1
    24    29    30    1
    25    14    13    1
    26    22    21    1
    27    32    27    1
    28    13    16    1
    29    30    31    1
    30    30    35    1
    31    27    26    1
    32    26    35    1
    33    31    36    1
    34    16    17    1
    35    21    18    1
    36    17    18    1
    37    18    19    2
    38    18    20    1
