@<TRIPOS>MOLECULE
1guy_NAD_A_1.pdb
 44 48 0 0 0
SMALL
GASTEIGER

@<TRIPOS>ATOM
      1  PA        61.7600   66.5720   10.3490 P.3   1307  NAD1307     0.2189
      2  O1A       60.7930   67.6550   10.1320 O.2   1307  NAD1307    -0.5170
      3  O2A       62.8240   66.6720   11.4490 O.3   1307  NAD1307    -0.4371
      4  O5B       62.6570   66.2750    9.0400 O.3   1307  NAD1307    -0.3112
      5  C5B       62.0900   66.2280    7.6800 C.3   1307  NAD1307     0.1813
      6  C4B       63.1820   66.7900    6.7950 C.3   1307  NAD1307     0.1821
      7  O4B       62.6160   66.7500    5.4060 O.3   1307  NAD1307    -0.3135
      8  C3B       63.5030   68.3140    6.9950 C.3   1307  NAD1307     0.2184
      9  O3B       64.9810   68.4350    7.2830 O.3   1307  NAD1307    -0.2174
     10  C2B       63.1180   69.0470    5.7450 C.3   1307  NAD1307     0.2570
     11  O2B       63.7490   70.1710    5.3540 O.3   1307  NAD1307    -0.2130
     12  C1B       63.1710   67.8520    4.7380 C.3   1307  NAD1307     0.3186
     13  N9A       62.3460   68.0900    3.5820 N.pl3 1307  NAD1307    -0.1439
     14  C8A       61.1140   68.6350    3.3370 C.3   1307  NAD1307     0.3377
     15  N7A       60.7210   68.6600    2.0730 N.2   1307  NAD1307    -0.2095
     16  C5A       61.7240   68.1050    1.3810 C.2   1307  NAD1307     0.2526
     17  C6A       61.8950   67.8440   -0.0880 C.2   1307  NAD1307     0.4393
     18  N6A       61.0030   68.1540   -0.9880 N.pl3 1307  NAD1307     0.2180
     19  N1A       63.0960   67.2480   -0.3590 N.2   1307  NAD1307     0.0021
     20  C2A       64.0880   66.8840    0.4670 C.3   1307  NAD1307     0.5254
     21  N3A       63.9770   67.1110    1.8740 N.2   1307  NAD1307    -0.0055
     22  C4A       62.7690   67.7260    2.2670 C.2   1307  NAD1307     0.3518
     23  O3        61.0310   65.2210   10.5770 O.3   1307  NAD1307    -0.2703
     24  PN        61.2460   63.7730   11.1160 P.3   1307  NAD1307     0.2189
     25  O1N       60.9400   63.7230   12.5610 O.3   1307  NAD1307    -0.4371
     26  O2N       62.6370   63.3610   10.7270 O.2   1307  NAD1307    -0.5170
     27  O5D       60.1490   62.7760   10.4580 O.3   1307  NAD1307    -0.3112
     28  C5D       60.2700   62.6600    8.9840 C.3   1307  NAD1307     0.1813
     29  C4D       59.1610   61.7670    8.4900 C.3   1307  NAD1307     0.1799
     30  O4D       59.1050   60.4850    9.2840 O.3   1307  NAD1307    -0.3327
     31  C3D       57.6880   62.3050    8.6150 C.3   1307  NAD1307     0.2158
     32  O3D       56.9420   62.0190    7.4130 O.3   1307  NAD1307    -0.2175
     33  C2D       57.0530   61.6260    9.8390 C.3   1307  NAD1307     0.2309
     34  O2D       55.6500   61.5330    9.8540 O.3   1307  NAD1307    -0.2158
     35  C1D       57.7410   60.2320    9.8250 C.3   1307  NAD1307     0.2263
     36  N1N       57.8650   59.4910   11.1410 N.pl3 1307  NAD1307    -0.2787
     37  C2N       57.1150   58.3520   11.3950 C.3   1307  NAD1307     0.1244
     38  C3N       57.2620   57.7330   12.6010 C.2   1307  NAD1307     0.0544
     39  C7N       56.4500   56.4870   12.8970 C.2   1307  NAD1307     0.2818
     40  O7N       56.7120   55.3480   12.5400 O.2   1307  NAD1307    -0.2670
     41  N7N       55.2910   56.7800   13.6680 N.am  1307  NAD1307    -0.0839
     42  C4N       58.1770   58.2070   13.6630 C.2   1307  NAD1307     0.0033
     43  C5N       58.8920   59.3740   13.3000 C.2   1307  NAD1307     0.0157
     44  C6N       58.7890   60.0280   12.1250 C.2   1307  NAD1307     0.0633
@<TRIPOS>BOND
     1    18    17    1
     2    19    17    2
     3    19    20    1
     4    17    16    1
     5    20    21    1
     6    16    15    2
     7    16    22    1
     8    21    22    2
     9    15    14    1
    10    22    13    1
    11    14    13    1
    12    13    12    1
    13    12     7    1
    14    12    10    1
    15    11    10    1
    16     7     6    1
    17    10     8    1
    18     6     8    1
    19     6     5    1
    20     8     9    1
    21    32    31    1
    22     5     4    1
    23    29    31    1
    24    29    28    1
    25    29    30    1
    26    31    33    1
    27    28    27    1
    28     4     1    1
    29    30    35    1
    30    35    33    1
    31    35    36    1
    32    33    34    1
    33     2     1    2
    34     1    23    1
    35     1     3    1
    36    27    24    1
    37    23    24    1
    38    26    24    2
    39    24    25    1
    40    36    37    1
    41    36    44    1
    42    37    38    1
    43    44    43    2
    44    40    39    2
    45    38    39    1
    46    38    42    2
    47    39    41   am
    48    43    42    1
