@<TRIPOS>MOLECULE
1guz_NAD_A_1.pdb
 44 48 0 0 0
SMALL
GASTEIGER

@<TRIPOS>ATOM
      1  PA        40.4430   48.8920   46.0950 P.3   1306  NAD1306     0.2189
      2  O1A       41.4480   47.8350   46.2600 O.3   1306  NAD1306    -0.4371
      3  O2A       40.5660   49.9060   44.9550 O.2   1306  NAD1306    -0.5170
      4  O5B       40.3300   49.8490   47.3950 O.3   1306  NAD1306    -0.3112
      5  C5B       40.3120   49.3210   48.7720 C.3   1306  NAD1306     0.1813
      6  C4B       41.0240   50.3660   49.6070 C.3   1306  NAD1306     0.1821
      7  O4B       41.0080   49.8140   51.0050 O.3   1306  NAD1306    -0.3135
      8  C3B       42.5600   50.5420   49.3140 C.3   1306  NAD1306     0.2184
      9  O3B       42.8090   51.9950   48.9870 O.3   1306  NAD1306    -0.2174
     10  C2B       43.3290   50.1020   50.5220 C.3   1306  NAD1306     0.2570
     11  O2B       44.5200   50.6390   50.8460 O.3   1306  NAD1306    -0.2130
     12  C1B       42.2090   50.2450   51.6040 C.3   1306  NAD1306     0.3186
     13  N9A       42.4450   49.3750   52.7370 N.pl3 1306  NAD1306    -0.1439
     14  C8A       42.8720   48.0880   52.9300 C.3   1306  NAD1306     0.3377
     15  N7A       42.9500   47.6720   54.1880 N.2   1306  NAD1306    -0.2095
     16  C5A       42.5570   48.7170   54.9300 C.2   1306  NAD1306     0.2526
     17  C6A       42.4220   48.8930   56.4200 C.2   1306  NAD1306     0.4393
     18  N6A       42.6950   47.9610   57.2970 N.pl3 1306  NAD1306     0.2180
     19  N1A       41.9810   50.1450   56.7390 N.2   1306  NAD1306     0.0021
     20  C2A       41.6700   51.1810   55.9470 C.3   1306  NAD1306     0.5254
     21  N3A       41.7800   51.0670   54.5280 N.2   1306  NAD1306    -0.0055
     22  C4A       42.2290   49.8110   54.0810 C.2   1306  NAD1306     0.3518
     23  O3        39.0110   48.3090   45.9950 O.3   1306  NAD1306    -0.2703
     24  PN        37.5490   48.6700   45.5870 P.3   1306  NAD1306     0.2189
     25  O1N       37.3330   48.3580   44.1580 O.2   1306  NAD1306    -0.5170
     26  O2N       37.3080   50.1050   45.9850 O.3   1306  NAD1306    -0.4371
     27  O5D       36.5150   47.6970   46.3570 O.3   1306  NAD1306    -0.3112
     28  C5D       36.5780   47.8660   47.8310 C.3   1306  NAD1306     0.1813
     29  C4D       35.9080   46.6860   48.4730 C.3   1306  NAD1306     0.1799
     30  O4D       34.4430   46.6550   48.1300 O.3   1306  NAD1306    -0.3327
     31  C3D       36.3800   45.2500   48.0480 C.3   1306  NAD1306     0.2158
     32  O3D       36.4660   44.4060   49.2190 O.3   1306  NAD1306    -0.2175
     33  C2D       35.3480   44.7100   47.0310 C.3   1306  NAD1306     0.2309
     34  O2D       35.2790   43.3110   46.8960 O.3   1306  NAD1306    -0.2158
     35  C1D       34.0260   45.3410   47.5770 C.3   1306  NAD1306     0.2263
     36  N1N       32.8520   45.6070   46.6440 N.pl3 1306  NAD1306    -0.2787
     37  C2N       31.5580   45.2830   47.0230 C.3   1306  NAD1306     0.1244
     38  C3N       30.5340   45.5390   46.1610 C.2   1306  NAD1306     0.0544
     39  C7N       29.1080   45.1900   46.5730 C.2   1306  NAD1306     0.2818
     40  O7N       28.2780   44.6010   45.8980 O.2   1306  NAD1306    -0.2670
     41  N7N       28.8030   45.6410   47.8940 N.am  1306  NAD1306    -0.0839
     42  C4N       30.7240   46.1480   44.8250 C.2   1306  NAD1306     0.0033
     43  C5N       32.0830   46.4410   44.5330 C.2   1306  NAD1306     0.0157
     44  C6N       33.1340   46.2100   45.3510 C.2   1306  NAD1306     0.0633
@<TRIPOS>BOND
     1    25    24    2
     2    43    42    1
     3    43    44    2
     4    42    38    2
     5     3     1    2
     6    44    36    1
     7    24    26    1
     8    24    23    1
     9    24    27    1
    10    40    39    2
    11    23     1    1
    12     1     2    1
    13     1     4    1
    14    38    39    1
    15    38    37    1
    16    27    28    1
    17    39    41   am
    18    36    37    1
    19    36    35    1
    20    34    33    1
    21    33    35    1
    22    33    31    1
    23     4     5    1
    24    35    30    1
    25    28    29    1
    26    31    29    1
    27    31    32    1
    28    30    29    1
    29     5     6    1
    30     9     8    1
    31     8     6    1
    32     8    10    1
    33     6     7    1
    34    10    11    1
    35    10    12    1
    36     7    12    1
    37    12    13    1
    38    13    14    1
    39    13    22    1
    40    14    15    1
    41    22    21    2
    42    22    16    1
    43    15    16    2
    44    21    20    1
    45    16    17    1
    46    20    19    1
    47    17    19    2
    48    17    18    1
