@<TRIPOS>MOLECULE
1gv0_NAD_A_1.pdb
 44 48 0 0 0
SMALL
GASTEIGER

@<TRIPOS>ATOM
      1  PA        66.6040  109.1510   99.4890 P.3   1306  NAD1306     0.2189
      2  O1A       67.0950  109.3370  100.8610 O.3   1306  NAD1306    -0.4371
      3  O2A       67.1260  107.9980   98.6080 O.2   1306  NAD1306    -0.5170
      4  O5B       66.8630  110.4450   98.5750 O.3   1306  NAD1306    -0.3112
      5  C5B       66.5490  111.7970   99.0360 C.3   1306  NAD1306     0.1813
      6  C4B       67.6580  112.6430   98.4600 C.3   1306  NAD1306     0.1821
      7  O4B       67.3720  114.0400   98.9220 O.3   1306  NAD1306    -0.3135
      8  C3B       69.0930  112.3650   99.0340 C.3   1306  NAD1306     0.2184
      9  O3B       69.9950  111.9900   97.8940 O.3   1306  NAD1306    -0.2174
     10  C2B       69.5650  113.5880   99.7550 C.3   1306  NAD1306     0.2570
     11  O2B       70.8680  113.9240   99.8070 O.3   1306  NAD1306    -0.2130
     12  C1B       68.6230  114.6530   99.1080 C.3   1306  NAD1306     0.3186
     13  N9A       68.4200  115.7870   99.9920 N.pl3 1306  NAD1306    -0.1439
     14  C8A       68.2040  115.9820  101.3310 C.3   1306  NAD1306     0.3377
     15  N7A       68.0790  117.2450  101.7290 N.2   1306  NAD1306    -0.2095
     16  C5A       68.2120  117.9820  100.6210 C.2   1306  NAD1306     0.2526
     17  C6A       68.1760  119.4670  100.4000 C.2   1306  NAD1306     0.4393
     18  N6A       67.9930  120.3480  101.3510 N.pl3 1306  NAD1306     0.2180
     19  N1A       68.3590  119.7840   99.0850 N.2   1306  NAD1306     0.0021
     20  C2A       68.5540  118.9910   98.0280 C.3   1306  NAD1306     0.5254
     21  N3A       68.5990  117.5750   98.1850 N.2   1306  NAD1306    -0.0055
     22  C4A       68.4210  117.1330   99.5050 C.2   1306  NAD1306     0.3518
     23  O3        65.0620  109.0570   99.4430 O.3   1306  NAD1306    -0.2703
     24  PN        63.8890  108.6780   98.4940 P.3   1306  NAD1306     0.2189
     25  O1N       63.6340  107.2250   98.6130 O.3   1306  NAD1306    -0.4371
     26  O2N       64.2630  109.1940   97.1170 O.2   1306  NAD1306    -0.5170
     27  O5D       62.5220  109.4070   98.9990 O.3   1306  NAD1306    -0.3112
     28  C5D       62.6250  110.8940   98.9230 C.3   1306  NAD1306     0.1813
     29  C4D       61.4320  111.5220   99.6100 C.3   1306  NAD1306     0.1799
     30  O4D       60.1460  111.1000   98.9530 O.3   1306  NAD1306    -0.3327
     31  C3D       61.1670  111.1500  101.1090 C.3   1306  NAD1306     0.2158
     32  O3D       60.7230  112.3250  101.8250 O.3   1306  NAD1306    -0.2175
     33  C2D       60.0970  110.0520  101.1020 C.3   1306  NAD1306     0.2309
     34  O2D       59.4020  109.8340  102.3030 O.3   1306  NAD1306    -0.2158
     35  C1D       59.1840  110.5490   99.9350 C.3   1306  NAD1306     0.2263
     36  N1N       58.2950  109.5640   99.1910 N.pl3 1306  NAD1306    -0.2787
     37  C2N       56.9720  109.8690   98.8840 C.3   1306  NAD1306     0.1244
     38  C3N       56.2250  108.9370   98.2130 C.2   1306  NAD1306     0.0544
     39  C7N       54.7680  109.2320   97.8520 C.2   1306  NAD1306     0.2818
     40  O7N       53.8960  108.4070   97.6320 O.2   1306  NAD1306    -0.2670
     41  N7N       54.4880  110.6250   97.7830 N.am  1306  NAD1306    -0.0839
     42  C4N       56.7580  107.6190   97.8000 C.2   1306  NAD1306     0.0033
     43  C5N       58.1100  107.4170   98.1640 C.2   1306  NAD1306     0.0157
     44  C6N       58.8830  108.2990   98.8190 C.2   1306  NAD1306     0.0633
@<TRIPOS>BOND
     1    26    24    2
     2    40    39    2
     3    41    39   am
     4    42    43    1
     5    42    38    2
     6    39    38    1
     7     9     8    1
     8    20    21    1
     9    20    19    1
    10    43    44    2
    11    21    22    2
    12    38    37    1
    13     6     7    1
    14     6     8    1
    15     6     5    1
    16    24    25    1
    17    24    27    1
    18    24    23    1
    19     4     5    1
    20     4     1    1
    21     3     1    2
    22    44    36    1
    23    37    36    1
    24     7    12    1
    25    28    27    1
    26    28    29    1
    27    30    29    1
    28    30    35    1
    29     8    10    1
    30    19    17    2
    31    12    10    1
    32    12    13    1
    33    36    35    1
    34    23     1    1
    35     1     2    1
    36    22    13    1
    37    22    16    1
    38    29    31    1
    39    10    11    1
    40    35    33    1
    41    13    14    1
    42    17    16    1
    43    17    18    1
    44    16    15    2
    45    33    31    1
    46    33    34    1
    47    31    32    1
    48    14    15    1
