@<TRIPOS>MOLECULE
1gvc_NTA_A_1.pdb
 13 12 0 0 0
SMALL
GASTEIGER

@<TRIPOS>ATOM
      1  N1       -35.3040   33.0920    6.6550 N.3   1252  NTA1252    -0.2440
      2  C6       -34.4060   32.5590    7.6500 C.3   1252  NTA1252     0.1886
      3  C10      -35.5340   34.5090    6.6920 C.3   1252  NTA1252     0.1886
      4  C2       -36.2990   32.2110    6.0820 C.3   1252  NTA1252     0.1886
      5  C7       -33.1600   31.9240    7.1020 C.2   1252  NTA1252     0.3809
      6  O8       -33.0910   31.5540    5.9440 O.co2 1252  NTA1252    -0.2441
      7  O9       -32.2190   31.7790    7.8520 O.co2 1252  NTA1252    -0.2441
      8  C3       -36.2570   32.0610    4.5910 C.2   1252  NTA1252     0.3809
      9  C11      -35.4060   35.3000    5.4140 C.2   1252  NTA1252     0.3809
     10  O12      -34.5130   35.1480    4.5590 O.co2 1252  NTA1252    -0.2441
     11  O13      -36.2610   36.1640    5.3210 O.co2 1252  NTA1252    -0.2441
     12  O4       -37.1600   31.4200    4.0810 O.co2 1252  NTA1252    -0.2441
     13  O5       -35.3810   32.5620    3.9190 O.co2 1252  NTA1252    -0.2441
@<TRIPOS>BOND
     1    13     8   ar
     2    12     8   ar
     3    10     9   ar
     4     8     4    1
     5    11     9   ar
     6     9     3    1
     7     6     5   ar
     8     4     1    1
     9     1     3    1
    10     1     2    1
    11     5     2    1
    12     5     7   ar
