@<TRIPOS>MOLECULE
1gve_CIT_A_1.pdb
 13 12 0 0 0
SMALL
GASTEIGER

@<TRIPOS>ATOM
      1  C1        31.1200    1.1710   10.2040 C.2   1331  CIT1331     0.3680
      2  O1        31.2230    1.4980   11.4100 O.co2 1331  CIT1331    -0.2455
      3  O2        30.2110    1.6440    9.4890 O.co2 1331  CIT1331    -0.2455
      4  C2        32.0610    0.1170    9.6290 C.3   1331  CIT1331     0.1560
      5  C3        33.5050    0.5840    9.2950 C.3   1331  CIT1331     0.2402
      6  O7        34.2200    0.9050   10.5070 O.3   1331  CIT1331    -0.2129
      7  C4        34.2700   -0.5100    8.5360 C.3   1331  CIT1331     0.1560
      8  C5        34.0510   -1.8660    9.1440 C.2   1331  CIT1331     0.3680
      9  O3        33.7610   -2.8170    8.4070 O.co2 1331  CIT1331    -0.2455
     10  O4        34.1590   -2.0230   10.3580 O.co2 1331  CIT1331    -0.2455
     11  C6        33.5010    1.7300    8.2880 C.2   1331  CIT1331     0.3927
     12  O5        32.7520    1.4850    7.3230 O.co2 1331  CIT1331    -0.2429
     13  O6        34.2480    2.7910    8.3340 O.co2 1331  CIT1331    -0.2429
@<TRIPOS>BOND
     1    12    11   ar
     2    11    13   ar
     3    11     5    1
     4     9     8   ar
     5     7     8    1
     6     7     5    1
     7     8    10   ar
     8     5     4    1
     9     5     6    1
    10     3     1   ar
    11     4     1    1
    12     1     2   ar
