@<TRIPOS>MOLECULE
1gve_NAP_A_1.pdb
 48 52 0 0 0
SMALL
GASTEIGER

@<TRIPOS>ATOM
      1  PA        25.4310    9.3710    8.8140 P.3   1328  NAP1328     0.2189
      2  O1A       25.1820    8.9350   10.2240 O.3   1328  NAP1328    -0.4371
      3  O2A       25.0150   10.7540    8.4100 O.2   1328  NAP1328    -0.5170
      4  O5B       24.6900    8.2650    7.9200 O.3   1328  NAP1328    -0.3112
      5  C5B       24.5360    8.4960    6.5380 C.3   1328  NAP1328     0.1813
      6  C4B       23.2360    7.9030    6.0210 C.3   1328  NAP1328     0.1820
      7  O4B       22.0950    8.6020    6.5410 O.3   1328  NAP1328    -0.3136
      8  C3B       23.0860    7.9900    4.4930 C.3   1328  NAP1328     0.2157
      9  O3B       23.7880    6.9600    3.8460 O.3   1328  NAP1328    -0.2175
     10  C2B       21.5780    7.8910    4.3570 C.3   1328  NAP1328     0.2314
     11  O2B       21.0820    6.5540    4.5730 O.3   1328  NAP1328    -0.2630
     12  C1B       21.1020    8.7160    5.5300 C.3   1328  NAP1328     0.3158
     13  N9A       21.0620   10.1460    5.1800 N.pl3 1328  NAP1328    -0.1439
     14  C8A       22.1000   11.0340    5.1400 C.3   1328  NAP1328     0.3377
     15  N7A       21.6380   12.2310    4.7420 N.2   1328  NAP1328    -0.2095
     16  C5A       20.3270   12.1200    4.5310 C.2   1328  NAP1328     0.2526
     17  C6A       19.2770   13.0070    4.0720 C.2   1328  NAP1328     0.4393
     18  N6A       19.5280   14.2720    3.7100 N.pl3 1328  NAP1328     0.2180
     19  N1A       18.0370   12.5130    3.9490 N.2   1328  NAP1328     0.0021
     20  C2A       17.7260   11.2150    4.2170 C.3   1328  NAP1328     0.5254
     21  N3A       18.6600   10.3380    4.6440 N.2   1328  NAP1328    -0.0055
     22  C4A       19.9400   10.7540    4.7920 C.2   1328  NAP1328     0.3518
     23  O3        26.9660    9.2250    8.4190 O.3   1328  NAP1328    -0.2703
     24  PN        27.8790    7.9600    8.1210 P.3   1328  NAP1328     0.2189
     25  O1N       27.8290    7.7950    6.6340 O.2   1328  NAP1328    -0.5170
     26  O2N       27.4850    6.7420    8.8530 O.3   1328  NAP1328    -0.4371
     27  O5D       29.3370    8.5370    8.3990 O.3   1328  NAP1328    -0.3112
     28  C5D       29.7590    9.4870    7.4390 C.3   1328  NAP1328     0.1813
     29  C4D       31.1530    9.0840    6.9930 C.3   1328  NAP1328     0.1799
     30  O4D       31.8890    8.7780    8.1920 O.3   1328  NAP1328    -0.3327
     31  C3D       31.2990    7.9100    6.0450 C.3   1328  NAP1328     0.2158
     32  O3D       31.1850    8.2230    4.6590 O.3   1328  NAP1328    -0.2175
     33  C2D       32.7290    7.5390    6.3580 C.3   1328  NAP1328     0.2309
     34  O2D       33.5960    8.4040    5.6430 O.3   1328  NAP1328    -0.2158
     35  C1D       32.9410    7.9080    7.8340 C.3   1328  NAP1328     0.2263
     36  N1N       32.7880    6.8120    8.7190 N.pl3 1328  NAP1328    -0.2787
     37  C2N       33.8620    6.2090    9.3740 C.3   1328  NAP1328     0.1244
     38  C3N       33.7150    4.9960   10.1310 C.2   1328  NAP1328     0.0544
     39  C7N       34.8220    4.5140   10.8940 C.2   1328  NAP1328     0.2818
     40  O7N       34.7300    3.3470   11.5090 O.2   1328  NAP1328    -0.2670
     41  N7N       35.9650    5.3160   10.9500 N.am  1328  NAP1328    -0.0839
     42  C4N       32.4410    4.3460   10.1910 C.2   1328  NAP1328     0.0033
     43  C5N       31.2810    4.9550    9.5860 C.2   1328  NAP1328     0.0157
     44  C6N       31.5590    6.1140    8.7430 C.2   1328  NAP1328     0.0633
     45  P2B       20.6120    5.5900    3.3570 P.3   1328  NAP1328     0.5328
     46  O1X       21.8840    5.0690    2.7420 O.3   1328  NAP1328    -0.1145
     47  O2X       19.8900    4.4630    4.0580 O.3   1328  NAP1328    -0.1145
     48  O3X       19.8760    6.4460    2.3190 O.2   1328  NAP1328    -0.2224
@<TRIPOS>BOND
     1    48    45    2
     2    46    45    1
     3    45    47    1
     4    45    11    1
     5    18    17    1
     6     9     8    1
     7    19    17    2
     8    19    20    1
     9    17    16    1
    10    20    21    1
    11    10     8    1
    12    10    11    1
    13    10    12    1
    14     8     6    1
    15    16    15    2
    16    16    22    1
    17    21    22    2
    18    32    31    1
    19    15    14    1
    20    22    13    1
    21    14    13    1
    22    13    12    1
    23    12     7    1
    24    34    33    1
    25     6     5    1
    26     6     7    1
    27    31    33    1
    28    31    29    1
    29    33    35    1
    30     5     4    1
    31    25    24    2
    32    29    28    1
    33    29    30    1
    34    28    27    1
    35    35    30    1
    36    35    36    1
    37     4     1    1
    38    24    27    1
    39    24    23    1
    40    24    26    1
    41     3     1    2
    42    23     1    1
    43    36    44    1
    44    36    37    1
    45    44    43    2
    46     1     2    1
    47    37    38    1
    48    43    42    1
    49    38    42    2
    50    38    39    1
    51    39    41   am
    52    39    40    2
