@<TRIPOS>MOLECULE
1gvf_PGH_A_1.pdb
 10 9 0 0 0
SMALL
GASTEIGER

@<TRIPOS>ATOM
      1  C1        17.7180   38.5240   21.0600 C.2   287  PGH287      0.1177
      2  C2        16.4750   38.1420   19.9690 C.3   287  PGH287      0.2044
      3  N2        17.2450   39.4770   21.8000 N.am  287  PGH287     -0.2004
      4  O2        18.2060   39.7860   22.8350 O.3   287  PGH287     -0.4026
      5  O1        18.6930   37.8170   21.1860 O.2   287  PGH287     -0.5374
      6  O1P       17.2530   38.0120   18.6620 O.3   287  PGH287     -0.2633
      7  O2P       16.2570   39.2300   16.8190 O.3   287  PGH287     -0.1145
      8  O3P       15.0890   37.3110   17.5890 O.3   287  PGH287     -0.1145
      9  O4P       17.2700   36.9200   16.4350 O.2   287  PGH287     -0.2224
     10  P         16.4490   37.8720   17.3080 P.3   287  PGH287      0.5330
@<TRIPOS>BOND
     1     9    10    2
     2     7    10    1
     3    10     8    1
     4    10     6    1
     5     6     2    1
     6     2     1    1
     7     1     5    2
     8     1     3   am
     9     3     4    1
