@<TRIPOS>MOLECULE
1gvg_AKG_A_1.pdb
 10 9 0 0 0
SMALL
GASTEIGER

@<TRIPOS>ATOM
      1  C1        -2.4890    5.7350    4.8380 C.2   326  AKG326      0.4219
      2  O1        -1.4810    5.0250    4.9050 O.co2 326  AKG326     -0.2373
      3  O2        -2.4620    7.0360    5.1280 O.co2 326  AKG326     -0.2373
      4  C2        -3.7720    5.1220    4.4540 C.2   326  AKG326      0.2526
      5  O5        -3.7410    4.0250    3.9520 O.2   326  AKG326     -0.2843
      6  C3        -5.0830    5.8630    4.6880 C.3   326  AKG326      0.0881
      7  C4        -6.3370    4.9290    4.6140 C.3   326  AKG326      0.1224
      8  C5        -7.6060    5.7470    4.7480 C.2   326  AKG326      0.3653
      9  O3        -8.7160    5.0790    4.6670 O.co2 326  AKG326     -0.2456
     10  O4        -7.5840    6.9480    4.9220 O.co2 326  AKG326     -0.2456
@<TRIPOS>BOND
     1     5     4    2
     2     4     6    1
     3     4     1    1
     4     7     6    1
     5     7     8    1
     6     9     8   ar
     7     8    10   ar
     8     1     2   ar
     9     1     3   ar
