@<TRIPOS>MOLECULE
1gvg_PCX_A_1.pdb
 16 16 0 0 0
SMALL
GASTEIGER

@<TRIPOS>ATOM
      1  N1         2.7550    6.4030    4.8470 N.am  331  PCX331     -0.2708
      2  C1         2.0350    7.4460    4.1570 C.3   331  PCX331      0.1791
      3  C2         0.8000    7.0360    3.3490 C.3   331  PCX331      0.0352
      4  C4         1.1550    6.1400    2.1170 C.3   331  PCX331      0.0492
      5  C5         1.9270    6.9490    1.0170 C.3   331  PCX331      0.2205
      6  N2         1.7560    6.2770   -0.2940 N.pl3 331  PCX331     -0.0865
      7  C6         2.5800    5.3100   -0.7740 C.cat 331  PCX331      0.5346
      8  N3         3.6430    4.8890   -0.0720 N.pl3 331  PCX331      0.1354
      9  N4         2.3050    4.8000   -1.9420 N.pl3 331  PCX331      0.1354
     10  C3         1.5870    8.3340    5.3030 C.2   331  PCX331      0.3825
     11  O1         1.2780    7.8860    6.4120 O.co2 331  PCX331     -0.2438
     12  O2         1.5370    9.6290    5.0260 O.co2 331  PCX331     -0.2438
     13  C8         3.9550    6.2140    5.4670 C.2   331  PCX331      0.2277
     14  C9         3.5910    4.8050    5.7990 C.3   331  PCX331      0.1067
     15  O4         4.8890    6.9460    5.6450 O.2   331  PCX331     -0.2748
     16  C7         2.2970    5.0710    5.1000 C.3   331  PCX331      0.1034
@<TRIPOS>BOND
     1     9     7    1
     2     7     6    2
     3     7     8    1
     4     6     5    1
     5     5     4    1
     6     4     3    1
     7     3     2    1
     8     2     1    1
     9     2    10    1
    10     1    16    1
    11     1    13   am
    12    12    10   ar
    13    16    14    1
    14    10    11   ar
    15    13    15    2
    16    13    14    1
