@<TRIPOS>MOLECULE
1gvh_HEM_A_1.pdb
 43 50 0 0 0
SMALL
GASTEIGER

@<TRIPOS>ATOM
      1 FE         48.1810   14.1240  115.0980 Fe    1398  HEM1398     0.0000
      2  CHA       49.8620   16.5720  113.3770 C.2   1398  HEM1398     0.0000
      3  CHB       45.9330   13.8210  112.4800 C.2   1398  HEM1398     0.0000
      4  CHC       46.0590   12.1830  117.0670 C.2   1398  HEM1398     0.0000
      5  CHD       49.7360   15.1160  118.0620 C.2   1398  HEM1398     0.0000
      6  NA        47.9900   14.9480  113.2890 N.ar  1398  HEM1398     0.0000
      7  C1A       48.7930   15.9320  112.7170 C.ar  1398  HEM1398     0.0000
      8  C2A       48.3180   16.3030  111.3700 C.ar  1398  HEM1398     0.0000
      9  C3A       47.1900   15.5750  111.1650 C.ar  1398  HEM1398     0.0000
     10  C4A       46.9940   14.7290  112.3420 C.ar  1398  HEM1398     0.0000
     11  CMA       46.2870   15.6340  109.9330 C.3   1398  HEM1398     0.0000
     12  CAA       49.0290   17.1910  110.3300 C.3   1398  HEM1398     0.0000
     13  CBA       49.8950   16.2930  109.4620 C.3   1398  HEM1398     0.0000
     14  CGA       50.7960   17.0530  108.5040 C.2   1398  HEM1398     0.0000
     15  O1A       51.6410   17.8040  108.9880 O.co2 1398  HEM1398     0.0000
     16  O2A       50.9010   16.6200  107.3570 O.co2 1398  HEM1398     0.0000
     17  NB        46.4210   13.2070  114.8130 N.2   1398  HEM1398     0.0000
     18  C1B       45.6920   13.0740  113.6290 C.2   1398  HEM1398     0.0000
     19  C2B       44.6000   12.1140  113.7660 C.2   1398  HEM1398     0.0000
     20  C3B       44.5970   11.6860  115.0650 C.2   1398  HEM1398     0.0000
     21  C4B       45.7050   12.4030  115.7220 C.2   1398  HEM1398     0.0000
     22  CMB       43.5390   11.8130  112.7130 C.3   1398  HEM1398     0.0000
     23  CAB       43.6590   10.8860  115.7720 C.3   1398  HEM1398     0.0000
     24  CBB       43.2010    9.5290  115.5680 C.3   1398  HEM1398     0.0000
     25  NC        48.0170   13.7000  117.0890 N.ar  1398  HEM1398     0.0000
     26  C1C       47.1470   12.7800  117.7040 C.ar  1398  HEM1398     0.0000
     27  C2C       47.4370   12.6100  119.1440 C.ar  1398  HEM1398     0.0000
     28  C3C       48.4280   13.4750  119.4400 C.ar  1398  HEM1398     0.0000
     29  C4C       48.7660   14.1650  118.1740 C.ar  1398  HEM1398     0.0000
     30  CMC       46.7230   11.6540  120.1270 C.3   1398  HEM1398     0.0000
     31  CAC       49.0670   13.5360  120.6880 C.3   1398  HEM1398     0.0000
     32  CBC       48.9820   14.5700  121.6990 C.3   1398  HEM1398     0.0000
     33  ND        49.5570   15.4370  115.6030 N.2   1398  HEM1398     0.0000
     34  C1D       50.1360   15.6760  116.8540 C.2   1398  HEM1398     0.0000
     35  C2D       51.1870   16.6910  116.7450 C.2   1398  HEM1398     0.0000
     36  C3D       51.2150   17.1210  115.4630 C.2   1398  HEM1398     0.0000
     37  C4D       50.2000   16.3610  114.7320 C.2   1398  HEM1398     0.0000
     38  CMD       52.0910   17.2040  117.8710 C.3   1398  HEM1398     0.0000
     39  CAD       52.1630   18.1900  114.9160 C.3   1398  HEM1398     0.0000
     40  CBD       51.5620   19.5730  115.0780 C.3   1398  HEM1398     0.0000
     41  CGD       52.5700   20.5940  115.5810 C.2   1398  HEM1398     0.0000
     42  O1D       53.6660   20.6470  115.0200 O.co2 1398  HEM1398     0.0000
     43  O2D       52.2020   21.4250  116.4190 O.co2 1398  HEM1398     0.0000
@<TRIPOS>BOND
     1    16    14   ar
     2    14    15   ar
     3    14    13    1
     4    13    12    1
     5    11     9    1
     6    12     8    1
     7     9     8   ar
     8     9    10   ar
     9     8     7   ar
    10    10     3    2
    11    10     6   ar
    12     3    18    1
    13    22    19    1
    14     7     6   ar
    15     7     2    2
    16     6     1    1
    17     2    37    1
    18    18    19    1
    19    18    17    2
    20    19    20    2
    21    37    36    1
    22    37    33    2
    23    17     1    1
    24    17    21    1
    25    39    40    1
    26    39    36    1
    27    42    41   ar
    28    20    21    1
    29    20    23    1
    30    40    41    1
    31     1    33    1
    32     1    25    1
    33    36    35    2
    34    24    23    1
    35    41    43   ar
    36    33    34    1
    37    21     4    2
    38    35    34    1
    39    35    38    1
    40    34     5    2
    41     4    26    1
    42    25    26   ar
    43    25    29   ar
    44    26    27   ar
    45     5    29    1
    46    29    28   ar
    47    27    28   ar
    48    27    30    1
    49    28    31    1
    50    31    32    1
