@<TRIPOS>MOLECULE
1gvo_DNF_A_1.pdb
 13 13 0 0 0
SMALL
GASTEIGER

@<TRIPOS>ATOM
      1  C1        20.0790    9.0060   21.1990 C.2   500  DNF500      0.1998
      2  O1        19.3860    8.5790   22.1500 O.2   500  DNF500     -0.2892
      3  C2        20.7190   10.3230   21.1490 C.2   500  DNF500      0.1793
      4  N2        20.5790   11.2580   22.2560 N.pl3 500  DNF500      0.0606
      5  O21       19.4900   11.4920   22.7030 O.2   500  DNF500     -0.1260
      6  O22       21.5540   11.6460   22.8470 O.2   500  DNF500     -0.1260
      7  C3        21.4910   10.7540   20.0470 C.2   500  DNF500      0.0508
      8  C4        21.6780    9.9100   18.9320 C.2   500  DNF500      0.1408
      9  N4        22.4750   10.3810   17.8060 N.pl3 500  DNF500      0.0574
     10  O41       22.5460   11.5820   17.5830 O.2   500  DNF500     -0.1261
     11  O42       22.7960    9.5560   16.9330 O.2   500  DNF500     -0.1261
     12  C5        21.0940    8.6060   18.8970 C.2   500  DNF500      0.0062
     13  C6        20.3020    8.1710   20.0290 C.3   500  DNF500      0.0986
@<TRIPOS>BOND
     1    11     9    2
     2    10     9    2
     3     9     8    1
     4    12     8    2
     5    12    13    1
     6     8     7    1
     7    13     1    1
     8     7     3    2
     9     3     1    1
    10     3     4    1
    11     1     2    2
    12     4     5    2
    13     4     6    2
