@<TRIPOS>MOLECULE
1gvo_FMN_A_1.pdb
 31 33 0 0 0
SMALL
GASTEIGER

@<TRIPOS>ATOM
      1  N1        21.6330    7.8470   24.2350 N.2   401  FMN401     -0.2890
      2  C2        20.9360    6.6780   24.0820 C.1   401  FMN401      0.3669
      3  O2        20.0210    6.3490   24.8010 O.2   401  FMN401     -0.1744
      4  N3        21.1850    5.8870   22.9050 N.2   401  FMN401     -0.2300
      5  C4        22.2390    6.0600   22.0570 C.1   401  FMN401      0.2513
      6  O4        22.4250    5.2880   21.1030 O.2   401  FMN401     -0.2057
      7  C4A       23.0100    7.2990   22.2470 C.2   401  FMN401      0.2700
      8  N5        23.8550    7.7300   21.3150 N.2   401  FMN401     -0.3878
      9  C5A       24.6580    8.8070   21.6020 C.2   401  FMN401      0.1320
     10  C6        25.7780    9.1350   20.7250 C.2   401  FMN401      0.0250
     11  C7        26.6780   10.1300   20.9840 C.2   401  FMN401     -0.0238
     12  C7M       27.9670   10.3160   20.1670 C.3   401  FMN401      0.0308
     13  C8        26.5090   10.9510   22.2020 C.2   401  FMN401     -0.0280
     14  C8M       27.4450   12.0940   22.5150 C.3   401  FMN401      0.0304
     15  C9        25.3960   10.7090   23.0040 C.2   401  FMN401     -0.0041
     16  C9A       24.5090    9.6230   22.7980 C.3   401  FMN401      0.1497
     17  N10       23.5070    9.1850   23.7180 N.pl3 401  FMN401     -0.2691
     18  C10       22.6840    8.1060   23.4550 C.2   401  FMN401      0.2416
     19  C1'       23.4020    9.8040   25.0570 C.3   401  FMN401      0.1294
     20  C2'       24.3950    9.1540   26.0210 C.3   401  FMN401      0.2044
     21  O2'       24.0330    7.8250   26.3760 O.3   401  FMN401     -0.2185
     22  C3'       24.4830    9.9690   27.3300 C.3   401  FMN401      0.2164
     23  O3'       23.2110    9.8720   28.0470 O.3   401  FMN401     -0.2175
     24  C4'       24.9080   11.4140   27.1670 C.3   401  FMN401      0.2147
     25  O4'       26.0790   11.4980   26.3110 O.3   401  FMN401     -0.2176
     26  C5'       25.1750   12.1740   28.4430 C.3   401  FMN401      0.1892
     27  O5'       26.1920   11.5030   29.2080 O.3   401  FMN401     -0.2674
     28  P         27.7170   11.9550   29.1930 P.3   401  FMN401      0.5327
     29  O1P       28.2730   11.7810   27.8080 O.2   401  FMN401     -0.2224
     30  O2P       27.7790   13.3790   29.7070 O.3   401  FMN401     -0.1145
     31  O3P       28.3730   10.9810   30.2350 O.3   401  FMN401     -0.1145
@<TRIPOS>BOND
     1    12    11    1
     2    10    11    2
     3    10     9    1
     4    11    13    1
     5     6     5    2
     6     8     9    2
     7     8     7    2
     8     9    16    1
     9     5     7    1
    10     5     4    2
    11    13    14    1
    12    13    15    2
    13     7    18    1
    14    16    15    1
    15    16    17    1
    16     4     2    2
    17    18    17    1
    18    18     1    2
    19    17    19    1
    20     2     1    2
    21     2     3    2
    22    19    20    1
    23    20    21    1
    24    20    22    1
    25    25    24    1
    26    24    22    1
    27    24    26    1
    28    22    23    1
    29    29    28    2
    30    26    27    1
    31    28    27    1
    32    28    30    1
    33    28    31    1
