@<TRIPOS>MOLECULE
1gvq_FMN_A_1.pdb
 31 33 0 0 0
SMALL
GASTEIGER

@<TRIPOS>ATOM
      1  N1        21.5460    7.7450   24.2040 N.2   401  FMN401     -0.2890
      2  C2        20.8350    6.5910   24.0050 C.1   401  FMN401      0.3669
      3  O2        19.9070    6.2480   24.7080 O.2   401  FMN401     -0.1744
      4  N3        21.1190    5.8030   22.8250 N.2   401  FMN401     -0.2300
      5  C4        22.1610    6.0200   21.9790 C.1   401  FMN401      0.2513
      6  O4        22.3510    5.2830   21.0030 O.2   401  FMN401     -0.2057
      7  C4A       22.9170    7.2640   22.2040 C.2   401  FMN401      0.2700
      8  N5        23.8070    7.6960   21.3170 N.2   401  FMN401     -0.3878
      9  C5A       24.6480    8.7200   21.6680 C.2   401  FMN401      0.1320
     10  C6        25.7000    9.1510   20.7500 C.2   401  FMN401      0.0250
     11  C7        26.6250   10.1180   21.0630 C.2   401  FMN401     -0.0238
     12  C7M       27.9520   10.2700   20.3070 C.3   401  FMN401      0.0308
     13  C8        26.4700   10.8740   22.3160 C.2   401  FMN401     -0.0280
     14  C8M       27.2930   12.1210   22.5790 C.3   401  FMN401      0.0304
     15  C9        25.3430   10.6070   23.0950 C.2   401  FMN401     -0.0041
     16  C9A       24.4700    9.5200   22.8640 C.3   401  FMN401      0.1497
     17  N10       23.4540    9.0570   23.7650 N.pl3 401  FMN401     -0.2691
     18  C10       22.5930    8.0280   23.4340 C.2   401  FMN401      0.2416
     19  C1'       23.3640    9.5920   25.1450 C.3   401  FMN401      0.1294
     20  C2'       24.4060    8.9250   26.0490 C.3   401  FMN401      0.2044
     21  O2'       24.0770    7.5820   26.3910 O.3   401  FMN401     -0.2185
     22  C3'       24.5730    9.7240   27.3600 C.3   401  FMN401      0.2164
     23  O3'       23.3510    9.6230   28.1610 O.3   401  FMN401     -0.2175
     24  C4'       25.0130   11.1620   27.1680 C.3   401  FMN401      0.2147
     25  O4'       26.2250   11.1950   26.3750 O.3   401  FMN401     -0.2176
     26  C5'       25.2230   11.9930   28.4100 C.3   401  FMN401      0.1892
     27  O5'       26.2390   11.3950   29.2350 O.3   401  FMN401     -0.2674
     28  P         27.7570   11.8360   29.2280 P.3   401  FMN401      0.5327
     29  O1P       28.3500   11.6350   27.8700 O.2   401  FMN401     -0.2224
     30  O2P       27.8540   13.2480   29.7260 O.3   401  FMN401     -0.1145
     31  O3P       28.3630   10.8630   30.2990 O.3   401  FMN401     -0.1145
@<TRIPOS>BOND
     1    12    11    1
     2    10    11    2
     3    10     9    1
     4     6     5    2
     5    11    13    1
     6     8     9    2
     7     8     7    2
     8     9    16    1
     9     5     7    1
    10     5     4    2
    11     7    18    1
    12    13    14    1
    13    13    15    2
    14     4     2    2
    15    16    15    1
    16    16    17    1
    17    18    17    1
    18    18     1    2
    19    17    19    1
    20     2     1    2
    21     2     3    2
    22    19    20    1
    23    20    21    1
    24    20    22    1
    25    25    24    1
    26    24    22    1
    27    24    26    1
    28    22    23    1
    29    29    28    2
    30    26    27    1
    31    28    27    1
    32    28    30    1
    33    28    31    1
