@<TRIPOS>MOLECULE
1gvr_TNL_A_1.pdb
 16 16 0 0 0
SMALL
GASTEIGER

@<TRIPOS>ATOM
      1  C1        20.3900    9.2740   20.8340 C.ar  500  TNL500      0.0231
      2  C7        19.6250    8.7360   22.0060 C.3   500  TNL500      0.0345
      3  C2        20.4050    8.5550   19.6130 C.ar  500  TNL500      0.1421
      4  N2        19.6100    7.3310   19.5090 N.pl3 500  TNL500      0.0575
      5  O21       20.1550    6.2620   19.1620 O.2   500  TNL500     -0.1261
      6  O22       18.4510    7.3700   19.7830 O.2   500  TNL500     -0.1261
      7  C3        21.0900    8.9250   18.4990 C.ar  500  TNL500      0.0479
      8  C4        21.7680   10.1090   18.5980 C.ar  500  TNL500      0.1462
      9  N4        22.4710   10.5410   17.4080 N.pl3 500  TNL500      0.0578
     10  O41       22.7330   11.7360   17.3540 O.2   500  TNL500     -0.1261
     11  O42       22.7970    9.7130   16.5870 O.2   500  TNL500     -0.1261
     12  C5        21.8170   10.8880   19.7190 C.ar  500  TNL500      0.0479
     13  C6        21.1320   10.4310   20.8300 C.ar  500  TNL500      0.1421
     14  N6        21.2450   11.2640   22.0450 N.pl3 500  TNL500      0.0575
     15  O61       22.3460   11.6350   22.3790 O.2   500  TNL500     -0.1261
     16  O62       20.2320   11.5340   22.6660 O.2   500  TNL500     -0.1261
@<TRIPOS>BOND
     1    11     9    2
     2    10     9    2
     3     9     8    1
     4     7     8   ar
     5     7     3   ar
     6     8    12   ar
     7     5     4    2
     8     4     3    1
     9     4     6    2
    10     3     1   ar
    11    12    13   ar
    12    13     1   ar
    13    13    14    1
    14     1     2    1
    15    14    15    2
    16    14    16    2
