@<TRIPOS>MOLECULE
1gvr_FMN_A_1.pdb
 31 33 0 0 0
SMALL
GASTEIGER

@<TRIPOS>ATOM
      1  N1        21.5140    7.8620   24.1580 N.2   401  FMN401     -0.2890
      2  C2        20.7440    6.7590   23.9060 C.1   401  FMN401      0.3669
      3  O2        19.8720    6.3790   24.6410 O.2   401  FMN401     -0.1744
      4  N3        21.1720    5.8550   22.8730 N.2   401  FMN401     -0.2300
      5  C4        22.2890    6.0040   22.1070 C.1   401  FMN401      0.2513
      6  O4        22.4280    5.2930   21.1040 O.2   401  FMN401     -0.2057
      7  C4A       22.9080    7.3280   22.2030 C.2   401  FMN401      0.2700
      8  N5        23.7620    7.7580   21.2860 N.2   401  FMN401     -0.3878
      9  C5A       24.5590    8.8350   21.5790 C.2   401  FMN401      0.1320
     10  C6        25.7050    9.1430   20.7280 C.2   401  FMN401      0.0250
     11  C7        26.6300   10.0990   21.0290 C.2   401  FMN401     -0.0238
     12  C7M       27.8610   10.3680   20.1530 C.3   401  FMN401      0.0308
     13  C8        26.4270   10.9500   22.2160 C.2   401  FMN401     -0.0280
     14  C8M       27.3870   12.0660   22.5550 C.3   401  FMN401      0.0304
     15  C9        25.2950   10.7200   23.0000 C.2   401  FMN401     -0.0041
     16  C9A       24.4120    9.6340   22.7880 C.3   401  FMN401      0.1497
     17  N10       23.4250    9.1630   23.7120 N.pl3 401  FMN401     -0.2691
     18  C10       22.5980    8.0970   23.4240 C.2   401  FMN401      0.2416
     19  C1'       23.3060    9.7590   25.0560 C.3   401  FMN401      0.1294
     20  C2'       24.2770    9.0910   26.0220 C.3   401  FMN401      0.2044
     21  O2'       23.8900    7.7680   26.3710 O.3   401  FMN401     -0.2185
     22  C3'       24.3870    9.9140   27.3220 C.3   401  FMN401      0.2164
     23  O3'       23.1040    9.8910   28.0310 O.3   401  FMN401     -0.2175
     24  C4'       24.8780   11.3330   27.1320 C.3   401  FMN401      0.2147
     25  O4'       26.0770   11.3400   26.3130 O.3   401  FMN401     -0.2176
     26  C5'       25.1490   12.1060   28.3930 C.3   401  FMN401      0.1892
     27  O5'       26.1660   11.4400   29.1540 O.3   401  FMN401     -0.2674
     28  P         27.6640   11.9370   29.1870 P.3   401  FMN401      0.5327
     29  O1P       28.2640   11.7770   27.8240 O.2   401  FMN401     -0.2224
     30  O2P       27.6720   13.3550   29.7010 O.3   401  FMN401     -0.1145
     31  O3P       28.3160   10.9880   30.2510 O.3   401  FMN401     -0.1145
@<TRIPOS>BOND
     1    12    11    1
     2    10    11    2
     3    10     9    1
     4    11    13    1
     5     6     5    2
     6     8     9    2
     7     8     7    2
     8     9    16    1
     9     5     7    1
    10     5     4    2
    11     7    18    1
    12    13    14    1
    13    13    15    2
    14    16    15    1
    15    16    17    1
    16     4     2    2
    17    18    17    1
    18    18     1    2
    19    17    19    1
    20     2     1    2
    21     2     3    2
    22    19    20    1
    23    20    21    1
    24    20    22    1
    25    25    24    1
    26    24    22    1
    27    24    26    1
    28    22    23    1
    29    29    28    2
    30    26    27    1
    31    27    28    1
    32    28    30    1
    33    28    31    1
