@<TRIPOS>MOLECULE
1gvs_TNF_A_1.pdb
 16 16 0 0 0
SMALL
GASTEIGER

@<TRIPOS>ATOM
      1  C1        20.1220    9.1190   21.2900 C.2   500  TNF500      0.2269
      2  C2        20.7910   10.4390   21.2660 C.3   500  TNF500      0.2524
      3  C3        21.5480   10.9300   20.1760 C.2   500  TNF500      0.0349
      4  C4        21.6860   10.1250   19.0390 C.2   500  TNF500      0.1428
      5  N4        22.4550   10.6040   17.8690 N.pl3 500  TNF500      0.0575
      6  N2        20.6670   11.3150   22.4290 N.pl3 500  TNF500      0.0443
      7  O1        19.4530    8.6840   22.2440 O.2   500  TNF500     -0.2870
      8  O21       21.7070   11.7010   22.9920 O.2   500  TNF500     -0.1303
      9  O22       19.5590   11.5770   22.8340 O.2   500  TNF500     -0.1303
     10  O41       22.3280   11.7690   17.5250 O.2   500  TNF500     -0.1261
     11  C6        20.3490    8.3740   20.0540 C.2   500  TNF500      0.1814
     12  C5        21.0990    8.8640   18.9800 C.2   500  TNF500      0.0509
     13  O42       22.8700    9.7610   17.1060 O.2   500  TNF500     -0.1261
     14  N6        19.7760    7.0240   19.8900 N.pl3 500  TNF500      0.0607
     15  O61       20.2760    6.2830   19.0290 O.2   500  TNF500     -0.1260
     16  O62       19.0780    6.5820   20.7590 O.2   500  TNF500     -0.1260
@<TRIPOS>BOND
     1    13     5    2
     2    10     5    2
     3     5     4    1
     4    12     4    1
     5    12    11    2
     6    15    14    2
     7     4     3    2
     8    14    11    1
     9    14    16    2
    10    11     1    1
    11     3     2    1
    12     2     1    1
    13     2     6    1
    14     1     7    2
    15     6     9    2
    16     6     8    2
