@<TRIPOS>MOLECULE
1gvs_FMN_A_1.pdb
 31 33 0 0 0
SMALL
GASTEIGER

@<TRIPOS>ATOM
      1  N1        21.5240    7.7890   24.3880 N.2   401  FMN401     -0.2890
      2  C2        20.8120    6.6300   24.2200 C.1   401  FMN401      0.3669
      3  O2        19.9100    6.2840   24.9510 O.2   401  FMN401     -0.1744
      4  N3        21.0900    5.8170   23.0590 N.2   401  FMN401     -0.2300
      5  C4        22.1200    6.0240   22.1870 C.1   401  FMN401      0.2513
      6  O4        22.3230    5.2500   21.2450 O.2   401  FMN401     -0.2057
      7  C4A       22.9150    7.2430   22.4100 C.2   401  FMN401      0.2700
      8  N5        23.6960    7.7300   21.4490 N.2   401  FMN401     -0.3878
      9  C5A       24.5120    8.7950   21.7400 C.2   401  FMN401      0.1320
     10  C6        25.6520    9.0950   20.8770 C.2   401  FMN401      0.0250
     11  C7        26.5530   10.0920   21.1270 C.2   401  FMN401     -0.0238
     12  C7M       27.6610   10.3170   20.3250 C.3   401  FMN401      0.0308
     13  C8        26.3920   10.9140   22.3500 C.2   401  FMN401     -0.0280
     14  C8M       27.3910   11.9870   22.7220 C.3   401  FMN401      0.0304
     15  C9        25.2930   10.6570   23.1700 C.2   401  FMN401     -0.0041
     16  C9A       24.4070    9.5680   22.9670 C.3   401  FMN401      0.1497
     17  N10       23.3940    9.1300   23.8840 N.pl3 401  FMN401     -0.2691
     18  C10       22.5880    8.0370   23.6270 C.2   401  FMN401      0.2416
     19  C1'       23.2750    9.7530   25.2210 C.3   401  FMN401      0.1294
     20  C2'       24.2550    9.1080   26.2020 C.3   401  FMN401      0.2044
     21  O2'       23.8830    7.7770   26.5740 O.3   401  FMN401     -0.2185
     22  C3'       24.3340    9.9410   27.5000 C.3   401  FMN401      0.2164
     23  O3'       23.0450    9.8830   28.1920 O.3   401  FMN401     -0.2175
     24  C4'       24.7980   11.3780   27.3340 C.3   401  FMN401      0.2147
     25  O4'       25.9740   11.4440   26.4810 O.3   401  FMN401     -0.2176
     26  C5'       25.0690   12.1340   28.6160 C.3   401  FMN401      0.1892
     27  O5'       26.0670   11.4450   29.4010 O.3   401  FMN401     -0.2674
     28  P         27.5880   11.8930   29.4210 P.3   401  FMN401      0.5327
     29  O1P       28.1680   11.7250   28.0460 O.2   401  FMN401     -0.2224
     30  O2P       27.6550   13.3080   29.9450 O.3   401  FMN401     -0.1145
     31  O3P       28.2330   10.9220   30.4640 O.3   401  FMN401     -0.1145
@<TRIPOS>BOND
     1    12    11    1
     2    10    11    2
     3    10     9    1
     4    11    13    1
     5     6     5    2
     6     8     9    2
     7     8     7    2
     8     9    16    1
     9     5     7    1
    10     5     4    2
    11    13    14    1
    12    13    15    2
    13     7    18    1
    14    16    15    1
    15    16    17    1
    16     4     2    2
    17    18    17    1
    18    18     1    2
    19    17    19    1
    20     2     1    2
    21     2     3    2
    22    19    20    1
    23    20    21    1
    24    20    22    1
    25    25    24    1
    26    24    22    1
    27    24    26    1
    28    22    23    1
    29    29    28    2
    30    26    27    1
    31    27    28    1
    32    28    30    1
    33    28    31    1
