@<TRIPOS>MOLECULE
1gvt_2ZS_A_1.pdb
 43 45 0 0 0
SMALL
GASTEIGER

@<TRIPOS>ATOM
      1  O1         0.2390  262.2250   20.0960 O.3   400  2ZS400     -0.3501
      2  C2         1.5430  262.3170   19.3640 C.3   400  2ZS400      0.1637
      3  C3         2.2880  263.4970   19.8390 C.3   400  2ZS400      0.1271
      4  N4         1.4710  264.7230   19.7070 N.am  400  2ZS400     -0.2577
      5  C5         0.1800  264.6380   20.2220 C.3   400  2ZS400      0.1271
      6  C6        -0.4950  263.3910   19.7320 C.3   400  2ZS400      0.1637
      7  C          2.0070  265.9240   19.4250 C.2   400  2ZS400      0.3238
      8  O          1.3350  266.9570   19.5160 O.2   400  2ZS400     -0.2508
      9  N          3.2770  265.9650   18.9260 N.am  400  2ZS400     -0.1804
     10  CA         3.8460  267.2560   18.5100 C.3   400  2ZS400      0.1786
     11  C1         3.1690  267.7420   17.2510 C.2   400  2ZS400      0.2620
     12  O2         2.8230  266.9560   16.3340 O.2   400  2ZS400     -0.2715
     13  CB         5.3530  267.1290   18.2390 C.3   400  2ZS400      0.0575
     14  CG         6.1600  266.9740   19.4980 C.ar  400  2ZS400     -0.0200
     15  CD1        6.7140  268.0440   20.1450 C.ar  400  2ZS400     -0.0042
     16  CD2        6.3540  265.7160   20.0650 C.ar  400  2ZS400     -0.0042
     17  CE1        7.4530  267.8980   21.3160 C.ar  400  2ZS400     -0.0003
     18  CE2        7.1120  265.5520   21.1950 C.ar  400  2ZS400     -0.0003
     19  CZ         7.7080  266.6390   21.7980 C.ar  400  2ZS400     -0.0000
     20  N1         3.0180  269.0750   17.1480 N.am  400  2ZS400     -0.1954
     21  CA1        2.5020  269.6720   15.9230 C.3   400  2ZS400      0.1834
     22  CB1        0.9760  269.8070   16.1060 C.3   400  2ZS400      0.0886
     23  SG         0.2960  270.3150   14.5270 S.3   400  2ZS400     -0.1370
     24  CS        -1.5270  270.4840   14.7450 C.3   400  2ZS400      0.0692
     25  C4         3.1880  271.0170   15.7200 C.2   400  2ZS400      0.2621
     26  O3         2.8020  272.0120   16.3330 O.2   400  2ZS400     -0.2715
     27  N2         4.2410  271.0150   14.9140 N.am  400  2ZS400     -0.2025
     28  CA2        5.1010  272.1600   14.7020 C.3   400  2ZS400      0.1367
     29  CB2        6.5850  271.8090   14.9760 C.3   400  2ZS400      0.0249
     30  CG1        6.8210  271.2340   16.4060 C.3   400  2ZS400      0.0018
     31 CD11        8.3070  270.8510   16.5170 C.3   400  2ZS400      0.0001
     32 CD21        6.4890  272.2450   17.4690 C.3   400  2ZS400      0.0001
     33 CE11        8.6550  270.2730   17.8940 C.3   400  2ZS400      0.0000
     34 CE21        6.8510  271.6870   18.8760 C.3   400  2ZS400      0.0000
     35  CZ1        8.3060  271.2620   18.9520 C.3   400  2ZS400      0.0000
     36  CH         4.9800  272.6890   13.2660 C.3   400  2ZS400      0.2692
     37  OH         5.1730  271.6490   12.3060 O.3   400  2ZS400     -0.2092
     38  C7         3.5970  273.3080   13.1040 C.2   400  2ZS400      0.3494
     39  O11        3.1860  274.2130   13.8390 O.2   400  2ZS400     -0.2472
     40  O21        2.8470  272.7410   12.1470 O.3   400  2ZS400     -0.4505
     41  CM         1.4820  273.2780   11.9340 C.3   400  2ZS400      0.1692
     42  CM1        1.5780  274.3120   10.8550 C.3   400  2ZS400      0.0473
     43  CM2        0.6480  272.0760   11.4660 C.3   400  2ZS400      0.0473
@<TRIPOS>BOND
     1    42    41    1
     2    43    41    1
     3    41    40    1
     4    40    38    1
     5    37    36    1
     6    38    36    1
     7    38    39    2
     8    36    28    1
     9    23    24    1
    10    23    22    1
    11    28    27    1
    12    28    29    1
    13    27    25   am
    14    29    30    1
    15    25    21    1
    16    25    26    2
    17    21    22    1
    18    21    20    1
    19    12    11    2
    20    30    31    1
    21    30    32    1
    22    31    33    1
    23    20    11   am
    24    11    10    1
    25    32    34    1
    26    33    35    1
    27    13    10    1
    28    13    14    1
    29    10     9    1
    30    34    35    1
    31     9     7   am
    32     2     3    1
    33     2     1    1
    34     7     8    2
    35     7     4   am
    36    14    16   ar
    37    14    15   ar
    38     4     3    1
    39     4     5    1
    40     6     1    1
    41     6     5    1
    42    16    18   ar
    43    15    17   ar
    44    18    19   ar
    45    17    19   ar
