@<TRIPOS>MOLECULE
1gvv_0GM_A_1.pdb
 37 38 0 0 0
SMALL
GASTEIGER

@<TRIPOS>ATOM
      1  N          2.8040  268.8270   17.2140 N.3   402  0GM402     -0.1149
      2  CA1        2.3750  269.4410   15.9600 C.3   402  0GM402      0.1979
      3  C1         3.1070  270.7600   15.8470 C.1   402  0GM402      0.1433
      4  O1         2.7640  271.6990   16.5300 O.2   402  0GM402     -0.2256
      5  CB         0.8770  269.6600   15.8730 C.3   402  0GM402      0.0537
      6  CG         0.5630  270.2310   14.4840 C.3   402  0GM402      0.1243
      7  CD        -0.7420  270.9640   14.3610 C.1   402  0GM402      0.1264
      8  OE1       -1.6690  270.7680   15.1800 O.2   402  0GM402     -0.2270
      9  N1         4.1210  270.7620   14.9680 N.2   402  0GM402     -0.2045
     10  CA2        4.9490  271.9950   14.7150 C.3   402  0GM402      0.1459
     11  CB3        6.3810  271.5650   15.3130 C.3   402  0GM402      0.0278
     12  CG1        6.4710  271.1270   16.7500 C.3   402  0GM402      0.0020
     13  CD1        7.8980  270.6360   17.0880 C.3   402  0GM402      0.0001
     14  CD2        6.0300  272.1780   17.7340 C.3   402  0GM402      0.0001
     15  CH         5.0550  272.2570   13.2700 C.3   402  0GM402      0.1914
     16  OH         5.5170  271.1170   12.5360 O.3   402  0GM402     -0.2198
     17  CM         3.7300  272.6740   12.6610 C.3   402  0GM402      0.1564
     18  C2         3.2670  274.0330   13.1510 C.1   402  0GM402      0.1297
     19  O2         2.6960  274.2090   14.2070 O.2   402  0GM402     -0.2269
     20  N2         3.6060  275.0080   12.3880 N.2   402  0GM402     -0.1912
     21  CA3        3.1280  276.4020   12.6130 C.3   402  0GM402      0.2190
     22  C3         1.6310  276.5000   12.6000 C.1   402  0GM402      0.1494
     23  O3         1.0400  276.1660   11.5770 O.2   402  0GM402     -0.2251
     24  CB4        3.7210  277.3830   11.5890 C.3   402  0GM402      0.0423
     25  CG2        3.4020  278.8520   11.8330 C.3   402  0GM402      0.0031
     26  CD3        4.2170  279.4210   12.9710 C.3   402  0GM402      0.0001
     27  CD4        3.7120  279.6120   10.5510 C.3   402  0GM402      0.0001
     28  N3         1.0360  277.0080   13.6740 N.2   402  0GM402     -0.1998
     29  CA4       -0.3860  277.2930   13.6850 C.3   402  0GM402      0.1639
     30  CG3       -1.2840  276.1630   14.0650 C.ar  402  0GM402      0.0026
     31  CD5       -1.2060  274.8920   13.4620 C.ar  402  0GM402     -0.0046
     32  CD6       -2.3140  276.3830   14.9320 C.ar  402  0GM402     -0.0023
     33  CE1       -2.1590  273.9330   13.7270 C.ar  402  0GM402      0.0026
     34  CE2       -3.2770  275.3930   15.2260 C.ar  402  0GM402     -0.0005
     35  CZ        -3.1780  274.1530   14.5870 C.ar  402  0GM402     -0.0023
     36  CB5       -2.0610  272.5520   13.0340 C.3   402  0GM402      0.1639
     37  N4        -0.8430  271.8060   13.3580 N.2   402  0GM402     -0.2014
@<TRIPOS>BOND
     1    27    25    1
     2    23    22    2
     3    24    25    1
     4    24    21    1
     5    25    26    1
     6    20    21    1
     7    20    18    2
     8    16    15    1
     9    22    21    1
    10    22    28    2
    11    17    18    1
    12    17    15    1
    13    36    37    1
    14    36    33    1
    15    18    19    2
    16    15    10    1
    17    37     7    2
    18    31    33   ar
    19    31    30   ar
    20    28    29    1
    21    29    30    1
    22    33    35   ar
    23    30    32   ar
    24     7     6    1
    25     7     8    2
    26     6     5    1
    27    35    34   ar
    28    10     9    1
    29    10    11    1
    30    32    34   ar
    31     9     3    2
    32    11    12    1
    33     3     2    1
    34     3     4    2
    35     5     2    1
    36     2     1    1
    37    12    13    1
    38    12    14    1
