@<TRIPOS>MOLECULE
1gvw_0EM_A_1.pdb
 46 47 0 0 0
SMALL
GASTEIGER

@<TRIPOS>ATOM
      1  O1         1.5530   27.3940   20.2800 O.2   401  0EM401     -0.2246
      2  C          2.3520   26.5920   19.7950 C.2   401  0EM401      0.4213
      3  O2         2.1280   25.1820   19.8390 O.3   401  0EM401     -0.4408
      4  CT         1.0100   24.5180   20.4580 C.3   401  0EM401      0.1379
      5  C1         0.9900   24.7250   21.9700 C.3   401  0EM401      0.0437
      6  C2         1.2510   23.0180   20.2280 C.3   401  0EM401      0.0437
      7  C3        -0.2510   24.9630   19.7170 C.3   401  0EM401      0.0437
      8  N          3.5200   26.8240   19.1780 N.am  401  0EM401     -0.1607
      9  CA         3.9840   28.2080   18.8460 C.3   401  0EM401      0.1804
     10  C4         3.1090   28.7590   17.6920 C.2   401  0EM401      0.2621
     11  O          2.8090   27.9390   16.7710 O.2   401  0EM401     -0.2715
     12  CB         5.4640   28.2240   18.5110 C.3   401  0EM401      0.0575
     13  CG         6.5420   28.0500   19.5410 C.ar  401  0EM401     -0.0200
     14  CD1        6.6930   26.8970   20.3010 C.ar  401  0EM401     -0.0042
     15  CD2        7.4930   29.0520   19.7780 C.ar  401  0EM401     -0.0042
     16  CE1        7.6800   26.7200   21.2360 C.ar  401  0EM401     -0.0003
     17  CE2        8.4650   28.8950   20.7450 C.ar  401  0EM401     -0.0003
     18  CZ         8.5790   27.7350   21.4930 C.ar  401  0EM401     -0.0000
     19  N1         2.7830   30.0750   17.7310 N.am  401  0EM401     -0.1959
     20  CA1        2.1250   30.7490   16.5920 C.3   401  0EM401      0.1784
     21  C5         2.8970   32.0560   16.3470 C.2   401  0EM401      0.2620
     22  O3         2.4620   33.0960   16.8710 O.2   401  0EM401     -0.2715
     23  CB1        0.6450   31.0910   16.7390 C.3   401  0EM401      0.0745
     24  CG1       -0.0190   31.7110   15.5380 C.2   401  0EM401      0.0653
     25  ND1       -1.3170   32.2810   15.5690 N.2   401  0EM401     -0.2310
     26 CD21        0.3820   31.8430   14.2450 C.3   401  0EM401      0.1683
     27 CE11       -1.6400   32.7380   14.3650 C.2   401  0EM401      0.1939
     28  NE2       -0.6090   32.4860   13.5360 N.2   401  0EM401     -0.2440
     29  N2         3.9680   32.0010   15.5460 N.am  401  0EM401     -0.1957
     30  CA2        4.8820   33.0780   15.2090 C.3   401  0EM401      0.1749
     31  CB2        6.3350   32.9230   15.7760 C.3   401  0EM401      0.0317
     32  CG2        6.4840   32.5500   17.2740 C.3   401  0EM401      0.0023
     33 CD11        7.9850   32.3040   17.5850 C.3   401  0EM401      0.0001
     34 CD22        5.8460   33.5500   18.2210 C.3   401  0EM401      0.0001
     35  P          4.8910   33.4070   13.4150 P.3   401  0EM401      0.2815
     36  O1P        5.1300   32.1100   12.7550 O.2   401  0EM401     -0.2847
     37  O2P        5.9260   34.4770   13.0940 O.3   401  0EM401     -0.1657
     38  CM         3.3150   34.1150   12.9120 C.3   401  0EM401      0.1777
     39  C6         3.1360   35.5610   13.3240 C.2   401  0EM401      0.2553
     40  O4         2.6010   35.7980   14.4070 O.2   401  0EM401     -0.2724
     41  N3         3.5830   36.5370   12.4910 N.am  401  0EM401     -0.1822
     42  CA3        3.6210   37.9040   12.9790 C.2   401  0EM401      0.0618
     43  CB3        3.7910   38.9920   11.9560 C.3   401  0EM401      0.0389
     44 CG11        3.9970   40.3750   12.5990 C.3   401  0EM401      0.0057
     45 CG21        2.5770   38.9860   11.0550 C.3   401  0EM401      0.0061
     46 CD12        4.7160   41.2880   11.6660 C.3   401  0EM401      0.0004
@<TRIPOS>BOND
     1    45    43    1
     2    46    44    1
     3    43    44    1
     4    43    42    1
     5    41    42    2
     6    41    39    1
     7    36    35    2
     8    38    39    1
     9    38    35    1
    10    37    35    1
    11    39    40    2
    12    35    30    1
    13    28    26    1
    14    28    27    2
    15    26    24    1
    16    27    25    1
    17    30    29    1
    18    30    31    1
    19    24    25    2
    20    24    23    1
    21    29    21   am
    22    31    32    1
    23    21    20    1
    24    21    22    2
    25    20    23    1
    26    20    19    1
    27    11    10    2
    28    32    33    1
    29    32    34    1
    30    10    19   am
    31    10     9    1
    32    12     9    1
    33    12    13    1
    34     9     8    1
    35     8     2   am
    36    13    15   ar
    37    13    14   ar
    38     7     4    1
    39    15    17   ar
    40     2     3    1
    41     2     1    2
    42     3     4    1
    43     6     4    1
    44    14    16   ar
    45     4     5    1
    46    17    18   ar
    47    16    18   ar
