@<TRIPOS>MOLECULE
1gvy_BMA_A_1.pdb
 11 11 0 0 0
SMALL
GASTEIGER

@<TRIPOS>ATOM
      1  C1        86.9840   33.0580    6.7390 C.3   1427  BMA1427     0.1777
      2  C2        88.3930   32.4440    6.5650 C.3   1427  BMA1427     0.2141
      3  C3        89.4360   33.5350    6.4930 C.3   1427  BMA1427     0.2173
      4  C4        89.1220   34.5250    5.3710 C.3   1427  BMA1427     0.2142
      5  C5        87.6400   34.8990    5.4180 C.3   1427  BMA1427     0.1810
      6  C6        87.2330   35.7100    4.1750 C.3   1427  BMA1427     0.2141
      7  O2        88.4480   31.5530    5.4590 O.3   1427  BMA1427    -0.2176
      8  O3        90.7410   32.9770    6.4160 O.3   1427  BMA1427    -0.2175
      9  O4        89.8210   35.7200    5.6780 O.3   1427  BMA1427    -0.2176
     10  O5        86.7760   33.7850    5.5410 O.3   1427  BMA1427    -0.3481
     11  O6        87.3290   34.9990    2.9540 O.3   1427  BMA1427    -0.2176
@<TRIPOS>BOND
     1    11     6    1
     2     6     5    1
     3     4     5    1
     4     4     9    1
     5     4     3    1
     6     5    10    1
     7     7     2    1
     8    10     1    1
     9     8     3    1
    10     3     2    1
    11     2     1    1
