@<TRIPOS>MOLECULE
1gvy_MBF_A_1.pdb
 12 12 0 0 0
SMALL
GASTEIGER

@<TRIPOS>ATOM
      1  O1        82.8560   33.1350    9.4860 O.3   1426  MBF1426    -0.1867
      2  C1        82.2910   32.4900    8.3340 C.3   1426  MBF1426     0.3046
      3  C2        82.6710   33.3750    7.1190 C.3   1426  MBF1426     0.2524
      4  F2        82.0200   34.6030    7.3740 F     1426  MBF1426    -0.2289
      5  C3        84.1730   33.6020    6.9720 C.3   1426  MBF1426     0.2221
      6  O3        84.6360   34.7610    7.6850 O.3   1426  MBF1426    -0.2172
      7  C4        84.8860   32.3640    7.5500 C.3   1426  MBF1426     0.2146
      8  O4        86.0220   32.0490    6.7740 O.3   1426  MBF1426    -0.2176
      9  C5        83.9960   31.1380    7.3590 C.3   1426  MBF1426     0.1836
     10  O5        82.8890   31.2230    8.2120 O.3   1426  MBF1426    -0.3235
     11  C6        84.7500   29.8340    7.6850 C.3   1426  MBF1426     0.2142
     12  O6        85.0640   29.8850    9.0910 O.3   1426  MBF1426    -0.2176
@<TRIPOS>BOND
     1     8     7    1
     2     5     3    1
     3     5     7    1
     4     5     6    1
     5     3     4    1
     6     3     2    1
     7     9     7    1
     8     9    11    1
     9     9    10    1
    10    11    12    1
    11    10     2    1
    12     2     1    1
