@<TRIPOS>MOLECULE
1gvy_NIN_A_1.pdb
 12 12 0 0 0
SMALL
GASTEIGER

@<TRIPOS>ATOM
      1  C1        82.5040   32.8680   10.7820 C.ar  1422  NIN1422     0.0242
      2  C2        82.9560   33.5200   11.9030 C.ar  1422  NIN1422     0.1445
      3  N2        83.8240   34.5910   11.7940 N.pl3 1422  NIN1422     0.0577
      4  O21       84.4370   35.2060   12.6970 O.2   1422  NIN1422    -0.1261
      5  O22       84.1180   34.9900   10.6880 O.2   1422  NIN1422    -0.1261
      6  C3        82.5500   33.1160   13.1740 C.ar  1422  NIN1422     0.0481
      7  C4        81.6600   32.0970   13.3450 C.ar  1422  NIN1422     0.1445
      8  N4        81.3150   31.7270   14.6230 N.pl3 1422  NIN1422     0.0577
      9  O41       80.5290   30.8180   14.8030 O.2   1422  NIN1422    -0.1261
     10  O42       81.7650   32.3590   15.5720 O.2   1422  NIN1422    -0.1261
     11  C5        81.2240   31.4190   12.2290 C.ar  1422  NIN1422     0.0242
     12  C6        81.6150   31.8170   10.9660 C.ar  1422  NIN1422     0.0034
@<TRIPOS>BOND
     1     5     3    2
     2     1    12   ar
     3     1     2   ar
     4    12    11   ar
     5     3     2    1
     6     3     4    2
     7     2     6   ar
     8    11     7   ar
     9     6     7   ar
    10     7     8    1
    11     8     9    2
    12     8    10    2
