@<TRIPOS>MOLECULE
1gw0_MAN_A_1.pdb
 11 11 0 0 0
SMALL
GASTEIGER

@<TRIPOS>ATOM
      1  C1       -17.0800   19.0280    8.1320 C.3   1571  MAN1571     0.1777
      2  C2       -18.2760   18.2000    8.5810 C.3   1571  MAN1571     0.2141
      3  C3       -19.1950   19.0870    9.4140 C.3   1571  MAN1571     0.2173
      4  C4       -18.4260   19.6390   10.6180 C.3   1571  MAN1571     0.2142
      5  C5       -17.0870   20.2930   10.2060 C.3   1571  MAN1571     0.1810
      6  C6       -16.1750   20.5380   11.4070 C.3   1571  MAN1571     0.2141
      7  O2       -17.8240   17.1120    9.3740 O.3   1571  MAN1571    -0.2176
      8  O3       -20.3320   18.3260    9.8710 O.3   1571  MAN1571    -0.2175
      9  O4       -19.2350   20.6020   11.2740 O.3   1571  MAN1571    -0.2176
     10  O5       -16.3520   19.4470    9.2820 O.3   1571  MAN1571    -0.3481
     11  O6       -15.1560   19.5100   11.4810 O.3   1571  MAN1571    -0.2176
@<TRIPOS>BOND
     1     1     2    1
     2     1    10    1
     3     2     7    1
     4     2     3    1
     5    10     5    1
     6     3     8    1
     7     3     4    1
     8     5     4    1
     9     5     6    1
    10     4     9    1
    11     6    11    1
