@<TRIPOS>MOLECULE
1gw0_BMA_A_1.pdb
 11 11 0 0 0
SMALL
GASTEIGER

@<TRIPOS>ATOM
      1  C1       -13.9130   19.9370   11.9900 C.3   1573  BMA1573     0.1777
      2  C2       -13.2920   21.0570   11.1350 C.3   1573  BMA1573     0.2141
      3  C3       -11.8960   21.3760   11.6660 C.3   1573  BMA1573     0.2173
      4  C4       -11.9920   21.7620   13.1420 C.3   1573  BMA1573     0.2142
      5  C5       -12.6700   20.6300   13.9310 C.3   1573  BMA1573     0.1810
      6  C6       -12.8910   20.9730   15.3910 C.3   1573  BMA1573     0.2141
      7  O2       -14.0980   22.2260   11.1970 O.3   1573  BMA1573    -0.2176
      8  O3       -11.3300   22.4460   10.9230 O.3   1573  BMA1573    -0.2175
      9  O4       -10.6930   22.0060   13.6600 O.3   1573  BMA1573    -0.2176
     10  O5       -13.9650   20.3310   13.3580 O.3   1573  BMA1573    -0.3481
     11  O6       -13.6300   19.9530   16.0500 O.3   1573  BMA1573    -0.2176
@<TRIPOS>BOND
     1     8     3    1
     2     2     7    1
     3     2     3    1
     4     2     1    1
     5     3     4    1
     6     1    10    1
     7     4     9    1
     8     4     5    1
     9    10     5    1
    10     5     6    1
    11     6    11    1
