@<TRIPOS>MOLECULE
1gw1_BMA_A_1.pdb
 11 11 0 0 0
SMALL
GASTEIGER

@<TRIPOS>ATOM
      1  C1        82.9770   44.1450   -4.5850 C.3   1425  BMA1425     0.1777
      2  C2        84.3730   44.6070   -5.0230 C.3   1425  BMA1425     0.2141
      3  C3        85.0240   45.4560   -3.9580 C.3   1425  BMA1425     0.2173
      4  C4        84.0680   46.5900   -3.6380 C.3   1425  BMA1425     0.2142
      5  C5        82.6790   46.0470   -3.3070 C.3   1425  BMA1425     0.1810
      6  C6        81.6430   47.1450   -3.0940 C.3   1425  BMA1425     0.2141
      7  O2        84.2800   45.3080   -6.2420 O.3   1425  BMA1425    -0.2176
      8  O3        86.3230   45.9080   -4.3530 O.3   1425  BMA1425    -0.2175
      9  O4        84.6120   47.2210   -2.5260 O.3   1425  BMA1425    -0.2176
     10  O5        82.1730   45.2430   -4.3670 O.3   1425  BMA1425    -0.3481
     11  O6        81.3940   47.6820   -4.3700 O.3   1425  BMA1425    -0.2176
@<TRIPOS>BOND
     1     7     2    1
     2     2     1    1
     3     2     3    1
     4     1    10    1
     5    11     6    1
     6    10     5    1
     7     8     3    1
     8     3     4    1
     9     4     5    1
    10     4     9    1
    11     5     6    1
