@<TRIPOS>MOLECULE
1gw1_MBF_A_1.pdb
 12 12 0 0 0
SMALL
GASTEIGER

@<TRIPOS>ATOM
      1  O1        79.9290   36.4320   -9.5790 O.3   1428  MBF1428    -0.1867
      2  C1        79.3970   35.8880   -8.3770 C.3   1428  MBF1428     0.3046
      3  C2        80.3180   36.2470   -7.2150 C.3   1428  MBF1428     0.2524
      4  F2        81.5600   35.7400   -7.5360 F     1428  MBF1428    -0.2289
      5  C3        80.4150   37.7530   -7.0080 C.3   1428  MBF1428     0.2221
      6  O3        81.5500   38.3050   -7.6990 O.3   1428  MBF1428    -0.2172
      7  C4        79.1530   38.4600   -7.5140 C.3   1428  MBF1428     0.2146
      8  O4        78.8500   39.5690   -6.7010 O.3   1428  MBF1428    -0.2176
      9  C5        77.9520   37.5200   -7.3620 C.3   1428  MBF1428     0.1836
     10  O5        78.1030   36.4260   -8.2440 O.3   1428  MBF1428    -0.3235
     11  C6        76.6370   38.2030   -7.7370 C.3   1428  MBF1428     0.2142
     12  O6        76.7310   38.6620   -9.0720 O.3   1428  MBF1428    -0.2176
@<TRIPOS>BOND
     1     1     2    1
     2    12    11    1
     3     2    10    1
     4     2     3    1
     5    10     9    1
     6    11     9    1
     7     6     5    1
     8     4     3    1
     9     7     9    1
    10     7     5    1
    11     7     8    1
    12     3     5    1
