@<TRIPOS>MOLECULE
1gw1_MAF_A_1.pdb
 11 11 0 0 0
SMALL
GASTEIGER

@<TRIPOS>ATOM
      1  C1        79.4530   35.0720   -6.7880 C.3   1427  MAF1427     0.1801
      2  C2        80.3220   35.9850   -5.9360 C.3   1427  MAF1427     0.2230
      3  F2        81.5030   35.3050   -5.5860 F     1427  MAF1427    -0.2317
      4  C3        80.6560   37.3190   -6.6120 C.3   1427  MAF1427     0.2194
      5  O3        81.6990   37.1050   -7.5560 O.3   1427  MAF1427    -0.2173
      6  C4        79.4840   37.9800   -7.3630 C.3   1427  MAF1427     0.2144
      7  O4        79.0900   39.1550   -6.6800 O.3   1427  MAF1427    -0.2176
      8  C5        78.2780   37.0280   -7.3970 C.3   1427  MAF1427     0.1810
      9  O5        78.7480   35.7620   -7.8060 O.3   1427  MAF1427    -0.3479
     10  C6        77.1390   37.4520   -8.3400 C.3   1427  MAF1427     0.2141
     11  O6        77.6100   37.6340   -9.6650 O.3   1427  MAF1427    -0.2176
@<TRIPOS>BOND
     1    11    10    1
     2    10     8    1
     3     9     8    1
     4     9     1    1
     5     5     4    1
     6     8     6    1
     7     6     7    1
     8     6     4    1
     9     1     2    1
    10     4     2    1
    11     2     3    1
