@<TRIPOS>MOLECULE
1gw1_NIN_A_1.pdb
 12 12 0 0 0
SMALL
GASTEIGER

@<TRIPOS>ATOM
      1  C1        79.5690   36.0090  -10.7900 C.ar  1429  NIN1429     0.0242
      2  C2        80.2880   36.4720  -11.8870 C.ar  1429  NIN1429     0.1445
      3  N2        81.3410   37.3190  -11.7180 N.pl3 1429  NIN1429     0.0577
      4  O21       81.9740   37.7320  -12.6830 O.2   1429  NIN1429    -0.1261
      5  O22       81.6670   37.6880  -10.5970 O.2   1429  NIN1429    -0.1261
      6  C3        79.9230   36.0570  -13.1650 C.ar  1429  NIN1429     0.0481
      7  C4        78.8510   35.1870  -13.3380 C.ar  1429  NIN1429     0.1445
      8  N4        78.5150   34.7990  -14.5910 N.pl3 1429  NIN1429     0.0577
      9  O41       77.5800   34.0360  -14.7630 O.2   1429  NIN1429    -0.1261
     10  O42       79.1590   35.2160  -15.5410 O.2   1429  NIN1429    -0.1261
     11  C5        78.1310   34.7220  -12.2370 C.ar  1429  NIN1429     0.0242
     12  C6        78.4930   35.1420  -10.9580 C.ar  1429  NIN1429     0.0034
@<TRIPOS>BOND
     1    10     8    2
     2     9     8    2
     3     8     7    1
     4     7     6   ar
     5     7    11   ar
     6     6     2   ar
     7     4     3    2
     8    11    12   ar
     9     2     3    1
    10     2     1   ar
    11     3     5    2
    12    12     1   ar
