@<TRIPOS>MOLECULE
1gw2_FER_A_1.pdb
 14 14 0 0 0
SMALL
GASTEIGER

@<TRIPOS>ATOM
      1  C4         2.2040   30.4240   53.6160 C.ar  601  FER601      0.2293
      2  C5         3.1910   30.7570   54.5590 C.ar  601  FER601      0.0452
      3  C6         2.8690   31.0740   55.8520 C.ar  601  FER601      0.0035
      4  C3         0.8570   30.4290   54.0200 C.ar  601  FER601      0.1774
      5  C2         0.5300   30.7530   55.3350 C.ar  601  FER601      0.0402
      6  C1         1.5330   31.0930   56.2700 C.ar  601  FER601      0.0034
      7  C10       -1.3980   29.9110   53.3460 C.3   601  FER601      0.2526
      8  C7         1.2300   31.4240   57.6470 C.2   601  FER601      0.0069
      9  C8         0.0460   31.4880   58.2480 C.2   601  FER601      0.0861
     10  C9        -0.0810   31.8470   59.6570 C.2   601  FER601      0.3880
     11  O1        -1.2730   31.8670   60.1520 O.co2 601  FER601     -0.2405
     12  O2         0.9420   32.1170   60.3480 O.co2 601  FER601     -0.2405
     13  O4         2.5520   30.1260   52.3330 O.3   601  FER601     -0.2833
     14  O3        -0.0150   30.0220   53.0360 O.3   601  FER601     -0.4682
@<TRIPOS>BOND
     1    13     1    1
     2    14     7    1
     3    14     4    1
     4     1     4   ar
     5     1     2   ar
     6     4     5   ar
     7     2     3   ar
     8     5     6   ar
     9     3     6   ar
    10     6     8    1
    11     8     9    2
    12     9    10    1
    13    10    11   ar
    14    10    12   ar
