@<TRIPOS>MOLECULE
1gw2_HEM_A_1.pdb
 43 50 0 0 0
SMALL
GASTEIGER

@<TRIPOS>ATOM
      1 FE          3.1700   31.4890   46.9370 Fe    350  HEM350      0.0000
      2  CHA       -0.0180   30.2350   46.7890 C.2   350  HEM350      0.0000
      3  CHB        2.4490   32.9770   49.9690 C.2   350  HEM350      0.0000
      4  CHC        6.4660   32.4270   47.2750 C.2   350  HEM350      0.0000
      5  CHD        4.0000   29.5890   44.1800 C.2   350  HEM350      0.0000
      6  NA         1.5830   31.5020   48.1840 N.2   350  HEM350      0.0000
      7  C1A        0.3230   30.9800   47.9320 C.2   350  HEM350      0.0000
      8  C2A       -0.6340   31.4020   48.9190 C.2   350  HEM350      0.0000
      9  C3A        0.0380   32.1810   49.7850 C.2   350  HEM350      0.0000
     10  C4A        1.4220   32.2260   49.3530 C.2   350  HEM350      0.0000
     11  CMA       -0.6020   32.8840   50.9790 C.3   350  HEM350      0.0000
     12  CAA       -2.1310   31.0950   48.9950 C.3   350  HEM350      0.0000
     13  CBA       -2.3320   29.7830   49.7320 C.3   350  HEM350      0.0000
     14  CGA       -3.7920   29.4780   50.0190 C.2   350  HEM350      0.0000
     15  O1A       -4.0780   28.3660   50.4960 O.co2 350  HEM350      0.0000
     16  O2A       -4.6470   30.3500   49.7760 O.co2 350  HEM350      0.0000
     17  NB         4.2170   32.5450   48.2890 N.ar  350  HEM350      0.0000
     18  C1B        3.7410   33.1520   49.4460 C.ar  350  HEM350      0.0000
     19  C2B        4.7760   33.9480   50.0580 C.ar  350  HEM350      0.0000
     20  C3B        5.8830   33.8640   49.2870 C.ar  350  HEM350      0.0000
     21  C4B        5.5540   32.9360   48.2180 C.ar  350  HEM350      0.0000
     22  CMB        4.6200   34.7780   51.3310 C.3   350  HEM350      0.0000
     23  CAB        7.0860   34.5180   49.5360 C.3   350  HEM350      0.0000
     24  CBB        7.8800   35.2220   48.5390 C.3   350  HEM350      0.0000
     25  NC         4.8830   31.0630   45.9780 N.2   350  HEM350      0.0000
     26  C1C        6.1460   31.5600   46.2280 C.2   350  HEM350      0.0000
     27  C2C        7.1290   30.9100   45.3850 C.2   350  HEM350      0.0000
     28  C3C        6.4520   30.0870   44.5220 C.2   350  HEM350      0.0000
     29  C4C        5.0500   30.2140   44.8820 C.2   350  HEM350      0.0000
     30  CMC        8.6470   31.0880   45.4670 C.3   350  HEM350      0.0000
     31  CAC        6.9680   29.2130   43.5740 C.3   350  HEM350      0.0000
     32  CBC        8.0310   29.5500   42.6510 C.3   350  HEM350      0.0000
     33  ND         2.1830   30.2580   45.6990 N.ar  350  HEM350      0.0000
     34  C1D        2.6480   29.6750   44.5310 C.ar  350  HEM350      0.0000
     35  C2D        1.5350   29.1670   43.7530 C.ar  350  HEM350      0.0000
     36  C3D        0.4140   29.3140   44.4980 C.ar  350  HEM350      0.0000
     37  C4D        0.8170   29.9830   45.7120 C.ar  350  HEM350      0.0000
     38  CMD        1.6000   28.6250   42.3400 C.3   350  HEM350      0.0000
     39  CAD       -0.9980   28.8810   44.1220 C.3   350  HEM350      0.0000
     40  CBD       -1.1770   27.4290   44.5180 C.3   350  HEM350      0.0000
     41  CGD       -2.5670   26.8930   44.2160 C.2   350  HEM350      0.0000
     42  O1D       -2.8250   25.7140   44.5340 O.co2 350  HEM350      0.0000
     43  O2D       -3.3950   27.6460   43.6610 O.co2 350  HEM350      0.0000
@<TRIPOS>BOND
     1    38    35    1
     2    32    31    1
     3    31    28    1
     4    43    41   ar
     5    35    36   ar
     6    35    34   ar
     7    39    36    1
     8    39    40    1
     9     5    34    2
    10     5    29    1
    11    41    40    1
    12    41    42   ar
    13    36    37   ar
    14    28    29    1
    15    28    27    2
    16    34    33   ar
    17    29    25    2
    18    27    30    1
    19    27    26    1
    20    33    37   ar
    21    33     1    1
    22    37     2    2
    23    25    26    1
    24    25     1    1
    25    26     4    2
    26     2     7    1
    27     1     6    1
    28     1    17    1
    29     4    21    1
    30     7     6    2
    31     7     8    1
    32     6    10    1
    33    21    17   ar
    34    21    20   ar
    35    17    18   ar
    36    24    23    1
    37     8    12    1
    38     8     9    2
    39    12    13    1
    40    20    23    1
    41    20    19   ar
    42    10     9    1
    43    10     3    2
    44    18     3    1
    45    18    19   ar
    46    13    14    1
    47    16    14   ar
    48     9    11    1
    49    14    15   ar
    50    19    22    1
