@<TRIPOS>MOLECULE
1gw6_BES_A_1.pdb
 22 22 0 0 0
SMALL
GASTEIGER

@<TRIPOS>ATOM
      1  N2        34.6100    1.4230    1.6300 N.3   1611  BES1611    -0.1293
      2  C1        34.2170    2.8410    1.7180 C.3   1611  BES1611     0.1355
      3  C6        33.6920    3.3170    0.3490 C.3   1611  BES1611     0.0485
      4  C7        32.5340    2.4470   -0.1630 C.ar  1611  BES1611    -0.0206
      5  C8        32.6050    1.8810   -1.4530 C.ar  1611  BES1611    -0.0042
      6  C12       31.3930    2.2310    0.6380 C.ar  1611  BES1611    -0.0042
      7  C9        31.5350    1.1040   -1.9430 C.ar  1611  BES1611    -0.0003
      8  C11       30.3180    1.4520    0.1490 C.ar  1611  BES1611    -0.0003
      9  C10       30.3880    0.8880   -1.1470 C.ar  1611  BES1611    -0.0000
     10  C2        35.4130    3.6840    2.1880 C.3   1611  BES1611     0.2467
     11  O2        36.0110    3.0670    3.3200 O.3   1611  BES1611    -0.2116
     12  C3        34.9570    5.0890    2.5590 C.2   1611  BES1611     0.2738
     13  O3        34.2660    5.2770    3.5510 O.2   1611  BES1611    -0.2705
     14  N1        35.3910    6.0560    1.7480 N.am  1611  BES1611    -0.1934
     15  C4        35.0480    7.4850    1.9210 C.3   1611  BES1611     0.1978
     16  C13       36.1920    8.2770    2.5890 C.3   1611  BES1611     0.0333
     17  C14       36.0900    8.2860    4.1260 C.3   1611  BES1611     0.0023
     18  C15       34.7360    8.8490    4.5850 C.3   1611  BES1611     0.0001
     19  C16       37.2170    9.1620    4.7100 C.3   1611  BES1611     0.0001
     20  C5        34.7780    8.1040    0.5570 C.2   1611  BES1611     0.3842
     21  O1        35.2600    7.5140   -0.4380 O.co2 1611  BES1611    -0.2437
     22  O4        34.1130    9.1610    0.5390 O.co2 1611  BES1611    -0.2437
@<TRIPOS>BOND
     1     7     5   ar
     2     7     9   ar
     3     5     4   ar
     4     9     8   ar
     5    21    20   ar
     6     4     3    1
     7     4     6   ar
     8     8     6   ar
     9     3     2    1
    10    22    20   ar
    11    20    15    1
    12     1     2    1
    13     2    10    1
    14    14    15    1
    15    14    12   am
    16    15    16    1
    17    10    12    1
    18    10    11    1
    19    12    13    2
    20    16    17    1
    21    17    18    1
    22    17    19    1
