@<TRIPOS>MOLECULE
1gw9_LXC_A_1.pdb
 10 10 0 0 0
SMALL
GASTEIGER

@<TRIPOS>ATOM
      1  C5        33.2710   30.3840   56.4760 C.3   1390  LXC1390     0.1804
      2  O5        34.7160   30.3810   56.5760 O.3   1390  LXC1390    -0.3237
      3  C1        35.2400   31.8560   56.3900 C.3   1390  LXC1390     0.3024
      4  O1        36.6980   31.9560   56.4330 O.3   1390  LXC1390    -0.1869
      5  C2        34.6980   32.6740   57.5770 C.3   1390  LXC1390     0.2434
      6  O2        35.1150   34.0790   57.5000 O.3   1390  LXC1390    -0.2148
      7  C3        33.1730   32.5580   57.5330 C.3   1390  LXC1390     0.2199
      8  O3        32.6460   33.2730   58.6710 O.3   1390  LXC1390    -0.2174
      9  C4        32.7240   31.0930   57.5760 C.3   1390  LXC1390     0.2143
     10  O4        31.3070   31.1080   57.4860 O.3   1390  LXC1390    -0.2176
@<TRIPOS>BOND
     1     3     4    1
     2     3     2    1
     3     3     5    1
     4     1     2    1
     5     1     9    1
     6    10     9    1
     7     6     5    1
     8     7     9    1
     9     7     5    1
    10     7     8    1
