@<TRIPOS>MOLECULE
1gwc_GTX_A_1.pdb
 26 25 0 0 0
SMALL
GASTEIGER

@<TRIPOS>ATOM
      1  N1        47.0000   -7.2030   70.5010 N.3   1225  GTX1225    -0.1208
      2  CA1       47.2500   -8.5590   70.0250 C.3   1225  GTX1225     0.1945
      3  C1        48.4810   -8.4660   69.1500 C.2   1225  GTX1225     0.3819
      4  O11       49.2740   -9.4050   68.9530 O.co2 1225  GTX1225    -0.2441
      5  O12       48.7610   -7.3590   68.7110 O.co2 1225  GTX1225    -0.2441
      6  CB1       45.9040   -8.8990   69.3970 C.3   1225  GTX1225     0.0347
      7  CG1       45.8680  -10.3810   69.0320 C.3   1225  GTX1225     0.0535
      8  CD1       44.6470  -10.7480   68.2040 C.3   1225  GTX1225     0.2261
      9  OE1       43.5570  -10.4430   68.9700 O.3   1225  GTX1225    -0.2036
     10  N2        44.5210  -12.1680   68.1690 N.3   1225  GTX1225    -0.1804
     11  CA2       43.2690  -12.8630   67.9550 C.3   1225  GTX1225     0.1636
     12  C2        43.2630  -14.1530   68.6920 C.2   1225  GTX1225     0.2587
     13  O2        44.2710  -14.8980   68.7360 O.2   1225  GTX1225    -0.2718
     14  CB2       43.1310  -13.2860   66.5160 C.3   1225  GTX1225     0.0843
     15  SG2       43.2800  -11.8230   65.4910 S.3   1225  GTX1225    -0.1383
     16  C1S       41.5980  -11.2820   65.6840 C.3   1225  GTX1225     0.0576
     17  C2S       41.1750  -10.7930   64.3260 C.3   1225  GTX1225     0.0116
     18  C3S       40.4120  -11.9380   63.6480 C.3   1225  GTX1225     0.0009
     19  C4S       41.1730  -12.8610   62.6980 C.3   1225  GTX1225     0.0000
     20  C5S       40.5050  -14.2420   62.7090 C.3   1225  GTX1225     0.0000
     21  C6S       41.5460  -15.3310   62.8580 C.3   1225  GTX1225     0.0000
     22  N3        42.1090  -14.4470   69.2370 N.am  1225  GTX1225    -0.1920
     23  CA3       41.9660  -15.7410   69.9450 C.3   1225  GTX1225     0.2285
     24  C3        40.5700  -16.3370   69.8000 C.2   1225  GTX1225     0.3865
     25  O31       39.7370  -15.7920   69.0110 O.co2 1225  GTX1225    -0.2437
     26  O32       40.2560  -17.3460   70.4620 O.co2 1225  GTX1225    -0.2437
@<TRIPOS>BOND
     1    19    20    1
     2    19    18    1
     3    20    21    1
     4    18    17    1
     5    17    16    1
     6    15    16    1
     7    15    14    1
     8    14    11    1
     9    11    10    1
    10    11    12    1
    11    10     8    1
    12     8     9    1
    13     8     7    1
    14    12    13    2
    15    12    22   am
    16     5     3   ar
    17     4     3   ar
    18    25    24   ar
    19     7     6    1
    20     3     2    1
    21    22    23    1
    22     6     2    1
    23    24    23    1
    24    24    26   ar
    25     2     1    1
