@<TRIPOS>MOLECULE
1gwe_HEM_A_1.pdb
 43 50 0 0 0
SMALL
GASTEIGER

@<TRIPOS>ATOM
      1 FE         22.5930   -1.2540   -3.8480 Fe    504  HEM504      0.0000
      2  CHA       20.0930    0.8600   -4.8300 C.2   504  HEM504      0.0000
      3  CHB       20.4450   -2.8170   -1.6990 C.2   504  HEM504      0.0000
      4  CHC       25.2260   -2.9890   -2.4840 C.2   504  HEM504      0.0000
      5  CHD       24.6660    0.0240   -6.2160 C.2   504  HEM504      0.0000
      6  NA        20.6540   -0.9460   -3.2710 N.2   504  HEM504      0.0000
      7  C1A       19.7680   -0.0600   -3.8490 C.2   504  HEM504      0.0000
      8  C2A       18.4200   -0.3420   -3.3600 C.2   504  HEM504      0.0000
      9  C3A       18.5200   -1.4000   -2.5110 C.2   504  HEM504      0.0000
     10  C4A       19.9260   -1.7610   -2.4520 C.2   504  HEM504      0.0000
     11  CMA       17.4200   -2.1170   -1.7850 C.3   504  HEM504      0.0000
     12  CAA       17.1690    0.3730   -3.7900 C.3   504  HEM504      0.0000
     13  CBA       16.5310   -0.3070   -4.9930 C.3   504  HEM504      0.0000
     14  CGA       15.2060    0.2790   -5.4590 C.2   504  HEM504      0.0000
     15  O1A       14.3850    0.6730   -4.5920 O.co2 504  HEM504      0.0000
     16  O2A       14.9810    0.3130   -6.6960 O.co2 504  HEM504      0.0000
     17  NB        22.8090   -2.5910   -2.3020 N.ar  504  HEM504      0.0000
     18  C1B       21.7760   -3.2030   -1.6300 C.ar  504  HEM504      0.0000
     19  C2B       22.2950   -4.2760   -0.8000 C.ar  504  HEM504      0.0000
     20  C3B       23.6460   -4.2530   -0.9590 C.ar  504  HEM504      0.0000
     21  C4B       23.9610   -3.2180   -1.9200 C.ar  504  HEM504      0.0000
     22  CMB       21.4690   -5.1860    0.0560 C.3   504  HEM504      0.0000
     23  CAB       24.6640   -5.1020   -0.3300 C.2   504  HEM504      0.0000
     24  CBB       24.5550   -6.3830   -0.0310 C.2   504  HEM504      0.0000
     25  NC        24.6200   -1.4100   -4.2440 N.2   504  HEM504      0.0000
     26  C1C       25.5130   -2.2260   -3.6070 C.2   504  HEM504      0.0000
     27  C2C       26.7530   -2.2670   -4.3670 C.2   504  HEM504      0.0000
     28  C3C       26.5590   -1.4950   -5.4760 C.2   504  HEM504      0.0000
     29  C4C       25.2270   -0.9110   -5.3520 C.2   504  HEM504      0.0000
     30  CMC       27.9680   -3.0560   -3.9570 C.3   504  HEM504      0.0000
     31  CAC       27.4370   -1.3190   -6.6430 C.2   504  HEM504      0.0000
     32  CBC       28.3460   -2.1840   -7.0850 C.2   504  HEM504      0.0000
     33  ND        22.4480    0.2820   -5.1810 N.ar  504  HEM504      0.0000
     34  C1D       23.3940    0.5890   -6.1330 C.ar  504  HEM504      0.0000
     35  C2D       22.8580    1.5520   -7.0570 C.ar  504  HEM504      0.0000
     36  C3D       21.5650    1.8020   -6.6560 C.ar  504  HEM504      0.0000
     37  C4D       21.3160    0.9870   -5.4890 C.ar  504  HEM504      0.0000
     38  CMD       23.5930    2.1350   -8.2250 C.3   504  HEM504      0.0000
     39  CAD       20.5830    2.7100   -7.3290 C.3   504  HEM504      0.0000
     40  CBD       19.9040    2.0540   -8.5430 C.3   504  HEM504      0.0000
     41  CGD       19.0850    3.1140   -9.2660 C.2   504  HEM504      0.0000
     42  O1D       17.8310    3.0080   -9.2840 O.co2 504  HEM504      0.0000
     43  O2D       19.7230    4.0880   -9.7560 O.co2 504  HEM504      0.0000
@<TRIPOS>BOND
     1    43    41   ar
     2    42    41   ar
     3    41    40    1
     4    40    39    1
     5    38    35    1
     6    39    36    1
     7    32    31    2
     8    35    36   ar
     9    35    34   ar
    10    16    14   ar
    11    36    37   ar
    12    31    28    1
    13     5    34    2
    14     5    29    1
    15    34    33   ar
    16    37    33   ar
    17    37     2    2
    18    28    29    1
    19    28    27    2
    20    14    13    1
    21    14    15   ar
    22    29    25    2
    23    33     1    1
    24    13    12    1
    25     2     7    1
    26    27    30    1
    27    27    26    1
    28    25     1    1
    29    25    26    1
    30     7     8    1
    31     7     6    2
    32     1     6    1
    33     1    17    1
    34    12     8    1
    35    26     4    2
    36     8     9    2
    37     6    10    1
    38     9    10    1
    39     9    11    1
    40     4    21    1
    41    10     3    2
    42    17    21   ar
    43    17    18   ar
    44    21    20   ar
    45     3    18    1
    46    18    19   ar
    47    20    19   ar
    48    20    23    1
    49    19    22    1
    50    23    24    2
