@<TRIPOS>MOLECULE
1gwf_HEM_A_1.pdb
 43 50 0 0 0
SMALL
GASTEIGER

@<TRIPOS>ATOM
      1 FE         22.6330   -1.1100   -3.5790 Fe    504  HEM504      0.0000
      2  CHA       20.1100    0.9080   -4.7390 C.2   504  HEM504      0.0000
      3  CHB       20.4330   -2.7750   -1.5490 C.2   504  HEM504      0.0000
      4  CHC       25.2490   -2.8080   -2.2740 C.2   504  HEM504      0.0000
      5  CHD       24.7060   -0.0610   -6.1460 C.2   504  HEM504      0.0000
      6  NA        20.6260   -0.9480   -3.1950 N.2   504  HEM504      0.0000
      7  C1A       19.7530   -0.0760   -3.8070 C.2   504  HEM504      0.0000
      8  C2A       18.4430   -0.3440   -3.2750 C.2   504  HEM504      0.0000
      9  C3A       18.5620   -1.3300   -2.3830 C.2   504  HEM504      0.0000
     10  C4A       19.9430   -1.7470   -2.3080 C.2   504  HEM504      0.0000
     11  CMA       17.4740   -2.0300   -1.5860 C.3   504  HEM504      0.0000
     12  CAA       17.1250    0.3570   -3.6430 C.3   504  HEM504      0.0000
     13  CBA       16.5550   -0.3810   -4.8600 C.3   504  HEM504      0.0000
     14  CGA       15.2990    0.2430   -5.4070 C.2   504  HEM504      0.0000
     15  O1A       14.5070    0.6530   -4.5790 O.co2 504  HEM504      0.0000
     16  O2A       15.1380    0.3860   -6.6610 O.co2 504  HEM504      0.0000
     17  NB        22.7830   -2.5280   -2.2050 N.ar  504  HEM504      0.0000
     18  C1B       21.7660   -3.1600   -1.4950 C.ar  504  HEM504      0.0000
     19  C2B       22.3060   -4.1970   -0.6920 C.ar  504  HEM504      0.0000
     20  C3B       23.6360   -4.1850   -0.8740 C.ar  504  HEM504      0.0000
     21  C4B       23.9750   -3.1740   -1.8610 C.ar  504  HEM504      0.0000
     22  CMB       21.4440   -5.0840    0.2300 C.3   504  HEM504      0.0000
     23  CAB       24.7320   -5.0770   -0.2580 C.2   504  HEM504      0.0000
     24  CBB       24.5490   -6.3300    0.1110 C.2   504  HEM504      0.0000
     25  NC        24.6140   -1.2870   -4.0890 N.2   504  HEM504      0.0000
     26  C1C       25.5120   -2.0920   -3.3900 C.2   504  HEM504      0.0000
     27  C2C       26.7330   -2.2440   -4.1750 C.2   504  HEM504      0.0000
     28  C3C       26.5750   -1.5140   -5.2980 C.2   504  HEM504      0.0000
     29  C4C       25.2240   -0.9390   -5.2690 C.2   504  HEM504      0.0000
     30  CMC       27.9040   -3.0980   -3.6700 C.3   504  HEM504      0.0000
     31  CAC       27.5260   -1.3380   -6.4870 C.2   504  HEM504      0.0000
     32  CBC       28.2770   -2.3850   -6.8890 C.2   504  HEM504      0.0000
     33  ND        22.4700    0.1840   -5.1620 N.ar  504  HEM504      0.0000
     34  C1D       23.4710    0.5240   -6.0430 C.ar  504  HEM504      0.0000
     35  C2D       22.9760    1.4910   -6.9600 C.ar  504  HEM504      0.0000
     36  C3D       21.5790    1.7810   -6.5790 C.ar  504  HEM504      0.0000
     37  C4D       21.3200    0.9650   -5.4290 C.ar  504  HEM504      0.0000
     38  CMD       23.7530    2.1130   -8.0980 C.3   504  HEM504      0.0000
     39  CAD       20.6820    2.7810   -7.2580 C.3   504  HEM504      0.0000
     40  CBD       19.9330    2.0390   -8.3700 C.3   504  HEM504      0.0000
     41  CGD       19.1320    3.0820   -9.1530 C.2   504  HEM504      0.0000
     42  O1D       17.8970    2.9420   -9.2400 O.co2 504  HEM504      0.0000
     43  O2D       19.8080    4.0600   -9.6350 O.co2 504  HEM504      0.0000
@<TRIPOS>BOND
     1    43    41   ar
     2    42    41   ar
     3    41    40    1
     4    40    39    1
     5    38    35    1
     6    39    36    1
     7    35    36   ar
     8    35    34   ar
     9    32    31    2
    10    16    14   ar
    11    36    37   ar
    12    31    28    1
    13     5    34    2
    14     5    29    1
    15    34    33   ar
    16    37    33   ar
    17    37     2    2
    18    14    13    1
    19    14    15   ar
    20    28    29    1
    21    28    27    2
    22    29    25    2
    23    33     1    1
    24    13    12    1
    25     2     7    1
    26    27    30    1
    27    27    26    1
    28    25     1    1
    29    25    26    1
    30     7     8    1
    31     7     6    2
    32    12     8    1
    33     1     6    1
    34     1    17    1
    35    26     4    2
    36     8     9    2
    37     6    10    1
    38     9    10    1
    39     9    11    1
    40    10     3    2
    41     4    21    1
    42    17    21   ar
    43    17    18   ar
    44    21    20   ar
    45     3    18    1
    46    18    19   ar
    47    20    19   ar
    48    20    23    1
    49    19    22    1
    50    23    24    2
