@<TRIPOS>MOLECULE
1gwh_NDP_A_1.pdb
 47 48 0 0 0
SMALL
GASTEIGER

@<TRIPOS>ATOM
      1  PA        47.3710    4.1370  -11.6810 P.3   505  NDP505      0.5327
      2  O1A       48.5580    4.4560  -10.8340 O.3   505  NDP505     -0.1145
      3  O2A       46.8620    5.4080  -12.4180 O.3   505  NDP505     -0.1145
      4  O5B       46.2730    3.5580  -10.6330 O.3   505  NDP505     -0.2675
      5  C5B       46.4160    2.3340   -9.9010 C.3   505  NDP505      0.1860
      6  C4B       45.0110    1.9050   -9.4700 C.3   505  NDP505      0.1822
      7  O4B       44.5450    2.9660   -8.7070 O.3   505  NDP505     -0.3136
      8  C3B       44.2600    1.8420  -10.7440 C.3   505  NDP505      0.2157
      9  O3B       43.5330    0.6300  -10.6290 O.3   505  NDP505     -0.2175
     10  C2B       43.3960    3.1200  -10.7430 C.3   505  NDP505      0.2314
     11  O2B       42.0710    2.8240  -11.0780 O.3   505  NDP505     -0.2630
     12  C1B       43.3760    3.4970   -9.2760 C.3   505  NDP505      0.3158
     13  N9A       43.4330    4.9300   -8.9420 N.pl3 505  NDP505     -0.1439
     14  C8A       44.1760    5.9150   -9.4950 C.3   505  NDP505      0.3377
     15  N7A       43.9590    7.0690   -8.8390 N.2   505  NDP505     -0.2095
     16  C5A       43.0920    6.7950   -7.8270 C.2   505  NDP505      0.2526
     17  C6A       42.5110    7.5740   -6.8350 C.2   505  NDP505      0.4393
     18  N6A       42.8560    8.8470   -6.6500 N.pl3 505  NDP505      0.2180
     19  N1A       41.6360    6.9640   -5.9800 N.2   505  NDP505      0.0021
     20  C2A       41.3620    5.6270   -6.0930 C.3   505  NDP505      0.5254
     21  N3A       41.9330    4.8650   -7.0650 N.2   505  NDP505     -0.0055
     22  C4A       42.7530    5.4560   -7.9150 C.2   505  NDP505      0.3518
     23  O3        48.4450    3.2480  -12.4370 O.2   505  NDP505     -0.2224
     24  O1N       50.1020    2.8020  -14.2590 O.3   505  NDP505      0.0000
     25  O2N       47.7730    2.2360  -14.7090 O.3   505  NDP505      0.0000
     26  O5D       49.0510    0.9430  -12.9010 O.3   505  NDP505     -0.2176
     27  C5D       50.3770    0.8090  -12.3130 C.3   505  NDP505      0.2142
     28  C4D       50.3370   -0.3390  -11.3250 C.3   505  NDP505      0.1828
     29  O4D       49.1920   -0.0950  -10.4680 O.3   505  NDP505     -0.3326
     30  C3D       50.0600   -1.7230  -11.9670 C.3   505  NDP505      0.2159
     31  O3D       51.3200   -2.3400  -12.1350 O.3   505  NDP505     -0.2175
     32  C2D       49.2340   -2.4250  -10.9140 C.3   505  NDP505      0.2309
     33  O2D       49.9770   -3.3060  -10.0980 O.3   505  NDP505     -0.2158
     34  C1D       48.5620   -1.3070  -10.1300 C.3   505  NDP505      0.2263
     35  N1N       47.1420   -1.2000  -10.4360 N.pl3 505  NDP505     -0.2787
     36  C2N       46.7870   -1.0340  -11.7370 C.3   505  NDP505      0.1244
     37  C3N       45.4490   -0.9560  -12.0730 C.2   505  NDP505      0.0544
     38  C7N       44.9030   -0.8120  -13.5250 C.2   505  NDP505      0.2818
     39  O7N       43.7050   -0.8840  -13.8220 O.2   505  NDP505     -0.2670
     40  N7N       45.8560   -0.6310  -14.4670 N.am  505  NDP505     -0.0839
     41  C4N       44.4290   -1.0370  -11.1060 C.2   505  NDP505      0.0033
     42  C5N       44.8910   -1.1430   -9.8090 C.2   505  NDP505      0.0157
     43  C6N       46.1980   -1.2310   -9.3910 C.2   505  NDP505      0.0633
     44  P2B       41.4410    3.1130  -12.5070 P.3   505  NDP505      0.5328
     45  O1X       41.1050    4.5110  -12.6390 O.3   505  NDP505     -0.1145
     46  O2X       40.2170    2.1800  -12.5170 O.3   505  NDP505     -0.1145
     47  O3X       42.4180    2.7390  -13.6110 O.2   505  NDP505     -0.2224
@<TRIPOS>BOND
     1    40    38   am
     2    39    38    2
     3    47    44    2
     4    38    37    1
     5    26    27    1
     6    45    44    1
     7    46    44    1
     8    44    11    1
     9    23     1    2
    10     3     1    1
    11    27    28    1
    12    31    30    1
    13    37    36    1
    14    37    41    2
    15    30    28    1
    16    30    32    1
    17    36    35    1
    18     1     2    1
    19     1     4    1
    20    28    29    1
    21    41    42    1
    22    11    10    1
    23    32    34    1
    24    32    33    1
    25     8    10    1
    26     8     9    1
    27     8     6    1
    28    10    12    1
    29     4     5    1
    30    29    34    1
    31    35    34    1
    32    35    43    1
    33     5     6    1
    34    42    43    2
    35    14    13    1
    36    14    15    1
    37     6     7    1
    38    12    13    1
    39    12     7    1
    40    13    22    1
    41    15    16    2
    42    22    16    1
    43    22    21    2
    44    16    17    1
    45    21    20    1
    46    17    18    1
    47    17    19    2
    48    20    19    1
