@<TRIPOS>MOLECULE
1gwh_HEM_A_1.pdb
 43 50 0 0 0
SMALL
GASTEIGER

@<TRIPOS>ATOM
      1 FE         22.6210   -1.3500   -3.8260 Fe    504  HEM504      0.0000
      2  CHA       20.1610    0.8340   -4.7520 C.2   504  HEM504      0.0000
      3  CHB       20.4470   -2.8070   -1.6190 C.2   504  HEM504      0.0000
      4  CHC       25.2310   -2.9770   -2.3080 C.2   504  HEM504      0.0000
      5  CHD       24.7160   -0.0880   -6.1410 C.2   504  HEM504      0.0000
      6  NA        20.6900   -0.9700   -3.2110 N.2   504  HEM504      0.0000
      7  C1A       19.8130   -0.0980   -3.8410 C.2   504  HEM504      0.0000
      8  C2A       18.4760   -0.3700   -3.3340 C.2   504  HEM504      0.0000
      9  C3A       18.5670   -1.3800   -2.4750 C.2   504  HEM504      0.0000
     10  C4A       19.9550   -1.7790   -2.3870 C.2   504  HEM504      0.0000
     11  CMA       17.4310   -2.0610   -1.7020 C.3   504  HEM504      0.0000
     12  CAA       17.2010    0.3590   -3.7820 C.3   504  HEM504      0.0000
     13  CBA       16.6100   -0.3730   -4.9950 C.3   504  HEM504      0.0000
     14  CGA       15.3230    0.2660   -5.4810 C.2   504  HEM504      0.0000
     15  O1A       14.5490    0.7290   -4.6140 O.co2 504  HEM504      0.0000
     16  O2A       15.0830    0.3050   -6.6990 O.co2 504  HEM504      0.0000
     17  NB        22.7950   -2.5980   -2.2460 N.ar  504  HEM504      0.0000
     18  C1B       21.7520   -3.2110   -1.5620 C.ar  504  HEM504      0.0000
     19  C2B       22.2760   -4.2720   -0.7350 C.ar  504  HEM504      0.0000
     20  C3B       23.5940   -4.2800   -0.9000 C.ar  504  HEM504      0.0000
     21  C4B       23.9520   -3.2490   -1.8580 C.ar  504  HEM504      0.0000
     22  CMB       21.4260   -5.1540    0.1900 C.3   504  HEM504      0.0000
     23  CAB       24.6190   -5.2240   -0.2530 C.2   504  HEM504      0.0000
     24  CBB       24.3090   -6.4440    0.1310 C.2   504  HEM504      0.0000
     25  NC        24.6610   -1.4400   -4.1210 N.2   504  HEM504      0.0000
     26  C1C       25.5270   -2.2860   -3.4560 C.2   504  HEM504      0.0000
     27  C2C       26.7590   -2.3210   -4.2120 C.2   504  HEM504      0.0000
     28  C3C       26.5780   -1.5630   -5.2900 C.2   504  HEM504      0.0000
     29  C4C       25.2510   -0.9800   -5.2450 C.2   504  HEM504      0.0000
     30  CMC       27.9960   -3.1200   -3.8160 C.3   504  HEM504      0.0000
     31  CAC       27.5450   -1.2770   -6.4090 C.2   504  HEM504      0.0000
     32  CBC       28.3130   -2.2800   -6.8820 C.2   504  HEM504      0.0000
     33  ND        22.4980    0.1810   -5.1670 N.ar  504  HEM504      0.0000
     34  C1D       23.4930    0.4810   -6.0540 C.ar  504  HEM504      0.0000
     35  C2D       22.9990    1.4510   -6.9740 C.ar  504  HEM504      0.0000
     36  C3D       21.6220    1.7450   -6.5670 C.ar  504  HEM504      0.0000
     37  C4D       21.3570    0.9020   -5.4350 C.ar  504  HEM504      0.0000
     38  CMD       23.7630    2.1100   -8.1030 C.3   504  HEM504      0.0000
     39  CAD       20.7210    2.7230   -7.2510 C.3   504  HEM504      0.0000
     40  CBD       20.0540    2.0590   -8.4400 C.3   504  HEM504      0.0000
     41  CGD       19.2120    3.1360   -9.1060 C.2   504  HEM504      0.0000
     42  O1D       17.9730    2.9800   -9.1470 O.co2 504  HEM504      0.0000
     43  O2D       19.8240    4.1290   -9.5780 O.co2 504  HEM504      0.0000
@<TRIPOS>BOND
     1    43    41   ar
     2    42    41   ar
     3    41    40    1
     4    40    39    1
     5    38    35    1
     6    39    36    1
     7    35    36   ar
     8    35    34   ar
     9    32    31    2
    10    16    14   ar
    11    36    37   ar
    12    31    28    1
    13     5    34    2
    14     5    29    1
    15    34    33   ar
    16    14    13    1
    17    14    15   ar
    18    37    33   ar
    19    37     2    2
    20    28    29    1
    21    28    27    2
    22    29    25    2
    23    33     1    1
    24    13    12    1
    25     2     7    1
    26    27    30    1
    27    27    26    1
    28    25     1    1
    29    25    26    1
    30     7     8    1
    31     7     6    2
    32     1     6    1
    33     1    17    1
    34    12     8    1
    35    26     4    2
    36     8     9    2
    37     6    10    1
    38     9    10    1
    39     9    11    1
    40    10     3    2
    41     4    21    1
    42    17    21   ar
    43    17    18   ar
    44    21    20   ar
    45     3    18    1
    46    18    19   ar
    47    20    19   ar
    48    20    23    1
    49    19    22    1
    50    23    24    2
