@<TRIPOS>MOLECULE
1gwi_HEM_A_1.pdb
 43 50 0 0 0
SMALL
GASTEIGER

@<TRIPOS>ATOM
      1 FE         25.7520   11.6920   15.4510 Fe    1414  HEM1414     0.0000
      2  CHA       28.0310   14.1500   14.9990 C.2   1414  HEM1414     0.0000
      3  CHB       26.4780   11.6180   18.7780 C.2   1414  HEM1414     0.0000
      4  CHC       23.4430    9.2360   15.8880 C.2   1414  HEM1414     0.0000
      5  CHD       25.0420   11.7290   12.1160 C.2   1414  HEM1414     0.0000
      6  NA        27.0170   12.7210   16.6740 N.2   1414  HEM1414     0.0000
      7  C1A       27.8700   13.7130   16.2880 C.2   1414  HEM1414     0.0000
      8  C2A       28.5710   14.2290   17.4570 C.2   1414  HEM1414     0.0000
      9  C3A       28.1470   13.5110   18.5200 C.2   1414  HEM1414     0.0000
     10  C4A       27.1650   12.5490   18.0370 C.2   1414  HEM1414     0.0000
     11  CMA       28.5660   13.6340   19.9930 C.3   1414  HEM1414     0.0000
     12  CAA       29.5920   15.3990   17.3770 C.3   1414  HEM1414     0.0000
     13  CBA       30.9970   15.1500   17.8930 C.3   1414  HEM1414     0.0000
     14  CGA       31.7570   16.4610   18.1440 C.2   1414  HEM1414     0.0000
     15  O1A       31.5740   17.3850   17.2680 O.co2 1414  HEM1414     0.0000
     16  O2A       32.4670   16.5520   19.1380 O.co2 1414  HEM1414     0.0000
     17  NB        25.0940   10.6100   17.0190 N.ar  1414  HEM1414     0.0000
     18  C1B       25.5350   10.7270   18.3280 C.ar  1414  HEM1414     0.0000
     19  C2B       24.8430    9.7600   19.1690 C.ar  1414  HEM1414     0.0000
     20  C3B       23.9820    9.0820   18.3560 C.ar  1414  HEM1414     0.0000
     21  C4B       24.1370    9.6260   17.0220 C.ar  1414  HEM1414     0.0000
     22  CMB       25.0840    9.5880   20.6810 C.3   1414  HEM1414     0.0000
     23  CAB       22.9930    7.9370   18.6950 C.3   1414  HEM1414     0.0000
     24  CBB       22.0070    8.2380   19.8350 C.3   1414  HEM1414     0.0000
     25  NC        24.4830   10.7020   14.2350 N.2   1414  HEM1414     0.0000
     26  C1C       23.5960    9.7270   14.6100 C.2   1414  HEM1414     0.0000
     27  C2C       22.8150    9.2690   13.4520 C.2   1414  HEM1414     0.0000
     28  C3C       23.2590    9.9560   12.3940 C.2   1414  HEM1414     0.0000
     29  C4C       24.3060   10.8510   12.8750 C.2   1414  HEM1414     0.0000
     30  CMC       21.7000    8.1830   13.5160 C.3   1414  HEM1414     0.0000
     31  CAC       22.8040    9.8780   10.9220 C.3   1414  HEM1414     0.0000
     32  CBC       21.8530   10.9980   10.4760 C.3   1414  HEM1414     0.0000
     33  ND        26.4170   12.7100   13.8760 N.ar  1414  HEM1414     0.0000
     34  C1D       26.0150   12.5900   12.5410 C.ar  1414  HEM1414     0.0000
     35  C2D       26.7720   13.5050   11.6990 C.ar  1414  HEM1414     0.0000
     36  C3D       27.6130   14.1920   12.5050 C.ar  1414  HEM1414     0.0000
     37  C4D       27.3820   13.6990   13.8620 C.ar  1414  HEM1414     0.0000
     38  CMD       26.6010   13.6320   10.1710 C.3   1414  HEM1414     0.0000
     39  CAD       28.6190   15.2810   12.0820 C.3   1414  HEM1414     0.0000
     40  CBD       28.1560   16.7010   12.5170 C.3   1414  HEM1414     0.0000
     41  CGD       29.1420   17.7700   12.1260 C.2   1414  HEM1414     0.0000
     42  O1D       28.7230   18.8350   11.6510 O.co2 1414  HEM1414     0.0000
     43  O2D       30.3430   17.4940   12.3360 O.co2 1414  HEM1414     0.0000
@<TRIPOS>BOND
     1    38    35    1
     2    32    31    1
     3    31    28    1
     4    42    41   ar
     5    35    36   ar
     6    35    34   ar
     7    39    36    1
     8    39    40    1
     9     5    34    2
    10     5    29    1
    11    41    43   ar
    12    41    40    1
    13    28    29    1
    14    28    27    2
    15    36    37   ar
    16    34    33   ar
    17    29    25    2
    18    27    30    1
    19    27    26    1
    20    37    33   ar
    21    37     2    2
    22    33     1    1
    23    25    26    1
    24    25     1    1
    25    26     4    2
    26     2     7    1
    27     1     6    1
    28     1    17    1
    29     4    21    1
    30     7     6    2
    31     7     8    1
    32     6    10    1
    33    17    21   ar
    34    17    18   ar
    35    21    20   ar
    36    15    14   ar
    37    12     8    1
    38    12    13    1
    39     8     9    2
    40    13    14    1
    41    10     9    1
    42    10     3    2
    43    14    16   ar
    44    18     3    1
    45    18    19   ar
    46    20    23    1
    47    20    19   ar
    48     9    11    1
    49    23    24    1
    50    19    22    1
