@<TRIPOS>MOLECULE
1gwj_FMN_A_1.pdb
 31 33 0 0 0
SMALL
GASTEIGER

@<TRIPOS>ATOM
      1  N1        15.0490   50.7870   24.0360 N.2   401  FMN401     -0.2887
      2  C2        15.9680   51.7720   23.8140 C.1   401  FMN401      0.3669
      3  O2        17.1490   51.6330   23.9610 O.2   401  FMN401     -0.1744
      4  N3        15.5020   53.0390   23.4010 N.2   401  FMN401     -0.2300
      5  C4        14.1980   53.3690   23.2170 C.1   401  FMN401      0.2513
      6  O4        13.8940   54.5100   22.8130 O.2   401  FMN401     -0.2057
      7  C4A       13.2030   52.2800   23.4250 C.2   401  FMN401      0.2703
      8  N5        11.8810   52.4900   23.2260 N.2   401  FMN401     -0.3882
      9  C5A       10.9630   51.5000   23.5200 C.2   401  FMN401      0.1277
     10  C6         9.5190   51.8480   23.3290 C.3   401  FMN401      0.0820
     11  C7         8.5640   50.8390   23.6250 C.2   401  FMN401     -0.0408
     12  C7M        7.0740   51.1470   23.4900 C.3   401  FMN401      0.0265
     13  C8         8.9720   49.4780   24.1510 C.2   401  FMN401     -0.0280
     14  C8M        8.0440   48.4810   24.5110 C.3   401  FMN401      0.0304
     15  C9        10.3540   49.2610   24.2960 C.2   401  FMN401      0.0123
     16  C9A       11.3510   50.2080   24.0080 C.2   401  FMN401      0.0793
     17  N10       12.7730   49.9940   24.1700 N.pl3 401  FMN401     -0.2545
     18  C10       13.7340   50.9870   23.8590 C.2   401  FMN401      0.2449
     19  C1'       13.2430   48.6990   24.7560 C.3   401  FMN401      0.1336
     20  C2'       13.2360   48.7970   26.2680 C.3   401  FMN401      0.2048
     21  O2'       14.1230   49.7840   26.7350 O.3   401  FMN401     -0.2185
     22  C3'       13.5820   47.4740   26.9890 C.3   401  FMN401      0.2165
     23  O3'       14.9970   47.1920   26.8210 O.3   401  FMN401     -0.2175
     24  C4'       12.7230   46.3070   26.5960 C.3   401  FMN401      0.2147
     25  O4'       11.3150   46.7040   26.7190 O.3   401  FMN401     -0.2176
     26  C5'       12.9320   45.0680   27.4380 C.3   401  FMN401      0.1892
     27  O5'       12.5810   45.3220   28.8240 O.3   401  FMN401     -0.2674
     28  P         11.1410   45.0710   29.4440 P.3   401  FMN401      0.5327
     29  O1P       10.1310   45.9640   28.7930 O.2   401  FMN401     -0.2224
     30  O2P       10.8440   43.5880   29.3440 O.3   401  FMN401     -0.1145
     31  O3P       11.3300   45.4540   30.9340 O.3   401  FMN401     -0.1145
@<TRIPOS>BOND
     1     6     5    2
     2     5     4    2
     3     5     7    1
     4     8     7    2
     5     8     9    2
     6    10     9    1
     7    10    11    1
     8     4     2    2
     9     7    18    1
    10    12    11    1
    11     9    16    1
    12    11    13    2
    13     2     3    2
    14     2     1    2
    15    18     1    2
    16    18    17    1
    17    16    17    1
    18    16    15    2
    19    13    15    1
    20    13    14    1
    21    17    19    1
    22    19    20    1
    23    20    21    1
    24    20    22    1
    25    24    25    1
    26    24    22    1
    27    24    26    1
    28    23    22    1
    29    26    27    1
    30    29    28    2
    31    27    28    1
    32    30    28    1
    33    28    31    1
