@<TRIPOS>MOLECULE
1gwl_BMA_A_1.pdb
 12 12 0 0 0
SMALL
GASTEIGER

@<TRIPOS>ATOM
      1  C1        19.6580   -2.7370   32.5180 C.3   1143  BMA1143     0.3024
      2  C2        19.1580   -4.1630   32.6850 C.3   1143  BMA1143     0.2434
      3  C3        18.5670   -4.5940   31.3420 C.3   1143  BMA1143     0.2199
      4  C4        17.5130   -3.5820   30.8410 C.3   1143  BMA1143     0.2144
      5  C5        17.9850   -2.1360   30.9720 C.3   1143  BMA1143     0.1836
      6  C6        16.8380   -1.1560   30.7510 C.3   1143  BMA1143     0.2142
      7  O1        20.2740   -2.2900   33.6960 O.3   1143  BMA1143    -0.1869
      8  O2        18.1720   -4.2010   33.7030 O.3   1143  BMA1143    -0.2148
      9  O3        18.0240   -5.8960   31.4330 O.3   1143  BMA1143    -0.2174
     10  O4        17.2540   -3.7710   29.4520 O.3   1143  BMA1143    -0.2176
     11  O5        18.5650   -1.8720   32.2320 O.3   1143  BMA1143    -0.3236
     12  O6        17.3440    0.1830   30.8480 O.3   1143  BMA1143    -0.2176
@<TRIPOS>BOND
     1    10     4    1
     2     6    12    1
     3     6     5    1
     4     4     5    1
     5     4     3    1
     6     5    11    1
     7     3     9    1
     8     3     2    1
     9    11     1    1
    10     1     2    1
    11     1     7    1
    12     2     8    1
