@<TRIPOS>MOLECULE
1gwm_BGC_A_1.pdb
 11 11 0 0 0
SMALL
GASTEIGER

@<TRIPOS>ATOM
      1  C2        28.8520    8.3410   26.7660 C.3   1156  BGC1156     0.2141
      2  C3        30.2720    8.6080   26.1850 C.3   1156  BGC1156     0.2173
      3  C4        30.9030    9.9510   26.6530 C.3   1156  BGC1156     0.2142
      4  C5        30.8230   10.0220   28.1910 C.3   1156  BGC1156     0.1810
      5  C6        31.4820   11.2670   28.7540 C.3   1156  BGC1156     0.2141
      6  C1        28.7930    8.7350   28.2850 C.3   1156  BGC1156     0.1777
      7  O2        28.4730    6.9810   26.4700 O.3   1156  BGC1156    -0.2176
      8  O3        30.1980    8.4700   24.7750 O.3   1156  BGC1156    -0.2175
      9  O4        32.3120   10.1200   26.3310 O.3   1156  BGC1156    -0.2176
     10  O5        29.4900    9.9080   28.6670 O.3   1156  BGC1156    -0.3481
     11  O6        30.8340   12.4240   28.2820 O.3   1156  BGC1156    -0.2176
@<TRIPOS>BOND
     1     8     2    1
     2     2     3    1
     3     2     1    1
     4     9     3    1
     5     7     1    1
     6     3     4    1
     7     1     6    1
     8     4    10    1
     9     4     5    1
    10    11     5    1
    11     6    10    1
