@<TRIPOS>MOLECULE
1gwm_GLC_A_1.pdb
 12 12 0 0 0
SMALL
GASTEIGER

@<TRIPOS>ATOM
      1  C1        25.5600    8.2280   32.3120 C.3   1155  GLC1155     0.3024
      2  C2        26.6230    9.3010   32.4840 C.3   1155  GLC1155     0.2434
      3  C3        27.0380    9.8300   31.1160 C.3   1155  GLC1155     0.2199
      4  C4        27.4220    8.6830   30.2190 C.3   1155  GLC1155     0.2144
      5  C5        26.2730    7.7340   30.0740 C.3   1155  GLC1155     0.1836
      6  C6        26.5920    6.6530   29.0400 C.3   1155  GLC1155     0.2142
      7  O1        24.3810    8.7960   31.8180 O.3   1155  GLC1155    -0.1869
      8  O2        26.1600   10.3900   33.2630 O.3   1155  GLC1155    -0.2148
      9  O3        28.1260   10.7160   31.2430 O.3   1155  GLC1155    -0.2174
     10  O5        26.0790    7.2640   31.3880 O.3   1155  GLC1155    -0.3236
     11  O6        27.6620    5.9810   29.6430 O.3   1155  GLC1155    -0.2176
     12  O4        27.5820    9.2020   28.9190 O.3   1155  GLC1155    -0.2176
@<TRIPOS>BOND
     1    12     4    1
     2     6    11    1
     3     6     5    1
     4     5     4    1
     5     5    10    1
     6     4     3    1
     7     3     9    1
     8     3     2    1
     9    10     1    1
    10     7     1    1
    11     1     2    1
    12     2     8    1
