@<TRIPOS>MOLECULE
1gwn_GTP_A_1.pdb
 32 34 0 0 0
SMALL
GASTEIGER

@<TRIPOS>ATOM
      1  PG        36.3990   41.9320   60.2830 P.3   1201  GTP1201     0.5373
      2  O1G       36.3600   40.6420   61.0560 O.3   1201  GTP1201    -0.1143
      3  O2G       37.2920   42.8860   60.9880 O.3   1201  GTP1201    -0.1143
      4  O3G       35.0980   42.3890   59.7290 O.2   1201  GTP1201    -0.2221
      5  O3B       37.2560   41.5580   58.9580 O.3   1201  GTP1201    -0.2258
      6  PB        37.8490   42.4220   57.7390 P.3   1201  GTP1201     0.2277
      7  O1B       36.8210   42.5320   56.6390 O.2   1201  GTP1201    -0.5168
      8  O2B       38.5810   43.6810   58.1630 O.3   1201  GTP1201    -0.4368
      9  O3A       39.0310   41.4510   57.2170 O.3   1201  GTP1201    -0.2700
     10  PA        40.5720   41.8290   56.9730 P.3   1201  GTP1201     0.2189
     11  O1A       40.7470   43.0600   56.1660 O.2   1201  GTP1201    -0.5170
     12  O2A       41.1900   41.7720   58.3310 O.3   1201  GTP1201    -0.4371
     13  O5'       41.1430   40.5990   56.1080 O.3   1201  GTP1201    -0.3112
     14  C5'       40.7170   39.2950   56.5290 C.3   1201  GTP1201     0.1813
     15  C4'       41.6660   38.1940   56.0950 C.3   1201  GTP1201     0.1799
     16  O4'       41.7260   38.1260   54.6640 O.3   1201  GTP1201    -0.3326
     17  C3'       43.0670   38.5020   56.5910 C.3   1201  GTP1201     0.2158
     18  O3'       43.7540   37.2830   56.7990 O.3   1201  GTP1201    -0.2175
     19  C2'       43.7430   39.1840   55.4510 C.3   1201  GTP1201     0.2310
     20  O2'       45.1690   38.9860   55.4910 O.3   1201  GTP1201    -0.2158
     21  C1'       43.0480   38.5200   54.2640 C.3   1201  GTP1201     0.2293
     22  N9        43.0290   39.4720   53.1590 N.pl3 1201  GTP1201    -0.2354
     23  C8        42.7050   40.7400   53.2300 C.3   1201  GTP1201     0.2246
     24  N7        42.7730   41.3560   52.0150 N.2   1201  GTP1201    -0.2322
     25  C5        43.2050   40.4400   51.1910 C.2   1201  GTP1201     0.2182
     26  C6        43.5260   40.4600   49.7810 C.1   1201  GTP1201     0.2372
     27  O6        43.4350   41.5270   49.1030 O.2   1201  GTP1201    -0.2069
     28  N1        43.9410   39.2860   49.3160 N.2   1201  GTP1201    -0.2485
     29  C2        44.0530   38.1600   50.0220 C.1   1201  GTP1201     0.2531
     30  N2        44.4540   37.0700   49.3350 N.pl3 1201  GTP1201    -0.0226
     31  N3        43.7850   38.0850   51.3170 N.2   1201  GTP1201    -0.3074
     32  C4        43.3700   39.1860   51.9230 C.2   1201  GTP1201     0.2300
@<TRIPOS>BOND
     1    27    26    2
     2    28    26    2
     3    28    29    2
     4    30    29    1
     5    26    25    1
     6    29    31    2
     7    25    32    1
     8    25    24    2
     9    31    32    2
    10    32    22    1
    11    24    23    1
    12    22    23    1
    13    22    21    1
    14    21    16    1
    15    21    19    1
    16    16    15    1
    17    19    20    1
    18    19    17    1
    19    15    14    1
    20    15    17    1
    21    13    14    1
    22    13    10    1
    23    11    10    2
    24    17    18    1
    25     7     6    2
    26    10     9    1
    27    10    12    1
    28     9     6    1
    29     6     8    1
    30     6     5    1
    31     5     1    1
    32     4     1    2
    33     1     3    1
    34     1     2    1
