@<TRIPOS>MOLECULE
1gwo_HEM_A_1.pdb
 43 50 0 0 0
SMALL
GASTEIGER

@<TRIPOS>ATOM
      1 FE          3.1040   31.9700   47.0620 Fe    350  HEM350      0.0000
      2  CHA       -0.0330   30.6360   46.9730 C.2   350  HEM350      0.0000
      3  CHB        2.3490   33.6100   50.0310 C.2   350  HEM350      0.0000
      4  CHC        6.4060   32.9010   47.4410 C.2   350  HEM350      0.0000
      5  CHD        3.9970   30.0010   44.3480 C.2   350  HEM350      0.0000
      6  NA         1.5230   32.0280   48.2880 N.2   350  HEM350      0.0000
      7  C1A        0.3030   31.4030   48.1010 C.2   350  HEM350      0.0000
      8  C2A       -0.6540   31.8050   49.1320 C.2   350  HEM350      0.0000
      9  C3A        0.0000   32.6450   49.9690 C.2   350  HEM350      0.0000
     10  C4A        1.3520   32.7990   49.4470 C.2   350  HEM350      0.0000
     11  CMA       -0.5690   33.2620   51.2330 C.3   350  HEM350      0.0000
     12  CAA       -2.1330   31.4500   49.2310 C.3   350  HEM350      0.0000
     13  CBA       -2.3260   30.1270   49.9510 C.3   350  HEM350      0.0000
     14  CGA       -3.7890   29.7680   50.1450 C.2   350  HEM350      0.0000
     15  O1A       -4.0660   28.6430   50.6120 O.co2 350  HEM350      0.0000
     16  O2A       -4.6630   30.6070   49.8360 O.co2 350  HEM350      0.0000
     17  NB         4.1590   33.0950   48.4030 N.ar  350  HEM350      0.0000
     18  C1B        3.6690   33.7490   49.5420 C.ar  350  HEM350      0.0000
     19  C2B        4.7290   34.4900   50.2010 C.ar  350  HEM350      0.0000
     20  C3B        5.8430   34.3770   49.4320 C.ar  350  HEM350      0.0000
     21  C4B        5.5050   33.4330   48.3650 C.ar  350  HEM350      0.0000
     22  CMB        4.6170   35.2250   51.5370 C.3   350  HEM350      0.0000
     23  CAB        7.0750   34.9610   49.7160 C.3   350  HEM350      0.0000
     24  CBB        7.8480   35.7590   48.7800 C.3   350  HEM350      0.0000
     25  NC         4.8480   31.5210   46.1220 N.2   350  HEM350      0.0000
     26  C1C        6.1130   31.9850   46.4190 C.2   350  HEM350      0.0000
     27  C2C        7.1110   31.3140   45.6020 C.2   350  HEM350      0.0000
     28  C3C        6.4330   30.5040   44.7170 C.2   350  HEM350      0.0000
     29  C4C        5.0470   30.6350   45.0550 C.2   350  HEM350      0.0000
     30  CMC        8.6110   31.4730   45.7710 C.3   350  HEM350      0.0000
     31  CAC        6.9200   29.6670   43.7050 C.3   350  HEM350      0.0000
     32  CBC        7.9650   30.0140   42.7910 C.3   350  HEM350      0.0000
     33  ND         2.1730   30.6830   45.8540 N.ar  350  HEM350      0.0000
     34  C1D        2.6560   30.0380   44.7090 C.ar  350  HEM350      0.0000
     35  C2D        1.5680   29.4300   43.9640 C.ar  350  HEM350      0.0000
     36  C3D        0.4510   29.5980   44.7000 C.ar  350  HEM350      0.0000
     37  C4D        0.8270   30.3210   45.9120 C.ar  350  HEM350      0.0000
     38  CMD        1.6240   28.8870   42.5480 C.3   350  HEM350      0.0000
     39  CAD       -0.9390   29.1990   44.2790 C.3   350  HEM350      0.0000
     40  CBD       -1.1540   27.7810   44.7520 C.3   350  HEM350      0.0000
     41  CGD       -2.5120   27.2400   44.3780 C.2   350  HEM350      0.0000
     42  O1D       -2.8160   26.1030   44.7800 O.co2 350  HEM350      0.0000
     43  O2D       -3.2700   27.9460   43.6820 O.co2 350  HEM350      0.0000
@<TRIPOS>BOND
     1    38    35    1
     2    32    31    1
     3    43    41   ar
     4    31    28    1
     5    35    36   ar
     6    35    34   ar
     7    39    36    1
     8    39    40    1
     9     5    34    2
    10     5    29    1
    11    41    40    1
    12    41    42   ar
    13    36    37   ar
    14    34    33   ar
    15    28    29    1
    16    28    27    2
    17    29    25    2
    18    27    30    1
    19    27    26    1
    20    33    37   ar
    21    33     1    1
    22    37     2    2
    23    25    26    1
    24    25     1    1
    25    26     4    2
    26     2     7    1
    27     1     6    1
    28     1    17    1
    29     4    21    1
    30     7     6    2
    31     7     8    1
    32     6    10    1
    33    21    17   ar
    34    21    20   ar
    35    17    18   ar
    36    24    23    1
    37     8    12    1
    38     8     9    2
    39    12    13    1
    40    20    23    1
    41    20    19   ar
    42    10     9    1
    43    10     3    2
    44    18     3    1
    45    18    19   ar
    46    16    14   ar
    47    13    14    1
    48     9    11    1
    49    14    15   ar
    50    19    22    1
