@<TRIPOS>MOLECULE
1gwq_ZTW_A_1.pdb
 17 19 0 0 0
SMALL
GASTEIGER

@<TRIPOS>ATOM
      1  C1         4.6920    3.1760   28.0630 C.ar  600  ZTW600      0.0038
      2  C2         3.4960    3.0880   27.3360 C.ar  600  ZTW600      0.0421
      3  C3         2.6050    4.1710   27.3050 C.ar  600  ZTW600      0.1962
      4  O3         1.4060    4.1220   26.5880 O.3   600  ZTW600     -0.2866
      5  C4         2.9170    5.3430   27.9970 C.ar  600  ZTW600      0.0485
      6  C5         4.0930    5.4260   28.7100 C.ar  600  ZTW600      0.0326
      7  S6         4.6800    6.7120   29.6390 S.2   600  ZTW600     -0.0868
      8  C7         6.1030    5.9600   30.1310 C.ar  600  ZTW600      0.0295
      9  C8         7.1580    6.6140   30.9560 C.ar  600  ZTW600      0.0062
     10  C9         6.9190    7.7040   31.7660 C.ar  600  ZTW600      0.0038
     11  C10        8.0140    8.2380   32.4550 C.ar  600  ZTW600      0.0420
     12  C11        9.3000    7.7540   32.3280 C.ar  600  ZTW600      0.1957
     13  O11       10.3630    8.3090   33.0220 O.3   600  ZTW600     -0.2866
     14  C12        9.5180    6.6740   31.4940 C.ar  600  ZTW600      0.0420
     15  C13        8.4580    6.1220   30.8080 C.ar  600  ZTW600      0.0038
     16  C14        5.0050    4.3290   28.7430 C.ar  600  ZTW600      0.0067
     17  C15        6.1590    4.6790   29.5620 C.ar  600  ZTW600      0.0070
@<TRIPOS>BOND
     1     4     3    1
     2     3     2   ar
     3     3     5   ar
     4     2     1   ar
     5     5     6   ar
     6     1    16   ar
     7     6    16   ar
     8     6     7   ar
     9    16    17   ar
    10    17     8   ar
    11     7     8   ar
    12     8     9    1
    13    15     9   ar
    14    15    14   ar
    15     9    10   ar
    16    14    12   ar
    17    10    11   ar
    18    12    11   ar
    19    12    13    1
