@<TRIPOS>MOLECULE
1gwr_EST_A_1.pdb
 20 23 0 0 0
SMALL
GASTEIGER

@<TRIPOS>ATOM
      1  C1        -7.5870   -4.2900   15.6070 C.ar  600  EST600     -0.0013
      2  C2        -6.7720   -4.0810   16.7240 C.ar  600  EST600      0.0417
      3  C3        -5.4180   -4.2170   16.6430 C.ar  600  EST600      0.1954
      4  O3        -4.5770   -4.0100   17.7520 O.3   600  EST600     -0.2866
      5  C4        -4.7940   -4.5800   15.4310 C.ar  600  EST600      0.0375
      6  C5        -5.6090   -4.7840   14.3130 C.ar  600  EST600     -0.0230
      7  C6        -4.8610   -5.0870   13.0210 C.3   600  EST600      0.0261
      8  C7        -5.7660   -5.5340   11.8910 C.3   600  EST600      0.0050
      9  C8        -7.0270   -4.6690   11.8650 C.3   600  EST600      0.0044
     10  C9        -7.8390   -4.8850   13.1400 C.3   600  EST600      0.0220
     11  C10       -7.0010   -4.6540   14.3540 C.ar  600  EST600     -0.0263
     12  C11       -9.1420   -4.0740   13.0440 C.3   600  EST600      0.0044
     13  C12       -9.9600   -4.6070   11.8400 C.3   600  EST600      0.0028
     14  C13       -9.1520   -4.3830   10.5580 C.3   600  EST600      0.0282
     15  C14       -7.8140   -5.1540   10.6880 C.3   600  EST600      0.0028
     16  C15       -7.2160   -4.9030    9.3000 C.3   600  EST600      0.0027
     17  C16       -8.4190   -5.2950    8.3820 C.3   600  EST600      0.0329
     18  C17       -9.6670   -5.0840    9.2930 C.3   600  EST600      0.1519
     19  O17      -10.7490   -4.4360    8.6390 O.3   600  EST600     -0.2232
     20  C18       -8.9850   -2.9330   10.1670 C.3   600  EST600      0.0025
@<TRIPOS>BOND
     1    17    18    1
     2    17    16    1
     3    19    18    1
     4    18    14    1
     5    16    15    1
     6    20    14    1
     7    14    15    1
     8    14    13    1
     9    15     9    1
    10    13    12    1
    11     9     8    1
    12     9    10    1
    13     8     7    1
    14     7     6    1
    15    12    10    1
    16    10    11    1
    17     6    11   ar
    18     6     5   ar
    19    11     1   ar
    20     5     3   ar
    21     1     2   ar
    22     3     2   ar
    23     3     4    1
