@<TRIPOS>MOLECULE
1gws_HEM_A_1.pdb
 43 50 0 0 0
SMALL
GASTEIGER

@<TRIPOS>ATOM
      1 FE          6.7060   66.6950   -9.9970 Fe    602  HEM602      0.0000
      2  CHA        7.5290   68.9550  -12.1800 C.2   602  HEM602      0.0000
      3  CHB        7.5820   68.7840   -7.3900 C.2   602  HEM602      0.0000
      4  CHC        5.6900   64.4190   -7.6880 C.2   602  HEM602      0.0000
      5  CHD        5.9160   64.4620  -12.4210 C.2   602  HEM602      0.0000
      6  NA         7.3900   68.4500   -9.8660 N.2   602  HEM602      0.0000
      7  C1A        7.7290   69.2800  -10.8860 C.2   602  HEM602      0.0000
      8  C2A        8.2840   70.5410  -10.4180 C.2   602  HEM602      0.0000
      9  C3A        8.2960   70.4600   -9.0940 C.2   602  HEM602      0.0000
     10  C4A        7.7320   69.1820   -8.7090 C.2   602  HEM602      0.0000
     11  CMA        8.8020   71.5250   -8.1090 C.3   602  HEM602      0.0000
     12  CAA        8.8400   71.7350  -11.2610 C.3   602  HEM602      0.0000
     13  CBA        7.9470   72.9880  -11.3050 C.3   602  HEM602      0.0000
     14  CGA        8.1320   73.7280  -12.6390 C.2   602  HEM602      0.0000
     15  O1A        7.4430   74.7220  -12.9710 O.co2 602  HEM602      0.0000
     16  O2A        8.9390   73.3200  -13.4840 O.co2 602  HEM602      0.0000
     17  NB         6.7000   66.6130   -7.9770 N.ar  602  HEM602      0.0000
     18  C1B        7.0060   67.5890   -7.1120 C.ar  602  HEM602      0.0000
     19  C2B        6.6850   67.1670   -5.7980 C.ar  602  HEM602      0.0000
     20  C3B        6.1590   65.9710   -5.8650 C.ar  602  HEM602      0.0000
     21  C4B        6.1470   65.6250   -7.2450 C.ar  602  HEM602      0.0000
     22  CMB        7.0090   68.0720   -4.6260 C.3   602  HEM602      0.0000
     23  CAB        5.6420   65.0600   -4.7820 C.3   602  HEM602      0.0000
     24  CBB        5.0330   65.9460   -3.9680 C.3   602  HEM602      0.0000
     25  NC         6.0130   64.9070  -10.0480 N.2   602  HEM602      0.0000
     26  C1C        5.6410   64.0860   -8.9820 C.2   602  HEM602      0.0000
     27  C2C        5.2550   62.7350   -9.4160 C.2   602  HEM602      0.0000
     28  C3C        5.1840   62.7900  -10.7440 C.2   602  HEM602      0.0000
     29  C4C        5.7340   64.0970  -11.1400 C.2   602  HEM602      0.0000
     30  CMC        4.7140   61.6200   -8.4760 C.3   602  HEM602      0.0000
     31  CAC        4.8400   61.6410  -11.7360 C.2   602  HEM602      0.0000
     32  CBC        4.0250   60.6370  -11.3020 C.2   602  HEM602      0.0000
     33  ND         6.7130   66.7110  -11.9780 N.ar  602  HEM602      0.0000
     34  C1D        6.3100   65.7000  -12.8200 C.ar  602  HEM602      0.0000
     35  C2D        6.3500   66.1230  -14.1940 C.ar  602  HEM602      0.0000
     36  C3D        6.8420   67.5530  -14.0860 C.ar  602  HEM602      0.0000
     37  C4D        7.0480   67.7800  -12.6710 C.ar  602  HEM602      0.0000
     38  CMD        5.9780   65.3370  -15.4630 C.3   602  HEM602      0.0000
     39  CAD        7.1130   68.5750  -15.1930 C.3   602  HEM602      0.0000
     40  CBD        5.7700   69.2340  -15.4660 C.3   602  HEM602      0.0000
     41  CGD        5.8680   70.2560  -16.6000 C.2   602  HEM602      0.0000
     42  O1D        4.7740   70.6070  -17.1740 O.co2 602  HEM602      0.0000
     43  O2D        7.0280   70.7110  -16.9140 O.co2 602  HEM602      0.0000
@<TRIPOS>BOND
     1    42    41   ar
     2    43    41   ar
     3    41    40    1
     4    40    39    1
     5    38    35    1
     6    39    36    1
     7    35    36   ar
     8    35    34   ar
     9    36    37   ar
    10    16    14   ar
    11    15    14   ar
    12    34     5    2
    13    34    33   ar
    14    37     2    2
    15    37    33   ar
    16    14    13    1
    17     5    29    1
    18     2     7    1
    19    33     1    1
    20    31    32    2
    21    31    28    1
    22    13    12    1
    23    12     8    1
    24    29    28    1
    25    29    25    2
    26     7     8    1
    27     7     6    2
    28    28    27    2
    29     8     9    2
    30    25     1    1
    31    25    26    1
    32     1     6    1
    33     1    17    1
    34     6    10    1
    35    27    26    1
    36    27    30    1
    37     9    10    1
    38     9    11    1
    39    26     4    2
    40    10     3    2
    41    17    21   ar
    42    17    18   ar
    43     4    21    1
    44     3    18    1
    45    21    20   ar
    46    18    19   ar
    47    20    19   ar
    48    20    23    1
    49    19    22    1
    50    23    24    1
