@<TRIPOS>MOLECULE
1gws_HEC_A_10.pdb
 43 50 0 0 0
SMALL
GASTEIGER

@<TRIPOS>ATOM
      1 FE        -30.4310  123.5280    3.1670 Fe    614  HEC614      0.0000
      2  CHA      -27.4550  122.2060    4.6130 C.2   614  HEC614      0.0000
      3  CHB      -29.1070  123.1980    0.1910 C.2   614  HEC614      0.0000
      4  CHC      -33.4500  124.6000    1.6750 C.2   614  HEC614      0.0000
      5  CHD      -31.7300  124.1100    6.1510 C.2   614  HEC614      0.0000
      6  NA       -28.6000  122.7760    2.5470 N.ar  614  HEC614      0.0000
      7  C1A      -27.5160  122.2990    3.2520 C.ar  614  HEC614      0.0000
      8  C2A      -26.4980  121.9070    2.3140 C.ar  614  HEC614      0.0000
      9  C3A      -26.9790  122.1500    1.0740 C.ar  614  HEC614      0.0000
     10  C4A      -28.2870  122.7560    1.2070 C.ar  614  HEC614      0.0000
     11  CMA      -26.2350  121.8700   -0.2490 C.3   614  HEC614      0.0000
     12  CAA      -25.1340  121.2510    2.7040 C.3   614  HEC614      0.0000
     13  CBA      -25.3220  119.7900    3.0840 C.3   614  HEC614      0.0000
     14  CGA      -24.0030  119.0520    3.4100 C.2   614  HEC614      0.0000
     15  O1A      -22.8100  119.5980    3.4970 O.co2 614  HEC614      0.0000
     16  O2A      -24.1980  117.8130    3.5740 O.co2 614  HEC614      0.0000
     17  NB       -31.1770  123.8520    1.3480 N.2   614  HEC614      0.0000
     18  C1B      -30.4080  123.6110    0.2400 C.2   614  HEC614      0.0000
     19  C2B      -31.2440  123.9040   -0.9490 C.2   614  HEC614      0.0000
     20  C3B      -32.4480  124.2900   -0.5330 C.2   614  HEC614      0.0000
     21  C4B      -32.4280  124.2290    0.9070 C.2   614  HEC614      0.0000
     22  CMB      -30.8110  123.8260   -2.4440 C.3   614  HEC614      0.0000
     23  CAB      -33.6350  124.6690   -1.4480 C.3   614  HEC614      0.0000
     24  CBB      -34.0290  123.4940   -1.9030 C.3   614  HEC614      0.0000
     25  NC       -32.2190  124.2080    3.7010 N.ar  614  HEC614      0.0000
     26  C1C      -33.3410  124.6250    3.0350 C.ar  614  HEC614      0.0000
     27  C2C      -34.3420  125.1580    3.9990 C.ar  614  HEC614      0.0000
     28  C3C      -33.9040  124.8060    5.2300 C.ar  614  HEC614      0.0000
     29  C4C      -32.5500  124.3210    5.0690 C.ar  614  HEC614      0.0000
     30  CMC      -35.8010  125.4780    3.6140 C.3   614  HEC614      0.0000
     31  CAC      -34.4730  125.0250    6.6790 C.2   614  HEC614      0.0000
     32  CBC      -35.7980  125.1980    6.8670 C.2   614  HEC614      0.0000
     33  ND       -29.6980  123.2030    5.0950 N.2   614  HEC614      0.0000
     34  C1D      -30.4350  123.6120    6.1480 C.2   614  HEC614      0.0000
     35  C2D      -29.6810  123.3590    7.3410 C.2   614  HEC614      0.0000
     36  C3D      -28.3650  122.7660    6.9010 C.2   614  HEC614      0.0000
     37  C4D      -28.4610  122.7040    5.4730 C.2   614  HEC614      0.0000
     38  CMD      -30.1700  123.6730    8.7720 C.3   614  HEC614      0.0000
     39  CAD      -27.1730  122.3610    7.7640 C.3   614  HEC614      0.0000
     40  CBD      -26.8500  120.9620    7.3220 C.3   614  HEC614      0.0000
     41  CGD      -28.0950  120.1530    7.5910 C.2   614  HEC614      0.0000
     42  O1D      -28.5070  119.2350    6.7130 O.co2 614  HEC614      0.0000
     43  O2D      -28.5740  120.4600    8.7450 O.co2 614  HEC614      0.0000
@<TRIPOS>BOND
     1    22    19    1
     2    24    23    1
     3    23    20    1
     4    19    20    2
     5    19    18    1
     6    20    21    1
     7    11     9    1
     8     3    18    1
     9     3    10    2
    10    18    17    2
    11    21    17    1
    12    21     4    2
    13     9    10   ar
    14     9     8   ar
    15    10     6   ar
    16    17     1    1
    17     4    26    1
    18     8    12    1
    19     8     7   ar
    20     6     1    1
    21     6     7   ar
    22    12    13    1
    23    26    25   ar
    24    26    27   ar
    25    13    14    1
    26     1    25    1
    27     1    33    1
    28     7     2    2
    29    14    15   ar
    30    14    16   ar
    31    30    27    1
    32    25    29   ar
    33    27    28   ar
    34     2    37    1
    35    29    28   ar
    36    29     5    1
    37    33    37    2
    38    33    34    1
    39    28    31    1
    40    37    36    1
    41    34     5    2
    42    34    35    1
    43    31    32    2
    44    42    41   ar
    45    36    35    2
    46    36    39    1
    47    40    41    1
    48    40    39    1
    49    35    38    1
    50    41    43   ar
