@<TRIPOS>MOLECULE
1gwt_FER_A_1.pdb
 14 14 0 0 0
SMALL
GASTEIGER

@<TRIPOS>ATOM
      1  C4         3.9540    6.5390   30.2820 C.ar  701  FER701      0.2293
      2  C5         3.6250    7.7770   29.7050 C.ar  701  FER701      0.0452
      3  C6         4.3970    8.3310   28.7130 C.ar  701  FER701      0.0035
      4  C3         5.1040    5.8660   29.8290 C.ar  701  FER701      0.1774
      5  C2         5.8860    6.4320   28.8190 C.ar  701  FER701      0.0402
      6  C1         5.5500    7.6780   28.2420 C.ar  701  FER701      0.0034
      7  C10        6.4700    3.8940   30.0960 C.3   701  FER701      0.2526
      8  C7         6.3620    8.2740   27.1890 C.2   701  FER701      0.0069
      9  C8         6.2200    9.4240   26.5230 C.2   701  FER701      0.0861
     10  C9         7.1570    9.8480   25.4800 C.2   701  FER701      0.3880
     11  O1         6.9220   10.9810   24.9100 O.co2 701  FER701     -0.2405
     12  O2         8.1490    9.1350   25.1630 O.co2 701  FER701     -0.2405
     13  O4         3.1650    6.0150   31.2610 O.3   701  FER701     -0.2833
     14  O3         5.3350    4.6670   30.4680 O.3   701  FER701     -0.4682
@<TRIPOS>BOND
     1    11    10   ar
     2    12    10   ar
     3    10     9    1
     4     9     8    2
     5     8     6    1
     6     6     3   ar
     7     6     5   ar
     8     3     2   ar
     9     5     4   ar
    10     2     1   ar
    11     4     1   ar
    12     4    14    1
    13     7    14    1
    14     1    13    1
