@<TRIPOS>MOLECULE
1gwt_HEM_A_1.pdb
 43 50 0 0 0
SMALL
GASTEIGER

@<TRIPOS>ATOM
      1 FE          3.2150   32.0040   46.8020 Fe    350  HEM350      0.0000
      2  CHA       -0.0440   30.9290   46.4750 C.2   350  HEM350      0.0000
      3  CHB        2.4340   33.4280   49.8930 C.2   350  HEM350      0.0000
      4  CHC        6.5150   32.9000   47.2620 C.2   350  HEM350      0.0000
      5  CHD        4.1300   30.0980   44.1020 C.2   350  HEM350      0.0000
      6  NA         1.5600   32.0870   47.9820 N.2   350  HEM350      0.0000
      7  C1A        0.2980   31.5820   47.6820 C.2   350  HEM350      0.0000
      8  C2A       -0.6320   31.8980   48.7560 C.2   350  HEM350      0.0000
      9  C3A        0.0540   32.5940   49.7100 C.2   350  HEM350      0.0000
     10  C4A        1.4200   32.6980   49.2350 C.2   350  HEM350      0.0000
     11  CMA       -0.5090   33.2660   50.9720 C.3   350  HEM350      0.0000
     12  CAA       -2.1160   31.5380   48.8010 C.3   350  HEM350      0.0000
     13  CBA       -2.3360   30.1910   49.4740 C.3   350  HEM350      0.0000
     14  CGA       -3.8080   29.8510   49.6380 C.2   350  HEM350      0.0000
     15  O1A       -4.1100   28.7560   50.1510 O.co2 350  HEM350      0.0000
     16  O2A       -4.6550   30.6820   49.2540 O.co2 350  HEM350      0.0000
     17  NB         4.2620   32.9650   48.2720 N.ar  350  HEM350      0.0000
     18  C1B        3.7700   33.5180   49.4470 C.ar  350  HEM350      0.0000
     19  C2B        4.7830   34.3170   50.0950 C.ar  350  HEM350      0.0000
     20  C3B        5.8970   34.2420   49.3350 C.ar  350  HEM350      0.0000
     21  C4B        5.5970   33.3480   48.2300 C.ar  350  HEM350      0.0000
     22  CMB        4.6320   35.0830   51.4050 C.3   350  HEM350      0.0000
     23  CAB        7.1090   34.8310   49.6640 C.3   350  HEM350      0.0000
     24  CBB        7.8300   35.6530   48.7420 C.3   350  HEM350      0.0000
     25  NC         4.9570   31.5220   45.9400 N.2   350  HEM350      0.0000
     26  C1C        6.2350   31.9720   46.2600 C.2   350  HEM350      0.0000
     27  C2C        7.2360   31.3250   45.4360 C.2   350  HEM350      0.0000
     28  C3C        6.5690   30.5180   44.5530 C.2   350  HEM350      0.0000
     29  C4C        5.1600   30.6600   44.8610 C.2   350  HEM350      0.0000
     30  CMC        8.7460   31.4470   45.6740 C.3   350  HEM350      0.0000
     31  CAC        7.0680   29.6130   43.6130 C.3   350  HEM350      0.0000
     32  CBC        8.0560   30.0000   42.6460 C.3   350  HEM350      0.0000
     33  ND         2.2560   30.7720   45.5710 N.ar  350  HEM350      0.0000
     34  C1D        2.7830   30.1320   44.4490 C.ar  350  HEM350      0.0000
     35  C2D        1.7090   29.6530   43.6000 C.ar  350  HEM350      0.0000
     36  C3D        0.5380   29.8530   44.2540 C.ar  350  HEM350      0.0000
     37  C4D        0.8770   30.5230   45.5080 C.ar  350  HEM350      0.0000
     38  CMD        1.8830   29.0730   42.2090 C.3   350  HEM350      0.0000
     39  CAD       -0.8530   29.3440   43.8380 C.3   350  HEM350      0.0000
     40  CBD       -1.0550   27.9530   44.4300 C.3   350  HEM350      0.0000
     41  CGD       -2.4100   27.3460   44.1070 C.2   350  HEM350      0.0000
     42  O1D       -2.6620   26.2050   44.5470 O.co2 350  HEM350      0.0000
     43  O2D       -3.2180   28.0020   43.4170 O.co2 350  HEM350      0.0000
@<TRIPOS>BOND
     1    38    35    1
     2    32    31    1
     3    43    41   ar
     4    35    36   ar
     5    35    34   ar
     6    31    28    1
     7    39    36    1
     8    39    40    1
     9     5    34    2
    10     5    29    1
    11    41    40    1
    12    41    42   ar
    13    36    37   ar
    14    34    33   ar
    15    28    29    1
    16    28    27    2
    17    29    25    2
    18    27    30    1
    19    27    26    1
    20    37    33   ar
    21    37     2    2
    22    33     1    1
    23    25    26    1
    24    25     1    1
    25    26     4    2
    26     2     7    1
    27     1     6    1
    28     1    17    1
    29     4    21    1
    30     7     6    2
    31     7     8    1
    32     6    10    1
    33    21    17   ar
    34    21    20   ar
    35    17    18   ar
    36    24    23    1
    37     8    12    1
    38     8     9    2
    39    12    13    1
    40    10     9    1
    41    10     3    2
    42    16    14   ar
    43    20    23    1
    44    20    19   ar
    45    18     3    1
    46    18    19   ar
    47    13    14    1
    48    14    15   ar
    49     9    11    1
    50    19    22    1
