@<TRIPOS>MOLECULE
1gwu_HEM_A_1.pdb
 43 50 0 0 0
SMALL
GASTEIGER

@<TRIPOS>ATOM
      1 FE          3.2920   31.4200   46.6540 Fe    1306  HEM1306     0.0000
      2  CHA        0.1320   30.1100   46.5450 C.2   1306  HEM1306     0.0000
      3  CHB        2.5210   32.9010   49.6370 C.2   1306  HEM1306     0.0000
      4  CHC        6.5990   32.3560   47.0270 C.2   1306  HEM1306     0.0000
      5  CHD        4.2100   29.5590   43.9270 C.2   1306  HEM1306     0.0000
      6  NA         1.6840   31.4030   47.8910 N.2   1306  HEM1306     0.0000
      7  C1A        0.4320   30.8830   47.6250 C.2   1306  HEM1306     0.0000
      8  C2A       -0.4350   31.2770   48.6790 C.2   1306  HEM1306     0.0000
      9  C3A        0.2090   32.0610   49.5430 C.2   1306  HEM1306     0.0000
     10  C4A        1.5260   32.0990   49.0470 C.2   1306  HEM1306     0.0000
     11  CMA       -0.3990   32.8080   50.7330 C.3   1306  HEM1306     0.0000
     12  CAA       -1.9240   30.9310   48.6710 C.3   1306  HEM1306     0.0000
     13  CBA       -2.1430   29.6620   49.5290 C.3   1306  HEM1306     0.0000
     14  CGA       -3.6280   29.3030   49.6760 C.2   1306  HEM1306     0.0000
     15  O1A       -3.9470   28.1640   50.0300 O.co2 1306  HEM1306     0.0000
     16  O2A       -4.5040   30.1370   49.4760 O.co2 1306  HEM1306     0.0000
     17  NB         4.3210   32.4240   48.0420 N.ar  1306  HEM1306     0.0000
     18  C1B        3.8220   33.0720   49.1630 C.ar  1306  HEM1306     0.0000
     19  C2B        4.8580   33.8990   49.7520 C.ar  1306  HEM1306     0.0000
     20  C3B        5.9360   33.8180   48.9770 C.ar  1306  HEM1306     0.0000
     21  C4B        5.6610   32.8360   47.9950 C.ar  1306  HEM1306     0.0000
     22  CMB        4.6400   34.6770   51.0200 C.3   1306  HEM1306     0.0000
     23  CAB        7.1550   34.4910   49.1610 C.3   1306  HEM1306     0.0000
     24  CBB        7.9390   35.1030   48.1680 C.3   1306  HEM1306     0.0000
     25  NC         5.0840   31.0010   45.7090 N.2   1306  HEM1306     0.0000
     26  C1C        6.3520   31.4860   45.9930 C.2   1306  HEM1306     0.0000
     27  C2C        7.2700   30.8820   45.1530 C.2   1306  HEM1306     0.0000
     28  C3C        6.5960   30.0520   44.2950 C.2   1306  HEM1306     0.0000
     29  C4C        5.2350   30.1530   44.6700 C.2   1306  HEM1306     0.0000
     30  CMC        8.7310   31.1040   45.3960 C.3   1306  HEM1306     0.0000
     31  CAC        7.0950   29.1570   43.2940 C.2   1306  HEM1306     0.0000
     32  CBC        8.1150   29.5070   42.4600 C.2   1306  HEM1306     0.0000
     33  ND         2.3960   30.1050   45.4670 N.ar  1306  HEM1306     0.0000
     34  C1D        2.8410   29.6140   44.2890 C.ar  1306  HEM1306     0.0000
     35  C2D        1.7470   29.1270   43.5020 C.ar  1306  HEM1306     0.0000
     36  C3D        0.6550   29.2270   44.2350 C.ar  1306  HEM1306     0.0000
     37  C4D        1.0100   29.7880   45.4750 C.ar  1306  HEM1306     0.0000
     38  CMD        1.9400   28.6420   42.0640 C.3   1306  HEM1306     0.0000
     39  CAD       -0.7330   28.7380   43.8210 C.3   1306  HEM1306     0.0000
     40  CBD       -0.9380   27.3120   44.2820 C.3   1306  HEM1306     0.0000
     41  CGD       -2.3090   26.7270   43.9580 C.2   1306  HEM1306     0.0000
     42  O1D       -2.5470   25.5880   44.3730 O.co2 1306  HEM1306     0.0000
     43  O2D       -3.1700   27.4150   43.3760 O.co2 1306  HEM1306     0.0000
@<TRIPOS>BOND
     1    38    35    1
     2    32    31    2
     3    31    28    1
     4    43    41   ar
     5    35    36   ar
     6    35    34   ar
     7    39    36    1
     8    39    40    1
     9     5    34    2
    10     5    29    1
    11    41    40    1
    12    41    42   ar
    13    36    37   ar
    14    34    33   ar
    15    28    29    1
    16    28    27    2
    17    29    25    2
    18    27    30    1
    19    27    26    1
    20    33    37   ar
    21    33     1    1
    22    37     2    2
    23    25    26    1
    24    25     1    1
    25    26     4    2
    26     2     7    1
    27     1     6    1
    28     1    17    1
    29     4    21    1
    30     7     6    2
    31     7     8    1
    32     6    10    1
    33    21    17   ar
    34    21    20   ar
    35    17    18   ar
    36    24    23    1
    37    12     8    1
    38    12    13    1
    39     8     9    2
    40    20    23    1
    41    20    19   ar
    42    10     9    1
    43    10     3    2
    44    18     3    1
    45    18    19   ar
    46    16    14   ar
    47    13    14    1
    48     9    11    1
    49    14    15   ar
    50    19    22    1
