@<TRIPOS>MOLECULE
1gwv_UDP_A_1.pdb
 25 26 0 0 0
SMALL
GASTEIGER

@<TRIPOS>ATOM
      1  N1         2.8260   14.0230   43.2840 N.am  1369  UDP1369    -0.1766
      2  C2         2.7910   14.9640   42.2530 C.1   1369  UDP1369     0.2845
      3  N3         2.3450   16.2200   42.5860 N.2   1369  UDP1369    -0.2452
      4  C4         1.9200   16.6600   43.8500 C.1   1369  UDP1369     0.2182
      5  C5         1.9690   15.6130   44.9930 C.2   1369  UDP1369     0.1242
      6  C6         2.4170   14.3840   44.6010 C.2   1369  UDP1369     0.0929
      7  O2         3.1380   14.6980   41.0990 O.2   1369  UDP1369    -0.1918
      8  O4         1.5520   17.8370   43.9410 O.2   1369  UDP1369    -0.2085
      9  C1'        3.2920   12.6330   42.9680 C.3   1369  UDP1369     0.2401
     10  C2'        4.7940   12.4610   42.7170 C.3   1369  UDP1369     0.2319
     11  O2'        5.0130   11.5590   41.6520 O.3   1369  UDP1369    -0.2157
     12  C3'        5.2940   11.9520   44.0650 C.3   1369  UDP1369     0.2158
     13  C4'        4.1670   11.0240   44.4880 C.3   1369  UDP1369     0.1799
     14  O4'        2.9760   11.7410   44.0540 O.3   1369  UDP1369    -0.3320
     15  O3'        6.5070   11.2250   43.8660 O.3   1369  UDP1369    -0.2175
     16  C5'        4.0890   10.8100   46.0140 C.3   1369  UDP1369     0.1813
     17  O5'        4.1890   12.0870   46.6160 O.3   1369  UDP1369    -0.3111
     18  PA         5.3110   12.8060   47.4290 P.3   1369  UDP1369     0.2231
     19  O1A        6.5640   12.7170   46.6460 O.2   1369  UDP1369    -0.5169
     20  O2A        4.8150   14.1780   47.7670 O.3   1369  UDP1369    -0.4370
     21  O3A        5.3580   11.8140   48.6580 O.3   1369  UDP1369    -0.2261
     22  PB         6.3790   11.7100   49.8770 P.3   1369  UDP1369     0.5373
     23  O1B        7.4180   10.5660   49.3990 O.2   1369  UDP1369    -0.2221
     24  O2B        5.4930   11.2750   50.9860 O.3   1369  UDP1369    -0.1143
     25  O3B        7.2470   12.9070   50.0400 O.3   1369  UDP1369    -0.1143
@<TRIPOS>BOND
     1     7     2    2
     2    11    10    1
     3     2     3    2
     4     2     1   am
     5     3     4    2
     6    10     9    1
     7    10    12    1
     8     9     1    1
     9     9    14    1
    10     1     6    1
    11     4     8    2
    12     4     5    1
    13    15    12    1
    14    14    13    1
    15    12    13    1
    16    13    16    1
    17     6     5    2
    18    16    17    1
    19    17    18    1
    20    19    18    2
    21    18    20    1
    22    18    21    1
    23    21    22    1
    24    23    22    2
    25    22    25    1
    26    22    24    1
